data_image0
_cell_length_a       30.1702
_cell_length_b       30.1702
_cell_length_c       30.1702
_cell_angle_alpha    90
_cell_angle_beta     90
_cell_angle_gamma    90

_symmetry_space_group_name_H-M    "P 1"
_symmetry_int_tables_number       1

loop_
  _symmetry_equiv_pos_as_xyz
  'x, y, z'

loop_
  _atom_site_label
  _atom_site_occupancy
  _atom_site_fract_x
  _atom_site_fract_y
  _atom_site_fract_z
  _atom_site_thermal_displace_type
  _atom_site_B_iso_or_equiv
  _atom_site_type_symbol
  O1       1.0000 0.29380  0.37430  0.26170  Biso   1.000  O
  O2       1.0000 0.70620  0.62570  0.26170  Biso   1.000  O
  O3       1.0000 0.70620  0.37430  0.73830  Biso   1.000  O
  O4       1.0000 0.29380  0.62570  0.73830  Biso   1.000  O
  O5       1.0000 0.26170  0.29380  0.37430  Biso   1.000  O
  O6       1.0000 0.26170  0.70620  0.62570  Biso   1.000  O
  O7       1.0000 0.73830  0.70620  0.37430  Biso   1.000  O
  O8       1.0000 0.73830  0.29380  0.62570  Biso   1.000  O
  O9       1.0000 0.37430  0.26170  0.29380  Biso   1.000  O
  O10      1.0000 0.62570  0.26170  0.70620  Biso   1.000  O
  O11      1.0000 0.37430  0.73830  0.70620  Biso   1.000  O
  O12      1.0000 0.62570  0.73830  0.29380  Biso   1.000  O
  O13      1.0000 0.87430  0.79380  0.76170  Biso   1.000  O
  O14      1.0000 0.12570  0.20620  0.76170  Biso   1.000  O
  O15      1.0000 0.87430  0.20620  0.23830  Biso   1.000  O
  O16      1.0000 0.12570  0.79380  0.23830  Biso   1.000  O
  O17      1.0000 0.79380  0.76170  0.87430  Biso   1.000  O
  O18      1.0000 0.20620  0.76170  0.12570  Biso   1.000  O
  O19      1.0000 0.20620  0.23830  0.87430  Biso   1.000  O
  O20      1.0000 0.79380  0.23830  0.12570  Biso   1.000  O
  O21      1.0000 0.76170  0.87430  0.79380  Biso   1.000  O
  O22      1.0000 0.76170  0.12570  0.20620  Biso   1.000  O
  O23      1.0000 0.23830  0.87430  0.20620  Biso   1.000  O
  O24      1.0000 0.23830  0.12570  0.79380  Biso   1.000  O
  O25      1.0000 0.29380  0.87430  0.76170  Biso   1.000  O
  O26      1.0000 0.70620  0.12570  0.76170  Biso   1.000  O
  O27      1.0000 0.70620  0.87430  0.23830  Biso   1.000  O
  O28      1.0000 0.29380  0.12570  0.23830  Biso   1.000  O
  O29      1.0000 0.26170  0.79380  0.87430  Biso   1.000  O
  O30      1.0000 0.26170  0.20620  0.12570  Biso   1.000  O
  O31      1.0000 0.73830  0.20620  0.87430  Biso   1.000  O
  O32      1.0000 0.73830  0.79380  0.12570  Biso   1.000  O
  O33      1.0000 0.37430  0.76170  0.79380  Biso   1.000  O
  O34      1.0000 0.62570  0.76170  0.20620  Biso   1.000  O
  O35      1.0000 0.37430  0.23830  0.20620  Biso   1.000  O
  O36      1.0000 0.62570  0.23830  0.79380  Biso   1.000  O
  O37      1.0000 0.87430  0.29380  0.26170  Biso   1.000  O
  O38      1.0000 0.12570  0.70620  0.26170  Biso   1.000  O
  O39      1.0000 0.87430  0.70620  0.73830  Biso   1.000  O
  O40      1.0000 0.12570  0.29380  0.73830  Biso   1.000  O
  O41      1.0000 0.79380  0.26170  0.37430  Biso   1.000  O
  O42      1.0000 0.20620  0.26170  0.62570  Biso   1.000  O
  O43      1.0000 0.20620  0.73830  0.37430  Biso   1.000  O
  O44      1.0000 0.79380  0.73830  0.62570  Biso   1.000  O
  O45      1.0000 0.76170  0.37430  0.29380  Biso   1.000  O
  O46      1.0000 0.76170  0.62570  0.70620  Biso   1.000  O
  O47      1.0000 0.23830  0.37430  0.70620  Biso   1.000  O
  O48      1.0000 0.23830  0.62570  0.29380  Biso   1.000  O
  O49      1.0000 0.79380  0.37430  0.76170  Biso   1.000  O
  O50      1.0000 0.20620  0.62570  0.76170  Biso   1.000  O
  O51      1.0000 0.20620  0.37430  0.23830  Biso   1.000  O
  O52      1.0000 0.79380  0.62570  0.23830  Biso   1.000  O
  O53      1.0000 0.76170  0.29380  0.87430  Biso   1.000  O
  O54      1.0000 0.76170  0.70620  0.12570  Biso   1.000  O
  O55      1.0000 0.23830  0.70620  0.87430  Biso   1.000  O
  O56      1.0000 0.23830  0.29380  0.12570  Biso   1.000  O
  O57      1.0000 0.87430  0.26170  0.79380  Biso   1.000  O
  O58      1.0000 0.12570  0.26170  0.20620  Biso   1.000  O
  O59      1.0000 0.87430  0.73830  0.20620  Biso   1.000  O
  O60      1.0000 0.12570  0.73830  0.79380  Biso   1.000  O
  O61      1.0000 0.37430  0.79380  0.26170  Biso   1.000  O
  O62      1.0000 0.62570  0.20620  0.26170  Biso   1.000  O
  O63      1.0000 0.37430  0.20620  0.73830  Biso   1.000  O
  O64      1.0000 0.62570  0.79380  0.73830  Biso   1.000  O
  O65      1.0000 0.29380  0.76170  0.37430  Biso   1.000  O
  O66      1.0000 0.70620  0.76170  0.62570  Biso   1.000  O
  O67      1.0000 0.70620  0.23830  0.37430  Biso   1.000  O
  O68      1.0000 0.29380  0.23830  0.62570  Biso   1.000  O
  O69      1.0000 0.26170  0.87430  0.29380  Biso   1.000  O
  O70      1.0000 0.26170  0.12570  0.70620  Biso   1.000  O
  O71      1.0000 0.73830  0.87430  0.70620  Biso   1.000  O
  O72      1.0000 0.73830  0.12570  0.29380  Biso   1.000  O
  O73      1.0000 0.79380  0.87430  0.26170  Biso   1.000  O
  O74      1.0000 0.20620  0.12570  0.26170  Biso   1.000  O
  O75      1.0000 0.20620  0.87430  0.73830  Biso   1.000  O
  O76      1.0000 0.79380  0.12570  0.73830  Biso   1.000  O
  O77      1.0000 0.76170  0.79380  0.37430  Biso   1.000  O
  O78      1.0000 0.76170  0.20620  0.62570  Biso   1.000  O
  O79      1.0000 0.23830  0.20620  0.37430  Biso   1.000  O
  O80      1.0000 0.23830  0.79380  0.62570  Biso   1.000  O
  O81      1.0000 0.87430  0.76170  0.29380  Biso   1.000  O
  O82      1.0000 0.12570  0.76170  0.70620  Biso   1.000  O
  O83      1.0000 0.87430  0.23830  0.70620  Biso   1.000  O
  O84      1.0000 0.12570  0.23830  0.29380  Biso   1.000  O
  O85      1.0000 0.37430  0.29380  0.76170  Biso   1.000  O
  O86      1.0000 0.62570  0.70620  0.76170  Biso   1.000  O
  O87      1.0000 0.37430  0.70620  0.23830  Biso   1.000  O
  O88      1.0000 0.62570  0.29380  0.23830  Biso   1.000  O
  O89      1.0000 0.29380  0.26170  0.87430  Biso   1.000  O
  O90      1.0000 0.70620  0.26170  0.12570  Biso   1.000  O
  O91      1.0000 0.70620  0.73830  0.87430  Biso   1.000  O
  O92      1.0000 0.29380  0.73830  0.12570  Biso   1.000  O
  O93      1.0000 0.26170  0.37430  0.79380  Biso   1.000  O
  O94      1.0000 0.26170  0.62570  0.20620  Biso   1.000  O
  O95      1.0000 0.73830  0.37430  0.20620  Biso   1.000  O
  O96      1.0000 0.73830  0.62570  0.79380  Biso   1.000  O
  Cu1      1.0000 0.38747  0.42595  0.16422  Biso   1.000  Cu
  Cu2      1.0000 0.61253  0.57405  0.16422  Biso   1.000  Cu
  Cu3      1.0000 0.61253  0.42595  0.83578  Biso   1.000  Cu
  Cu4      1.0000 0.38747  0.57405  0.83578  Biso   1.000  Cu
  Cu5      1.0000 0.16422  0.38747  0.42595  Biso   1.000  Cu
  Cu6      1.0000 0.16422  0.61253  0.57405  Biso   1.000  Cu
  Cu7      1.0000 0.83578  0.61253  0.42595  Biso   1.000  Cu
  Cu8      1.0000 0.83578  0.38747  0.57405  Biso   1.000  Cu
  Cu9      1.0000 0.42595  0.16422  0.38747  Biso   1.000  Cu
  Cu10     1.0000 0.57405  0.16422  0.61253  Biso   1.000  Cu
  Cu11     1.0000 0.42595  0.83578  0.61253  Biso   1.000  Cu
  Cu12     1.0000 0.57405  0.83578  0.38747  Biso   1.000  Cu
  Cu13     1.0000 0.92595  0.88747  0.66422  Biso   1.000  Cu
  Cu14     1.0000 0.07405  0.11253  0.66422  Biso   1.000  Cu
  Cu15     1.0000 0.92595  0.11253  0.33578  Biso   1.000  Cu
  Cu16     1.0000 0.07405  0.88747  0.33578  Biso   1.000  Cu
  Cu17     1.0000 0.88747  0.66422  0.92595  Biso   1.000  Cu
  Cu18     1.0000 0.11253  0.66422  0.07405  Biso   1.000  Cu
  Cu19     1.0000 0.11253  0.33578  0.92595  Biso   1.000  Cu
  Cu20     1.0000 0.88747  0.33578  0.07405  Biso   1.000  Cu
  Cu21     1.0000 0.66422  0.92595  0.88747  Biso   1.000  Cu
  Cu22     1.0000 0.66422  0.07405  0.11253  Biso   1.000  Cu
  Cu23     1.0000 0.33578  0.92595  0.11253  Biso   1.000  Cu
  Cu24     1.0000 0.33578  0.07405  0.88747  Biso   1.000  Cu
  Cu25     1.0000 0.38747  0.92595  0.66422  Biso   1.000  Cu
  Cu26     1.0000 0.61253  0.07405  0.66422  Biso   1.000  Cu
  Cu27     1.0000 0.61253  0.92595  0.33578  Biso   1.000  Cu
  Cu28     1.0000 0.38747  0.07405  0.33578  Biso   1.000  Cu
  Cu29     1.0000 0.16422  0.88747  0.92595  Biso   1.000  Cu
  Cu30     1.0000 0.16422  0.11253  0.07405  Biso   1.000  Cu
  Cu31     1.0000 0.83578  0.11253  0.92595  Biso   1.000  Cu
  Cu32     1.0000 0.83578  0.88747  0.07405  Biso   1.000  Cu
  Cu33     1.0000 0.42595  0.66422  0.88747  Biso   1.000  Cu
  Cu34     1.0000 0.57405  0.66422  0.11253  Biso   1.000  Cu
  Cu35     1.0000 0.42595  0.33578  0.11253  Biso   1.000  Cu
  Cu36     1.0000 0.57405  0.33578  0.88747  Biso   1.000  Cu
  Cu37     1.0000 0.92595  0.38747  0.16422  Biso   1.000  Cu
  Cu38     1.0000 0.07405  0.61253  0.16422  Biso   1.000  Cu
  Cu39     1.0000 0.92595  0.61253  0.83578  Biso   1.000  Cu
  Cu40     1.0000 0.07405  0.38747  0.83578  Biso   1.000  Cu
  Cu41     1.0000 0.88747  0.16422  0.42595  Biso   1.000  Cu
  Cu42     1.0000 0.11253  0.16422  0.57405  Biso   1.000  Cu
  Cu43     1.0000 0.11253  0.83578  0.42595  Biso   1.000  Cu
  Cu44     1.0000 0.88747  0.83578  0.57405  Biso   1.000  Cu
  Cu45     1.0000 0.66422  0.42595  0.38747  Biso   1.000  Cu
  Cu46     1.0000 0.66422  0.57405  0.61253  Biso   1.000  Cu
  Cu47     1.0000 0.33578  0.42595  0.61253  Biso   1.000  Cu
  Cu48     1.0000 0.33578  0.57405  0.38747  Biso   1.000  Cu
  Cu49     1.0000 0.88747  0.42595  0.66422  Biso   1.000  Cu
  Cu50     1.0000 0.11253  0.57405  0.66422  Biso   1.000  Cu
  Cu51     1.0000 0.11253  0.42595  0.33578  Biso   1.000  Cu
  Cu52     1.0000 0.88747  0.57405  0.33578  Biso   1.000  Cu
  Cu53     1.0000 0.66422  0.38747  0.92595  Biso   1.000  Cu
  Cu54     1.0000 0.66422  0.61253  0.07405  Biso   1.000  Cu
  Cu55     1.0000 0.33578  0.61253  0.92595  Biso   1.000  Cu
  Cu56     1.0000 0.33578  0.38747  0.07405  Biso   1.000  Cu
  Cu57     1.0000 0.92595  0.16422  0.88747  Biso   1.000  Cu
  Cu58     1.0000 0.07405  0.16422  0.11253  Biso   1.000  Cu
  Cu59     1.0000 0.92595  0.83578  0.11253  Biso   1.000  Cu
  Cu60     1.0000 0.07405  0.83578  0.88747  Biso   1.000  Cu
  Cu61     1.0000 0.42595  0.88747  0.16422  Biso   1.000  Cu
  Cu62     1.0000 0.57405  0.11253  0.16422  Biso   1.000  Cu
  Cu63     1.0000 0.42595  0.11253  0.83578  Biso   1.000  Cu
  Cu64     1.0000 0.57405  0.88747  0.83578  Biso   1.000  Cu
  Cu65     1.0000 0.38747  0.66422  0.42595  Biso   1.000  Cu
  Cu66     1.0000 0.61253  0.66422  0.57405  Biso   1.000  Cu
  Cu67     1.0000 0.61253  0.33578  0.42595  Biso   1.000  Cu
  Cu68     1.0000 0.38747  0.33578  0.57405  Biso   1.000  Cu
  Cu69     1.0000 0.16422  0.92595  0.38747  Biso   1.000  Cu
  Cu70     1.0000 0.16422  0.07405  0.61253  Biso   1.000  Cu
  Cu71     1.0000 0.83578  0.92595  0.61253  Biso   1.000  Cu
  Cu72     1.0000 0.83578  0.07405  0.38747  Biso   1.000  Cu
  Cu73     1.0000 0.88747  0.92595  0.16422  Biso   1.000  Cu
  Cu74     1.0000 0.11253  0.07405  0.16422  Biso   1.000  Cu
  Cu75     1.0000 0.11253  0.92595  0.83578  Biso   1.000  Cu
  Cu76     1.0000 0.88747  0.07405  0.83578  Biso   1.000  Cu
  Cu77     1.0000 0.66422  0.88747  0.42595  Biso   1.000  Cu
  Cu78     1.0000 0.66422  0.11253  0.57405  Biso   1.000  Cu
  Cu79     1.0000 0.33578  0.11253  0.42595  Biso   1.000  Cu
  Cu80     1.0000 0.33578  0.88747  0.57405  Biso   1.000  Cu
  Cu81     1.0000 0.92595  0.66422  0.38747  Biso   1.000  Cu
  Cu82     1.0000 0.07405  0.66422  0.61253  Biso   1.000  Cu
  Cu83     1.0000 0.92595  0.33578  0.61253  Biso   1.000  Cu
  Cu84     1.0000 0.07405  0.33578  0.38747  Biso   1.000  Cu
  Cu85     1.0000 0.42595  0.38747  0.66422  Biso   1.000  Cu
  Cu86     1.0000 0.57405  0.61253  0.66422  Biso   1.000  Cu
  Cu87     1.0000 0.42595  0.61253  0.33578  Biso   1.000  Cu
  Cu88     1.0000 0.57405  0.38747  0.33578  Biso   1.000  Cu
  Cu89     1.0000 0.38747  0.16422  0.92595  Biso   1.000  Cu
  Cu90     1.0000 0.61253  0.16422  0.07405  Biso   1.000  Cu
  Cu91     1.0000 0.61253  0.83578  0.92595  Biso   1.000  Cu
  Cu92     1.0000 0.38747  0.83578  0.07405  Biso   1.000  Cu
  Cu93     1.0000 0.16422  0.42595  0.88747  Biso   1.000  Cu
  Cu94     1.0000 0.16422  0.57405  0.11253  Biso   1.000  Cu
  Cu95     1.0000 0.83578  0.42595  0.11253  Biso   1.000  Cu
  Cu96     1.0000 0.83578  0.57405  0.88747  Biso   1.000  Cu
  C1       1.0000 0.53450  0.36930  0.25510  Biso   1.000  C
  C2       1.0000 0.46550  0.63070  0.25510  Biso   1.000  C
  C3       1.0000 0.46550  0.36930  0.74490  Biso   1.000  C
  C4       1.0000 0.53450  0.63070  0.74490  Biso   1.000  C
  C5       1.0000 0.25510  0.53450  0.36930  Biso   1.000  C
  C6       1.0000 0.25510  0.46550  0.63070  Biso   1.000  C
  C7       1.0000 0.74490  0.46550  0.36930  Biso   1.000  C
  C8       1.0000 0.74490  0.53450  0.63070  Biso   1.000  C
  C9       1.0000 0.36930  0.25510  0.53450  Biso   1.000  C
  C10      1.0000 0.63070  0.25510  0.46550  Biso   1.000  C
  C11      1.0000 0.36930  0.74490  0.46550  Biso   1.000  C
  C12      1.0000 0.63070  0.74490  0.53450  Biso   1.000  C
  C13      1.0000 0.86930  0.03450  0.75510  Biso   1.000  C
  C14      1.0000 0.13070  0.96550  0.75510  Biso   1.000  C
  C15      1.0000 0.86930  0.96550  0.24490  Biso   1.000  C
  C16      1.0000 0.13070  0.03450  0.24490  Biso   1.000  C
  C17      1.0000 0.03450  0.75510  0.86930  Biso   1.000  C
  C18      1.0000 0.96550  0.75510  0.13070  Biso   1.000  C
  C19      1.0000 0.96550  0.24490  0.86930  Biso   1.000  C
  C20      1.0000 0.03450  0.24490  0.13070  Biso   1.000  C
  C21      1.0000 0.75510  0.86930  0.03450  Biso   1.000  C
  C22      1.0000 0.75510  0.13070  0.96550  Biso   1.000  C
  C23      1.0000 0.24490  0.86930  0.96550  Biso   1.000  C
  C24      1.0000 0.24490  0.13070  0.03450  Biso   1.000  C
  C25      1.0000 0.53450  0.86930  0.75510  Biso   1.000  C
  C26      1.0000 0.46550  0.13070  0.75510  Biso   1.000  C
  C27      1.0000 0.46550  0.86930  0.24490  Biso   1.000  C
  C28      1.0000 0.53450  0.13070  0.24490  Biso   1.000  C
  C29      1.0000 0.25510  0.03450  0.86930  Biso   1.000  C
  C30      1.0000 0.25510  0.96550  0.13070  Biso   1.000  C
  C31      1.0000 0.74490  0.96550  0.86930  Biso   1.000  C
  C32      1.0000 0.74490  0.03450  0.13070  Biso   1.000  C
  C33      1.0000 0.36930  0.75510  0.03450  Biso   1.000  C
  C34      1.0000 0.63070  0.75510  0.96550  Biso   1.000  C
  C35      1.0000 0.36930  0.24490  0.96550  Biso   1.000  C
  C36      1.0000 0.63070  0.24490  0.03450  Biso   1.000  C
  C37      1.0000 0.86930  0.53450  0.25510  Biso   1.000  C
  C38      1.0000 0.13070  0.46550  0.25510  Biso   1.000  C
  C39      1.0000 0.86930  0.46550  0.74490  Biso   1.000  C
  C40      1.0000 0.13070  0.53450  0.74490  Biso   1.000  C
  C41      1.0000 0.03450  0.25510  0.36930  Biso   1.000  C
  C42      1.0000 0.96550  0.25510  0.63070  Biso   1.000  C
  C43      1.0000 0.96550  0.74490  0.36930  Biso   1.000  C
  C44      1.0000 0.03450  0.74490  0.63070  Biso   1.000  C
  C45      1.0000 0.75510  0.36930  0.53450  Biso   1.000  C
  C46      1.0000 0.75510  0.63070  0.46550  Biso   1.000  C
  C47      1.0000 0.24490  0.36930  0.46550  Biso   1.000  C
  C48      1.0000 0.24490  0.63070  0.53450  Biso   1.000  C
  C49      1.0000 0.03450  0.36930  0.75510  Biso   1.000  C
  C50      1.0000 0.96550  0.63070  0.75510  Biso   1.000  C
  C51      1.0000 0.96550  0.36930  0.24490  Biso   1.000  C
  C52      1.0000 0.03450  0.63070  0.24490  Biso   1.000  C
  C53      1.0000 0.75510  0.53450  0.86930  Biso   1.000  C
  C54      1.0000 0.75510  0.46550  0.13070  Biso   1.000  C
  C55      1.0000 0.24490  0.46550  0.86930  Biso   1.000  C
  C56      1.0000 0.24490  0.53450  0.13070  Biso   1.000  C
  C57      1.0000 0.86930  0.25510  0.03450  Biso   1.000  C
  C58      1.0000 0.13070  0.25510  0.96550  Biso   1.000  C
  C59      1.0000 0.86930  0.74490  0.96550  Biso   1.000  C
  C60      1.0000 0.13070  0.74490  0.03450  Biso   1.000  C
  C61      1.0000 0.36930  0.03450  0.25510  Biso   1.000  C
  C62      1.0000 0.63070  0.96550  0.25510  Biso   1.000  C
  C63      1.0000 0.36930  0.96550  0.74490  Biso   1.000  C
  C64      1.0000 0.63070  0.03450  0.74490  Biso   1.000  C
  C65      1.0000 0.53450  0.75510  0.36930  Biso   1.000  C
  C66      1.0000 0.46550  0.75510  0.63070  Biso   1.000  C
  C67      1.0000 0.46550  0.24490  0.36930  Biso   1.000  C
  C68      1.0000 0.53450  0.24490  0.63070  Biso   1.000  C
  C69      1.0000 0.25510  0.86930  0.53450  Biso   1.000  C
  C70      1.0000 0.25510  0.13070  0.46550  Biso   1.000  C
  C71      1.0000 0.74490  0.86930  0.46550  Biso   1.000  C
  C72      1.0000 0.74490  0.13070  0.53450  Biso   1.000  C
  C73      1.0000 0.03450  0.86930  0.25510  Biso   1.000  C
  C74      1.0000 0.96550  0.13070  0.25510  Biso   1.000  C
  C75      1.0000 0.96550  0.86930  0.74490  Biso   1.000  C
  C76      1.0000 0.03450  0.13070  0.74490  Biso   1.000  C
  C77      1.0000 0.75510  0.03450  0.36930  Biso   1.000  C
  C78      1.0000 0.75510  0.96550  0.63070  Biso   1.000  C
  C79      1.0000 0.24490  0.96550  0.36930  Biso   1.000  C
  C80      1.0000 0.24490  0.03450  0.63070  Biso   1.000  C
  C81      1.0000 0.86930  0.75510  0.53450  Biso   1.000  C
  C82      1.0000 0.13070  0.75510  0.46550  Biso   1.000  C
  C83      1.0000 0.86930  0.24490  0.46550  Biso   1.000  C
  C84      1.0000 0.13070  0.24490  0.53450  Biso   1.000  C
  C85      1.0000 0.36930  0.53450  0.75510  Biso   1.000  C
  C86      1.0000 0.63070  0.46550  0.75510  Biso   1.000  C
  C87      1.0000 0.36930  0.46550  0.24490  Biso   1.000  C
  C88      1.0000 0.63070  0.53450  0.24490  Biso   1.000  C
  C89      1.0000 0.53450  0.25510  0.86930  Biso   1.000  C
  C90      1.0000 0.46550  0.25510  0.13070  Biso   1.000  C
  C91      1.0000 0.46550  0.74490  0.86930  Biso   1.000  C
  C92      1.0000 0.53450  0.74490  0.13070  Biso   1.000  C
  C93      1.0000 0.25510  0.36930  0.03450  Biso   1.000  C
  C94      1.0000 0.25510  0.63070  0.96550  Biso   1.000  C
  C95      1.0000 0.74490  0.36930  0.96550  Biso   1.000  C
  C96      1.0000 0.74490  0.63070  0.03450  Biso   1.000  C
  C97      1.0000 0.49950  0.37320  0.22160  Biso   1.000  C
  C98      1.0000 0.50050  0.62680  0.22160  Biso   1.000  C
  C99      1.0000 0.50050  0.37320  0.77840  Biso   1.000  C
  C100     1.0000 0.49950  0.62680  0.77840  Biso   1.000  C
  C101     1.0000 0.22160  0.49950  0.37320  Biso   1.000  C
  C102     1.0000 0.22160  0.50050  0.62680  Biso   1.000  C
  C103     1.0000 0.77840  0.50050  0.37320  Biso   1.000  C
  C104     1.0000 0.77840  0.49950  0.62680  Biso   1.000  C
  C105     1.0000 0.37320  0.22160  0.49950  Biso   1.000  C
  C106     1.0000 0.62680  0.22160  0.50050  Biso   1.000  C
  C107     1.0000 0.37320  0.77840  0.50050  Biso   1.000  C
  C108     1.0000 0.62680  0.77840  0.49950  Biso   1.000  C
  C109     1.0000 0.87320  0.99950  0.72160  Biso   1.000  C
  C110     1.0000 0.12680  0.00050  0.72160  Biso   1.000  C
  C111     1.0000 0.87320  0.00050  0.27840  Biso   1.000  C
  C112     1.0000 0.12680  0.99950  0.27840  Biso   1.000  C
  C113     1.0000 0.99950  0.72160  0.87320  Biso   1.000  C
  C114     1.0000 0.00050  0.72160  0.12680  Biso   1.000  C
  C115     1.0000 0.00050  0.27840  0.87320  Biso   1.000  C
  C116     1.0000 0.99950  0.27840  0.12680  Biso   1.000  C
  C117     1.0000 0.72160  0.87320  0.99950  Biso   1.000  C
  C118     1.0000 0.72160  0.12680  0.00050  Biso   1.000  C
  C119     1.0000 0.27840  0.87320  0.00050  Biso   1.000  C
  C120     1.0000 0.27840  0.12680  0.99950  Biso   1.000  C
  C121     1.0000 0.49950  0.87320  0.72160  Biso   1.000  C
  C122     1.0000 0.50050  0.12680  0.72160  Biso   1.000  C
  C123     1.0000 0.50050  0.87320  0.27840  Biso   1.000  C
  C124     1.0000 0.49950  0.12680  0.27840  Biso   1.000  C
  C125     1.0000 0.22160  0.99950  0.87320  Biso   1.000  C
  C126     1.0000 0.22160  0.00050  0.12680  Biso   1.000  C
  C127     1.0000 0.77840  0.00050  0.87320  Biso   1.000  C
  C128     1.0000 0.77840  0.99950  0.12680  Biso   1.000  C
  C129     1.0000 0.37320  0.72160  0.99950  Biso   1.000  C
  C130     1.0000 0.62680  0.72160  0.00050  Biso   1.000  C
  C131     1.0000 0.37320  0.27840  0.00050  Biso   1.000  C
  C132     1.0000 0.62680  0.27840  0.99950  Biso   1.000  C
  C133     1.0000 0.87320  0.49950  0.22160  Biso   1.000  C
  C134     1.0000 0.12680  0.50050  0.22160  Biso   1.000  C
  C135     1.0000 0.87320  0.50050  0.77840  Biso   1.000  C
  C136     1.0000 0.12680  0.49950  0.77840  Biso   1.000  C
  C137     1.0000 0.99950  0.22160  0.37320  Biso   1.000  C
  C138     1.0000 0.00050  0.22160  0.62680  Biso   1.000  C
  C139     1.0000 0.00050  0.77840  0.37320  Biso   1.000  C
  C140     1.0000 0.99950  0.77840  0.62680  Biso   1.000  C
  C141     1.0000 0.72160  0.37320  0.49950  Biso   1.000  C
  C142     1.0000 0.72160  0.62680  0.50050  Biso   1.000  C
  C143     1.0000 0.27840  0.37320  0.50050  Biso   1.000  C
  C144     1.0000 0.27840  0.62680  0.49950  Biso   1.000  C
  C145     1.0000 0.99950  0.37320  0.72160  Biso   1.000  C
  C146     1.0000 0.00050  0.62680  0.72160  Biso   1.000  C
  C147     1.0000 0.00050  0.37320  0.27840  Biso   1.000  C
  C148     1.0000 0.99950  0.62680  0.27840  Biso   1.000  C
  C149     1.0000 0.72160  0.49950  0.87320  Biso   1.000  C
  C150     1.0000 0.72160  0.50050  0.12680  Biso   1.000  C
  C151     1.0000 0.27840  0.50050  0.87320  Biso   1.000  C
  C152     1.0000 0.27840  0.49950  0.12680  Biso   1.000  C
  C153     1.0000 0.87320  0.22160  0.99950  Biso   1.000  C
  C154     1.0000 0.12680  0.22160  0.00050  Biso   1.000  C
  C155     1.0000 0.87320  0.77840  0.00050  Biso   1.000  C
  C156     1.0000 0.12680  0.77840  0.99950  Biso   1.000  C
  C157     1.0000 0.37320  0.99950  0.22160  Biso   1.000  C
  C158     1.0000 0.62680  0.00050  0.22160  Biso   1.000  C
  C159     1.0000 0.37320  0.00050  0.77840  Biso   1.000  C
  C160     1.0000 0.62680  0.99950  0.77840  Biso   1.000  C
  C161     1.0000 0.49950  0.72160  0.37320  Biso   1.000  C
  C162     1.0000 0.50050  0.72160  0.62680  Biso   1.000  C
  C163     1.0000 0.50050  0.27840  0.37320  Biso   1.000  C
  C164     1.0000 0.49950  0.27840  0.62680  Biso   1.000  C
  C165     1.0000 0.22160  0.87320  0.49950  Biso   1.000  C
  C166     1.0000 0.22160  0.12680  0.50050  Biso   1.000  C
  C167     1.0000 0.77840  0.87320  0.50050  Biso   1.000  C
  C168     1.0000 0.77840  0.12680  0.49950  Biso   1.000  C
  C169     1.0000 0.99950  0.87320  0.22160  Biso   1.000  C
  C170     1.0000 0.00050  0.12680  0.22160  Biso   1.000  C
  C171     1.0000 0.00050  0.87320  0.77840  Biso   1.000  C
  C172     1.0000 0.99950  0.12680  0.77840  Biso   1.000  C
  C173     1.0000 0.72160  0.99950  0.37320  Biso   1.000  C
  C174     1.0000 0.72160  0.00050  0.62680  Biso   1.000  C
  C175     1.0000 0.27840  0.00050  0.37320  Biso   1.000  C
  C176     1.0000 0.27840  0.99950  0.62680  Biso   1.000  C
  C177     1.0000 0.87320  0.72160  0.49950  Biso   1.000  C
  C178     1.0000 0.12680  0.72160  0.50050  Biso   1.000  C
  C179     1.0000 0.87320  0.27840  0.50050  Biso   1.000  C
  C180     1.0000 0.12680  0.27840  0.49950  Biso   1.000  C
  C181     1.0000 0.37320  0.49950  0.72160  Biso   1.000  C
  C182     1.0000 0.62680  0.50050  0.72160  Biso   1.000  C
  C183     1.0000 0.37320  0.50050  0.27840  Biso   1.000  C
  C184     1.0000 0.62680  0.49950  0.27840  Biso   1.000  C
  C185     1.0000 0.49950  0.22160  0.87320  Biso   1.000  C
  C186     1.0000 0.50050  0.22160  0.12680  Biso   1.000  C
  C187     1.0000 0.50050  0.77840  0.87320  Biso   1.000  C
  C188     1.0000 0.49950  0.77840  0.12680  Biso   1.000  C
  C189     1.0000 0.22160  0.37320  0.99950  Biso   1.000  C
  C190     1.0000 0.22160  0.62680  0.00050  Biso   1.000  C
  C191     1.0000 0.77840  0.37320  0.00050  Biso   1.000  C
  C192     1.0000 0.77840  0.62680  0.99950  Biso   1.000  C
  C193     1.0000 0.46430  0.40250  0.22200  Biso   1.000  C
  C194     1.0000 0.53570  0.59750  0.22200  Biso   1.000  C
  C195     1.0000 0.53570  0.40250  0.77800  Biso   1.000  C
  C196     1.0000 0.46430  0.59750  0.77800  Biso   1.000  C
  C197     1.0000 0.22200  0.46430  0.40250  Biso   1.000  C
  C198     1.0000 0.22200  0.53570  0.59750  Biso   1.000  C
  C199     1.0000 0.77800  0.53570  0.40250  Biso   1.000  C
  C200     1.0000 0.77800  0.46430  0.59750  Biso   1.000  C
  C201     1.0000 0.40250  0.22200  0.46430  Biso   1.000  C
  C202     1.0000 0.59750  0.22200  0.53570  Biso   1.000  C
  C203     1.0000 0.40250  0.77800  0.53570  Biso   1.000  C
  C204     1.0000 0.59750  0.77800  0.46430  Biso   1.000  C
  C205     1.0000 0.90250  0.96430  0.72200  Biso   1.000  C
  C206     1.0000 0.09750  0.03570  0.72200  Biso   1.000  C
  C207     1.0000 0.90250  0.03570  0.27800  Biso   1.000  C
  C208     1.0000 0.09750  0.96430  0.27800  Biso   1.000  C
  C209     1.0000 0.96430  0.72200  0.90250  Biso   1.000  C
  C210     1.0000 0.03570  0.72200  0.09750  Biso   1.000  C
  C211     1.0000 0.03570  0.27800  0.90250  Biso   1.000  C
  C212     1.0000 0.96430  0.27800  0.09750  Biso   1.000  C
  C213     1.0000 0.72200  0.90250  0.96430  Biso   1.000  C
  C214     1.0000 0.72200  0.09750  0.03570  Biso   1.000  C
  C215     1.0000 0.27800  0.90250  0.03570  Biso   1.000  C
  C216     1.0000 0.27800  0.09750  0.96430  Biso   1.000  C
  C217     1.0000 0.46430  0.90250  0.72200  Biso   1.000  C
  C218     1.0000 0.53570  0.09750  0.72200  Biso   1.000  C
  C219     1.0000 0.53570  0.90250  0.27800  Biso   1.000  C
  C220     1.0000 0.46430  0.09750  0.27800  Biso   1.000  C
  C221     1.0000 0.22200  0.96430  0.90250  Biso   1.000  C
  C222     1.0000 0.22200  0.03570  0.09750  Biso   1.000  C
  C223     1.0000 0.77800  0.03570  0.90250  Biso   1.000  C
  C224     1.0000 0.77800  0.96430  0.09750  Biso   1.000  C
  C225     1.0000 0.40250  0.72200  0.96430  Biso   1.000  C
  C226     1.0000 0.59750  0.72200  0.03570  Biso   1.000  C
  C227     1.0000 0.40250  0.27800  0.03570  Biso   1.000  C
  C228     1.0000 0.59750  0.27800  0.96430  Biso   1.000  C
  C229     1.0000 0.90250  0.46430  0.22200  Biso   1.000  C
  C230     1.0000 0.09750  0.53570  0.22200  Biso   1.000  C
  C231     1.0000 0.90250  0.53570  0.77800  Biso   1.000  C
  C232     1.0000 0.09750  0.46430  0.77800  Biso   1.000  C
  C233     1.0000 0.96430  0.22200  0.40250  Biso   1.000  C
  C234     1.0000 0.03570  0.22200  0.59750  Biso   1.000  C
  C235     1.0000 0.03570  0.77800  0.40250  Biso   1.000  C
  C236     1.0000 0.96430  0.77800  0.59750  Biso   1.000  C
  C237     1.0000 0.72200  0.40250  0.46430  Biso   1.000  C
  C238     1.0000 0.72200  0.59750  0.53570  Biso   1.000  C
  C239     1.0000 0.27800  0.40250  0.53570  Biso   1.000  C
  C240     1.0000 0.27800  0.59750  0.46430  Biso   1.000  C
  C241     1.0000 0.96430  0.40250  0.72200  Biso   1.000  C
  C242     1.0000 0.03570  0.59750  0.72200  Biso   1.000  C
  C243     1.0000 0.03570  0.40250  0.27800  Biso   1.000  C
  C244     1.0000 0.96430  0.59750  0.27800  Biso   1.000  C
  C245     1.0000 0.72200  0.46430  0.90250  Biso   1.000  C
  C246     1.0000 0.72200  0.53570  0.09750  Biso   1.000  C
  C247     1.0000 0.27800  0.53570  0.90250  Biso   1.000  C
  C248     1.0000 0.27800  0.46430  0.09750  Biso   1.000  C
  C249     1.0000 0.90250  0.22200  0.96430  Biso   1.000  C
  C250     1.0000 0.09750  0.22200  0.03570  Biso   1.000  C
  C251     1.0000 0.90250  0.77800  0.03570  Biso   1.000  C
  C252     1.0000 0.09750  0.77800  0.96430  Biso   1.000  C
  C253     1.0000 0.40250  0.96430  0.22200  Biso   1.000  C
  C254     1.0000 0.59750  0.03570  0.22200  Biso   1.000  C
  C255     1.0000 0.40250  0.03570  0.77800  Biso   1.000  C
  C256     1.0000 0.59750  0.96430  0.77800  Biso   1.000  C
  C257     1.0000 0.46430  0.72200  0.40250  Biso   1.000  C
  C258     1.0000 0.53570  0.72200  0.59750  Biso   1.000  C
  C259     1.0000 0.53570  0.27800  0.40250  Biso   1.000  C
  C260     1.0000 0.46430  0.27800  0.59750  Biso   1.000  C
  C261     1.0000 0.22200  0.90250  0.46430  Biso   1.000  C
  C262     1.0000 0.22200  0.09750  0.53570  Biso   1.000  C
  C263     1.0000 0.77800  0.90250  0.53570  Biso   1.000  C
  C264     1.0000 0.77800  0.09750  0.46430  Biso   1.000  C
  C265     1.0000 0.96430  0.90250  0.22200  Biso   1.000  C
  C266     1.0000 0.03570  0.09750  0.22200  Biso   1.000  C
  C267     1.0000 0.03570  0.90250  0.77800  Biso   1.000  C
  C268     1.0000 0.96430  0.09750  0.77800  Biso   1.000  C
  C269     1.0000 0.72200  0.96430  0.40250  Biso   1.000  C
  C270     1.0000 0.72200  0.03570  0.59750  Biso   1.000  C
  C271     1.0000 0.27800  0.03570  0.40250  Biso   1.000  C
  C272     1.0000 0.27800  0.96430  0.59750  Biso   1.000  C
  C273     1.0000 0.90250  0.72200  0.46430  Biso   1.000  C
  C274     1.0000 0.09750  0.72200  0.53570  Biso   1.000  C
  C275     1.0000 0.90250  0.27800  0.53570  Biso   1.000  C
  C276     1.0000 0.09750  0.27800  0.46430  Biso   1.000  C
  C277     1.0000 0.40250  0.46430  0.72200  Biso   1.000  C
  C278     1.0000 0.59750  0.53570  0.72200  Biso   1.000  C
  C279     1.0000 0.40250  0.53570  0.27800  Biso   1.000  C
  C280     1.0000 0.59750  0.46430  0.27800  Biso   1.000  C
  C281     1.0000 0.46430  0.22200  0.90250  Biso   1.000  C
  C282     1.0000 0.53570  0.22200  0.09750  Biso   1.000  C
  C283     1.0000 0.53570  0.77800  0.90250  Biso   1.000  C
  C284     1.0000 0.46430  0.77800  0.09750  Biso   1.000  C
  C285     1.0000 0.22200  0.40250  0.96430  Biso   1.000  C
  C286     1.0000 0.22200  0.59750  0.03570  Biso   1.000  C
  C287     1.0000 0.77800  0.40250  0.03570  Biso   1.000  C
  C288     1.0000 0.77800  0.59750  0.96430  Biso   1.000  C
  H1       1.0000 0.45890  0.42440  0.24390  Biso   1.000  H
  H2       1.0000 0.54110  0.57560  0.24390  Biso   1.000  H
  H3       1.0000 0.54110  0.42440  0.75610  Biso   1.000  H
  H4       1.0000 0.45890  0.57560  0.75610  Biso   1.000  H
  H5       1.0000 0.24390  0.45890  0.42440  Biso   1.000  H
  H6       1.0000 0.24390  0.54110  0.57560  Biso   1.000  H
  H7       1.0000 0.75610  0.54110  0.42440  Biso   1.000  H
  H8       1.0000 0.75610  0.45890  0.57560  Biso   1.000  H
  H9       1.0000 0.42440  0.24390  0.45890  Biso   1.000  H
  H10      1.0000 0.57560  0.24390  0.54110  Biso   1.000  H
  H11      1.0000 0.42440  0.75610  0.54110  Biso   1.000  H
  H12      1.0000 0.57560  0.75610  0.45890  Biso   1.000  H
  H13      1.0000 0.92440  0.95890  0.74390  Biso   1.000  H
  H14      1.0000 0.07560  0.04110  0.74390  Biso   1.000  H
  H15      1.0000 0.92440  0.04110  0.25610  Biso   1.000  H
  H16      1.0000 0.07560  0.95890  0.25610  Biso   1.000  H
  H17      1.0000 0.95890  0.74390  0.92440  Biso   1.000  H
  H18      1.0000 0.04110  0.74390  0.07560  Biso   1.000  H
  H19      1.0000 0.04110  0.25610  0.92440  Biso   1.000  H
  H20      1.0000 0.95890  0.25610  0.07560  Biso   1.000  H
  H21      1.0000 0.74390  0.92440  0.95890  Biso   1.000  H
  H22      1.0000 0.74390  0.07560  0.04110  Biso   1.000  H
  H23      1.0000 0.25610  0.92440  0.04110  Biso   1.000  H
  H24      1.0000 0.25610  0.07560  0.95890  Biso   1.000  H
  H25      1.0000 0.45890  0.92440  0.74390  Biso   1.000  H
  H26      1.0000 0.54110  0.07560  0.74390  Biso   1.000  H
  H27      1.0000 0.54110  0.92440  0.25610  Biso   1.000  H
  H28      1.0000 0.45890  0.07560  0.25610  Biso   1.000  H
  H29      1.0000 0.24390  0.95890  0.92440  Biso   1.000  H
  H30      1.0000 0.24390  0.04110  0.07560  Biso   1.000  H
  H31      1.0000 0.75610  0.04110  0.92440  Biso   1.000  H
  H32      1.0000 0.75610  0.95890  0.07560  Biso   1.000  H
  H33      1.0000 0.42440  0.74390  0.95890  Biso   1.000  H
  H34      1.0000 0.57560  0.74390  0.04110  Biso   1.000  H
  H35      1.0000 0.42440  0.25610  0.04110  Biso   1.000  H
  H36      1.0000 0.57560  0.25610  0.95890  Biso   1.000  H
  H37      1.0000 0.92440  0.45890  0.24390  Biso   1.000  H
  H38      1.0000 0.07560  0.54110  0.24390  Biso   1.000  H
  H39      1.0000 0.92440  0.54110  0.75610  Biso   1.000  H
  H40      1.0000 0.07560  0.45890  0.75610  Biso   1.000  H
  H41      1.0000 0.95890  0.24390  0.42440  Biso   1.000  H
  H42      1.0000 0.04110  0.24390  0.57560  Biso   1.000  H
  H43      1.0000 0.04110  0.75610  0.42440  Biso   1.000  H
  H44      1.0000 0.95890  0.75610  0.57560  Biso   1.000  H
  H45      1.0000 0.74390  0.42440  0.45890  Biso   1.000  H
  H46      1.0000 0.74390  0.57560  0.54110  Biso   1.000  H
  H47      1.0000 0.25610  0.42440  0.54110  Biso   1.000  H
  H48      1.0000 0.25610  0.57560  0.45890  Biso   1.000  H
  H49      1.0000 0.95890  0.42440  0.74390  Biso   1.000  H
  H50      1.0000 0.04110  0.57560  0.74390  Biso   1.000  H
  H51      1.0000 0.04110  0.42440  0.25610  Biso   1.000  H
  H52      1.0000 0.95890  0.57560  0.25610  Biso   1.000  H
  H53      1.0000 0.74390  0.45890  0.92440  Biso   1.000  H
  H54      1.0000 0.74390  0.54110  0.07560  Biso   1.000  H
  H55      1.0000 0.25610  0.54110  0.92440  Biso   1.000  H
  H56      1.0000 0.25610  0.45890  0.07560  Biso   1.000  H
  H57      1.0000 0.92440  0.24390  0.95890  Biso   1.000  H
  H58      1.0000 0.07560  0.24390  0.04110  Biso   1.000  H
  H59      1.0000 0.92440  0.75610  0.04110  Biso   1.000  H
  H60      1.0000 0.07560  0.75610  0.95890  Biso   1.000  H
  H61      1.0000 0.42440  0.95890  0.24390  Biso   1.000  H
  H62      1.0000 0.57560  0.04110  0.24390  Biso   1.000  H
  H63      1.0000 0.42440  0.04110  0.75610  Biso   1.000  H
  H64      1.0000 0.57560  0.95890  0.75610  Biso   1.000  H
  H65      1.0000 0.45890  0.74390  0.42440  Biso   1.000  H
  H66      1.0000 0.54110  0.74390  0.57560  Biso   1.000  H
  H67      1.0000 0.54110  0.25610  0.42440  Biso   1.000  H
  H68      1.0000 0.45890  0.25610  0.57560  Biso   1.000  H
  H69      1.0000 0.24390  0.92440  0.45890  Biso   1.000  H
  H70      1.0000 0.24390  0.07560  0.54110  Biso   1.000  H
  H71      1.0000 0.75610  0.92440  0.54110  Biso   1.000  H
  H72      1.0000 0.75610  0.07560  0.45890  Biso   1.000  H
  H73      1.0000 0.95890  0.92440  0.24390  Biso   1.000  H
  H74      1.0000 0.04110  0.07560  0.24390  Biso   1.000  H
  H75      1.0000 0.04110  0.92440  0.75610  Biso   1.000  H
  H76      1.0000 0.95890  0.07560  0.75610  Biso   1.000  H
  H77      1.0000 0.74390  0.95890  0.42440  Biso   1.000  H
  H78      1.0000 0.74390  0.04110  0.57560  Biso   1.000  H
  H79      1.0000 0.25610  0.04110  0.42440  Biso   1.000  H
  H80      1.0000 0.25610  0.95890  0.57560  Biso   1.000  H
  H81      1.0000 0.92440  0.74390  0.45890  Biso   1.000  H
  H82      1.0000 0.07560  0.74390  0.54110  Biso   1.000  H
  H83      1.0000 0.92440  0.25610  0.54110  Biso   1.000  H
  H84      1.0000 0.07560  0.25610  0.45890  Biso   1.000  H
  H85      1.0000 0.42440  0.45890  0.74390  Biso   1.000  H
  H86      1.0000 0.57560  0.54110  0.74390  Biso   1.000  H
  H87      1.0000 0.42440  0.54110  0.25610  Biso   1.000  H
  H88      1.0000 0.57560  0.45890  0.25610  Biso   1.000  H
  H89      1.0000 0.45890  0.24390  0.92440  Biso   1.000  H
  H90      1.0000 0.54110  0.24390  0.07560  Biso   1.000  H
  H91      1.0000 0.54110  0.75610  0.92440  Biso   1.000  H
  H92      1.0000 0.45890  0.75610  0.07560  Biso   1.000  H
  H93      1.0000 0.24390  0.42440  0.95890  Biso   1.000  H
  H94      1.0000 0.24390  0.57560  0.04110  Biso   1.000  H
  H95      1.0000 0.75610  0.42440  0.04110  Biso   1.000  H
  H96      1.0000 0.75610  0.57560  0.95890  Biso   1.000  H
  C289     1.0000 0.49330  0.34780  0.18420  Biso   1.000  C
  C290     1.0000 0.50670  0.65220  0.18420  Biso   1.000  C
  C291     1.0000 0.50670  0.34780  0.81580  Biso   1.000  C
  C292     1.0000 0.49330  0.65220  0.81580  Biso   1.000  C
  C293     1.0000 0.18420  0.49330  0.34780  Biso   1.000  C
  C294     1.0000 0.18420  0.50670  0.65220  Biso   1.000  C
  C295     1.0000 0.81580  0.50670  0.34780  Biso   1.000  C
  C296     1.0000 0.81580  0.49330  0.65220  Biso   1.000  C
  C297     1.0000 0.34780  0.18420  0.49330  Biso   1.000  C
  C298     1.0000 0.65220  0.18420  0.50670  Biso   1.000  C
  C299     1.0000 0.34780  0.81580  0.50670  Biso   1.000  C
  C300     1.0000 0.65220  0.81580  0.49330  Biso   1.000  C
  C301     1.0000 0.84780  0.99330  0.68420  Biso   1.000  C
  C302     1.0000 0.15220  0.00670  0.68420  Biso   1.000  C
  C303     1.0000 0.84780  0.00670  0.31580  Biso   1.000  C
  C304     1.0000 0.15220  0.99330  0.31580  Biso   1.000  C
  C305     1.0000 0.99330  0.68420  0.84780  Biso   1.000  C
  C306     1.0000 0.00670  0.68420  0.15220  Biso   1.000  C
  C307     1.0000 0.00670  0.31580  0.84780  Biso   1.000  C
  C308     1.0000 0.99330  0.31580  0.15220  Biso   1.000  C
  C309     1.0000 0.68420  0.84780  0.99330  Biso   1.000  C
  C310     1.0000 0.68420  0.15220  0.00670  Biso   1.000  C
  C311     1.0000 0.31580  0.84780  0.00670  Biso   1.000  C
  C312     1.0000 0.31580  0.15220  0.99330  Biso   1.000  C
  C313     1.0000 0.49330  0.84780  0.68420  Biso   1.000  C
  C314     1.0000 0.50670  0.15220  0.68420  Biso   1.000  C
  C315     1.0000 0.50670  0.84780  0.31580  Biso   1.000  C
  C316     1.0000 0.49330  0.15220  0.31580  Biso   1.000  C
  C317     1.0000 0.18420  0.99330  0.84780  Biso   1.000  C
  C318     1.0000 0.18420  0.00670  0.15220  Biso   1.000  C
  C319     1.0000 0.81580  0.00670  0.84780  Biso   1.000  C
  C320     1.0000 0.81580  0.99330  0.15220  Biso   1.000  C
  C321     1.0000 0.34780  0.68420  0.99330  Biso   1.000  C
  C322     1.0000 0.65220  0.68420  0.00670  Biso   1.000  C
  C323     1.0000 0.34780  0.31580  0.00670  Biso   1.000  C
  C324     1.0000 0.65220  0.31580  0.99330  Biso   1.000  C
  C325     1.0000 0.84780  0.49330  0.18420  Biso   1.000  C
  C326     1.0000 0.15220  0.50670  0.18420  Biso   1.000  C
  C327     1.0000 0.84780  0.50670  0.81580  Biso   1.000  C
  C328     1.0000 0.15220  0.49330  0.81580  Biso   1.000  C
  C329     1.0000 0.99330  0.18420  0.34780  Biso   1.000  C
  C330     1.0000 0.00670  0.18420  0.65220  Biso   1.000  C
  C331     1.0000 0.00670  0.81580  0.34780  Biso   1.000  C
  C332     1.0000 0.99330  0.81580  0.65220  Biso   1.000  C
  C333     1.0000 0.68420  0.34780  0.49330  Biso   1.000  C
  C334     1.0000 0.68420  0.65220  0.50670  Biso   1.000  C
  C335     1.0000 0.31580  0.34780  0.50670  Biso   1.000  C
  C336     1.0000 0.31580  0.65220  0.49330  Biso   1.000  C
  C337     1.0000 0.99330  0.34780  0.68420  Biso   1.000  C
  C338     1.0000 0.00670  0.65220  0.68420  Biso   1.000  C
  C339     1.0000 0.00670  0.34780  0.31580  Biso   1.000  C
  C340     1.0000 0.99330  0.65220  0.31580  Biso   1.000  C
  C341     1.0000 0.68420  0.49330  0.84780  Biso   1.000  C
  C342     1.0000 0.68420  0.50670  0.15220  Biso   1.000  C
  C343     1.0000 0.31580  0.50670  0.84780  Biso   1.000  C
  C344     1.0000 0.31580  0.49330  0.15220  Biso   1.000  C
  C345     1.0000 0.84780  0.18420  0.99330  Biso   1.000  C
  C346     1.0000 0.15220  0.18420  0.00670  Biso   1.000  C
  C347     1.0000 0.84780  0.81580  0.00670  Biso   1.000  C
  C348     1.0000 0.15220  0.81580  0.99330  Biso   1.000  C
  C349     1.0000 0.34780  0.99330  0.18420  Biso   1.000  C
  C350     1.0000 0.65220  0.00670  0.18420  Biso   1.000  C
  C351     1.0000 0.34780  0.00670  0.81580  Biso   1.000  C
  C352     1.0000 0.65220  0.99330  0.81580  Biso   1.000  C
  C353     1.0000 0.49330  0.68420  0.34780  Biso   1.000  C
  C354     1.0000 0.50670  0.68420  0.65220  Biso   1.000  C
  C355     1.0000 0.50670  0.31580  0.34780  Biso   1.000  C
  C356     1.0000 0.49330  0.31580  0.65220  Biso   1.000  C
  C357     1.0000 0.18420  0.84780  0.49330  Biso   1.000  C
  C358     1.0000 0.18420  0.15220  0.50670  Biso   1.000  C
  C359     1.0000 0.81580  0.84780  0.50670  Biso   1.000  C
  C360     1.0000 0.81580  0.15220  0.49330  Biso   1.000  C
  C361     1.0000 0.99330  0.84780  0.18420  Biso   1.000  C
  C362     1.0000 0.00670  0.15220  0.18420  Biso   1.000  C
  C363     1.0000 0.00670  0.84780  0.81580  Biso   1.000  C
  C364     1.0000 0.99330  0.15220  0.81580  Biso   1.000  C
  C365     1.0000 0.68420  0.99330  0.34780  Biso   1.000  C
  C366     1.0000 0.68420  0.00670  0.65220  Biso   1.000  C
  C367     1.0000 0.31580  0.00670  0.34780  Biso   1.000  C
  C368     1.0000 0.31580  0.99330  0.65220  Biso   1.000  C
  C369     1.0000 0.84780  0.68420  0.49330  Biso   1.000  C
  C370     1.0000 0.15220  0.68420  0.50670  Biso   1.000  C
  C371     1.0000 0.84780  0.31580  0.50670  Biso   1.000  C
  C372     1.0000 0.15220  0.31580  0.49330  Biso   1.000  C
  C373     1.0000 0.34780  0.49330  0.68420  Biso   1.000  C
  C374     1.0000 0.65220  0.50670  0.68420  Biso   1.000  C
  C375     1.0000 0.34780  0.50670  0.31580  Biso   1.000  C
  C376     1.0000 0.65220  0.49330  0.31580  Biso   1.000  C
  C377     1.0000 0.49330  0.18420  0.84780  Biso   1.000  C
  C378     1.0000 0.50670  0.18420  0.15220  Biso   1.000  C
  C379     1.0000 0.50670  0.81580  0.84780  Biso   1.000  C
  C380     1.0000 0.49330  0.81580  0.15220  Biso   1.000  C
  C381     1.0000 0.18420  0.34780  0.99330  Biso   1.000  C
  C382     1.0000 0.18420  0.65220  0.00670  Biso   1.000  C
  C383     1.0000 0.81580  0.34780  0.00670  Biso   1.000  C
  C384     1.0000 0.81580  0.65220  0.99330  Biso   1.000  C
  H97      1.0000 0.51220  0.32430  0.17510  Biso   1.000  H
  H98      1.0000 0.48780  0.67570  0.17510  Biso   1.000  H
  H99      1.0000 0.48780  0.32430  0.82490  Biso   1.000  H
  H100     1.0000 0.51220  0.67570  0.82490  Biso   1.000  H
  H101     1.0000 0.17510  0.51220  0.32430  Biso   1.000  H
  H102     1.0000 0.17510  0.48780  0.67570  Biso   1.000  H
  H103     1.0000 0.82490  0.48780  0.32430  Biso   1.000  H
  H104     1.0000 0.82490  0.51220  0.67570  Biso   1.000  H
  H105     1.0000 0.32430  0.17510  0.51220  Biso   1.000  H
  H106     1.0000 0.67570  0.17510  0.48780  Biso   1.000  H
  H107     1.0000 0.32430  0.82490  0.48780  Biso   1.000  H
  H108     1.0000 0.67570  0.82490  0.51220  Biso   1.000  H
  H109     1.0000 0.82430  0.01220  0.67510  Biso   1.000  H
  H110     1.0000 0.17570  0.98780  0.67510  Biso   1.000  H
  H111     1.0000 0.82430  0.98780  0.32490  Biso   1.000  H
  H112     1.0000 0.17570  0.01220  0.32490  Biso   1.000  H
  H113     1.0000 0.01220  0.67510  0.82430  Biso   1.000  H
  H114     1.0000 0.98780  0.67510  0.17570  Biso   1.000  H
  H115     1.0000 0.98780  0.32490  0.82430  Biso   1.000  H
  H116     1.0000 0.01220  0.32490  0.17570  Biso   1.000  H
  H117     1.0000 0.67510  0.82430  0.01220  Biso   1.000  H
  H118     1.0000 0.67510  0.17570  0.98780  Biso   1.000  H
  H119     1.0000 0.32490  0.82430  0.98780  Biso   1.000  H
  H120     1.0000 0.32490  0.17570  0.01220  Biso   1.000  H
  H121     1.0000 0.51220  0.82430  0.67510  Biso   1.000  H
  H122     1.0000 0.48780  0.17570  0.67510  Biso   1.000  H
  H123     1.0000 0.48780  0.82430  0.32490  Biso   1.000  H
  H124     1.0000 0.51220  0.17570  0.32490  Biso   1.000  H
  H125     1.0000 0.17510  0.01220  0.82430  Biso   1.000  H
  H126     1.0000 0.17510  0.98780  0.17570  Biso   1.000  H
  H127     1.0000 0.82490  0.98780  0.82430  Biso   1.000  H
  H128     1.0000 0.82490  0.01220  0.17570  Biso   1.000  H
  H129     1.0000 0.32430  0.67510  0.01220  Biso   1.000  H
  H130     1.0000 0.67570  0.67510  0.98780  Biso   1.000  H
  H131     1.0000 0.32430  0.32490  0.98780  Biso   1.000  H
  H132     1.0000 0.67570  0.32490  0.01220  Biso   1.000  H
  H133     1.0000 0.82430  0.51220  0.17510  Biso   1.000  H
  H134     1.0000 0.17570  0.48780  0.17510  Biso   1.000  H
  H135     1.0000 0.82430  0.48780  0.82490  Biso   1.000  H
  H136     1.0000 0.17570  0.51220  0.82490  Biso   1.000  H
  H137     1.0000 0.01220  0.17510  0.32430  Biso   1.000  H
  H138     1.0000 0.98780  0.17510  0.67570  Biso   1.000  H
  H139     1.0000 0.98780  0.82490  0.32430  Biso   1.000  H
  H140     1.0000 0.01220  0.82490  0.67570  Biso   1.000  H
  H141     1.0000 0.67510  0.32430  0.51220  Biso   1.000  H
  H142     1.0000 0.67510  0.67570  0.48780  Biso   1.000  H
  H143     1.0000 0.32490  0.32430  0.48780  Biso   1.000  H
  H144     1.0000 0.32490  0.67570  0.51220  Biso   1.000  H
  H145     1.0000 0.01220  0.32430  0.67510  Biso   1.000  H
  H146     1.0000 0.98780  0.67570  0.67510  Biso   1.000  H
  H147     1.0000 0.98780  0.32430  0.32490  Biso   1.000  H
  H148     1.0000 0.01220  0.67570  0.32490  Biso   1.000  H
  H149     1.0000 0.67510  0.51220  0.82430  Biso   1.000  H
  H150     1.0000 0.67510  0.48780  0.17570  Biso   1.000  H
  H151     1.0000 0.32490  0.48780  0.82430  Biso   1.000  H
  H152     1.0000 0.32490  0.51220  0.17570  Biso   1.000  H
  H153     1.0000 0.82430  0.17510  0.01220  Biso   1.000  H
  H154     1.0000 0.17570  0.17510  0.98780  Biso   1.000  H
  H155     1.0000 0.82430  0.82490  0.98780  Biso   1.000  H
  H156     1.0000 0.17570  0.82490  0.01220  Biso   1.000  H
  H157     1.0000 0.32430  0.01220  0.17510  Biso   1.000  H
  H158     1.0000 0.67570  0.98780  0.17510  Biso   1.000  H
  H159     1.0000 0.32430  0.98780  0.82490  Biso   1.000  H
  H160     1.0000 0.67570  0.01220  0.82490  Biso   1.000  H
  H161     1.0000 0.51220  0.67510  0.32430  Biso   1.000  H
  H162     1.0000 0.48780  0.67510  0.67570  Biso   1.000  H
  H163     1.0000 0.48780  0.32490  0.32430  Biso   1.000  H
  H164     1.0000 0.51220  0.32490  0.67570  Biso   1.000  H
  H165     1.0000 0.17510  0.82430  0.51220  Biso   1.000  H
  H166     1.0000 0.17510  0.17570  0.48780  Biso   1.000  H
  H167     1.0000 0.82490  0.82430  0.48780  Biso   1.000  H
  H168     1.0000 0.82490  0.17570  0.51220  Biso   1.000  H
  H169     1.0000 0.01220  0.82430  0.17510  Biso   1.000  H
  H170     1.0000 0.98780  0.17570  0.17510  Biso   1.000  H
  H171     1.0000 0.98780  0.82430  0.82490  Biso   1.000  H
  H172     1.0000 0.01220  0.17570  0.82490  Biso   1.000  H
  H173     1.0000 0.67510  0.01220  0.32430  Biso   1.000  H
  H174     1.0000 0.67510  0.98780  0.67570  Biso   1.000  H
  H175     1.0000 0.32490  0.98780  0.32430  Biso   1.000  H
  H176     1.0000 0.32490  0.01220  0.67570  Biso   1.000  H
  H177     1.0000 0.82430  0.67510  0.51220  Biso   1.000  H
  H178     1.0000 0.17570  0.67510  0.48780  Biso   1.000  H
  H179     1.0000 0.82430  0.32490  0.48780  Biso   1.000  H
  H180     1.0000 0.17570  0.32490  0.51220  Biso   1.000  H
  H181     1.0000 0.32430  0.51220  0.67510  Biso   1.000  H
  H182     1.0000 0.67570  0.48780  0.67510  Biso   1.000  H
  H183     1.0000 0.32430  0.48780  0.32490  Biso   1.000  H
  H184     1.0000 0.67570  0.51220  0.32490  Biso   1.000  H
  H185     1.0000 0.51220  0.17510  0.82430  Biso   1.000  H
  H186     1.0000 0.48780  0.17510  0.17570  Biso   1.000  H
  H187     1.0000 0.48780  0.82490  0.82430  Biso   1.000  H
  H188     1.0000 0.51220  0.82490  0.17570  Biso   1.000  H
  H189     1.0000 0.17510  0.32430  0.01220  Biso   1.000  H
  H190     1.0000 0.17510  0.67570  0.98780  Biso   1.000  H
  H191     1.0000 0.82490  0.32430  0.98780  Biso   1.000  H
  H192     1.0000 0.82490  0.67570  0.01220  Biso   1.000  H
  N1       1.0000 0.43890  0.39490  0.18610  Biso   1.000  N
  N2       1.0000 0.56110  0.60510  0.18610  Biso   1.000  N
  N3       1.0000 0.56110  0.39490  0.81390  Biso   1.000  N
  N4       1.0000 0.43890  0.60510  0.81390  Biso   1.000  N
  N5       1.0000 0.18610  0.43890  0.39490  Biso   1.000  N
  N6       1.0000 0.18610  0.56110  0.60510  Biso   1.000  N
  N7       1.0000 0.81390  0.56110  0.39490  Biso   1.000  N
  N8       1.0000 0.81390  0.43890  0.60510  Biso   1.000  N
  N9       1.0000 0.39490  0.18610  0.43890  Biso   1.000  N
  N10      1.0000 0.60510  0.18610  0.56110  Biso   1.000  N
  N11      1.0000 0.39490  0.81390  0.56110  Biso   1.000  N
  N12      1.0000 0.60510  0.81390  0.43890  Biso   1.000  N
  N13      1.0000 0.89490  0.93890  0.68610  Biso   1.000  N
  N14      1.0000 0.10510  0.06110  0.68610  Biso   1.000  N
  N15      1.0000 0.89490  0.06110  0.31390  Biso   1.000  N
  N16      1.0000 0.10510  0.93890  0.31390  Biso   1.000  N
  N17      1.0000 0.93890  0.68610  0.89490  Biso   1.000  N
  N18      1.0000 0.06110  0.68610  0.10510  Biso   1.000  N
  N19      1.0000 0.06110  0.31390  0.89490  Biso   1.000  N
  N20      1.0000 0.93890  0.31390  0.10510  Biso   1.000  N
  N21      1.0000 0.68610  0.89490  0.93890  Biso   1.000  N
  N22      1.0000 0.68610  0.10510  0.06110  Biso   1.000  N
  N23      1.0000 0.31390  0.89490  0.06110  Biso   1.000  N
  N24      1.0000 0.31390  0.10510  0.93890  Biso   1.000  N
  N25      1.0000 0.43890  0.89490  0.68610  Biso   1.000  N
  N26      1.0000 0.56110  0.10510  0.68610  Biso   1.000  N
  N27      1.0000 0.56110  0.89490  0.31390  Biso   1.000  N
  N28      1.0000 0.43890  0.10510  0.31390  Biso   1.000  N
  N29      1.0000 0.18610  0.93890  0.89490  Biso   1.000  N
  N30      1.0000 0.18610  0.06110  0.10510  Biso   1.000  N
  N31      1.0000 0.81390  0.06110  0.89490  Biso   1.000  N
  N32      1.0000 0.81390  0.93890  0.10510  Biso   1.000  N
  N33      1.0000 0.39490  0.68610  0.93890  Biso   1.000  N
  N34      1.0000 0.60510  0.68610  0.06110  Biso   1.000  N
  N35      1.0000 0.39490  0.31390  0.06110  Biso   1.000  N
  N36      1.0000 0.60510  0.31390  0.93890  Biso   1.000  N
  N37      1.0000 0.89490  0.43890  0.18610  Biso   1.000  N
  N38      1.0000 0.10510  0.56110  0.18610  Biso   1.000  N
  N39      1.0000 0.89490  0.56110  0.81390  Biso   1.000  N
  N40      1.0000 0.10510  0.43890  0.81390  Biso   1.000  N
  N41      1.0000 0.93890  0.18610  0.39490  Biso   1.000  N
  N42      1.0000 0.06110  0.18610  0.60510  Biso   1.000  N
  N43      1.0000 0.06110  0.81390  0.39490  Biso   1.000  N
  N44      1.0000 0.93890  0.81390  0.60510  Biso   1.000  N
  N45      1.0000 0.68610  0.39490  0.43890  Biso   1.000  N
  N46      1.0000 0.68610  0.60510  0.56110  Biso   1.000  N
  N47      1.0000 0.31390  0.39490  0.56110  Biso   1.000  N
  N48      1.0000 0.31390  0.60510  0.43890  Biso   1.000  N
  N49      1.0000 0.93890  0.39490  0.68610  Biso   1.000  N
  N50      1.0000 0.06110  0.60510  0.68610  Biso   1.000  N
  N51      1.0000 0.06110  0.39490  0.31390  Biso   1.000  N
  N52      1.0000 0.93890  0.60510  0.31390  Biso   1.000  N
  N53      1.0000 0.68610  0.43890  0.89490  Biso   1.000  N
  N54      1.0000 0.68610  0.56110  0.10510  Biso   1.000  N
  N55      1.0000 0.31390  0.56110  0.89490  Biso   1.000  N
  N56      1.0000 0.31390  0.43890  0.10510  Biso   1.000  N
  N57      1.0000 0.89490  0.18610  0.93890  Biso   1.000  N
  N58      1.0000 0.10510  0.18610  0.06110  Biso   1.000  N
  N59      1.0000 0.89490  0.81390  0.06110  Biso   1.000  N
  N60      1.0000 0.10510  0.81390  0.93890  Biso   1.000  N
  N61      1.0000 0.39490  0.93890  0.18610  Biso   1.000  N
  N62      1.0000 0.60510  0.06110  0.18610  Biso   1.000  N
  N63      1.0000 0.39490  0.06110  0.81390  Biso   1.000  N
  N64      1.0000 0.60510  0.93890  0.81390  Biso   1.000  N
  N65      1.0000 0.43890  0.68610  0.39490  Biso   1.000  N
  N66      1.0000 0.56110  0.68610  0.60510  Biso   1.000  N
  N67      1.0000 0.56110  0.31390  0.39490  Biso   1.000  N
  N68      1.0000 0.43890  0.31390  0.60510  Biso   1.000  N
  N69      1.0000 0.18610  0.89490  0.43890  Biso   1.000  N
  N70      1.0000 0.18610  0.10510  0.56110  Biso   1.000  N
  N71      1.0000 0.81390  0.89490  0.56110  Biso   1.000  N
  N72      1.0000 0.81390  0.10510  0.43890  Biso   1.000  N
  N73      1.0000 0.93890  0.89490  0.18610  Biso   1.000  N
  N74      1.0000 0.06110  0.10510  0.18610  Biso   1.000  N
  N75      1.0000 0.06110  0.89490  0.81390  Biso   1.000  N
  N76      1.0000 0.93890  0.10510  0.81390  Biso   1.000  N
  N77      1.0000 0.68610  0.93890  0.39490  Biso   1.000  N
  N78      1.0000 0.68610  0.06110  0.60510  Biso   1.000  N
  N79      1.0000 0.31390  0.06110  0.39490  Biso   1.000  N
  N80      1.0000 0.31390  0.93890  0.60510  Biso   1.000  N
  N81      1.0000 0.89490  0.68610  0.43890  Biso   1.000  N
  N82      1.0000 0.10510  0.68610  0.56110  Biso   1.000  N
  N83      1.0000 0.89490  0.31390  0.56110  Biso   1.000  N
  N84      1.0000 0.10510  0.31390  0.43890  Biso   1.000  N
  N85      1.0000 0.39490  0.43890  0.68610  Biso   1.000  N
  N86      1.0000 0.60510  0.56110  0.68610  Biso   1.000  N
  N87      1.0000 0.39490  0.56110  0.31390  Biso   1.000  N
  N88      1.0000 0.60510  0.43890  0.31390  Biso   1.000  N
  N89      1.0000 0.43890  0.18610  0.89490  Biso   1.000  N
  N90      1.0000 0.56110  0.18610  0.10510  Biso   1.000  N
  N91      1.0000 0.56110  0.81390  0.89490  Biso   1.000  N
  N92      1.0000 0.43890  0.81390  0.10510  Biso   1.000  N
  N93      1.0000 0.18610  0.39490  0.93890  Biso   1.000  N
  N94      1.0000 0.18610  0.60510  0.06110  Biso   1.000  N
  N95      1.0000 0.81390  0.39490  0.06110  Biso   1.000  N
  N96      1.0000 0.81390  0.60510  0.93890  Biso   1.000  N
  N97      1.0000 0.33730  0.45720  0.13920  Biso   1.000  N
  N98      1.0000 0.66270  0.54280  0.13920  Biso   1.000  N
  N99      1.0000 0.66270  0.45720  0.86080  Biso   1.000  N
  N100     1.0000 0.33730  0.54280  0.86080  Biso   1.000  N
  N101     1.0000 0.13920  0.33730  0.45720  Biso   1.000  N
  N102     1.0000 0.13920  0.66270  0.54280  Biso   1.000  N
  N103     1.0000 0.86080  0.66270  0.45720  Biso   1.000  N
  N104     1.0000 0.86080  0.33730  0.54280  Biso   1.000  N
  N105     1.0000 0.45720  0.13920  0.33730  Biso   1.000  N
  N106     1.0000 0.54280  0.13920  0.66270  Biso   1.000  N
  N107     1.0000 0.45720  0.86080  0.66270  Biso   1.000  N
  N108     1.0000 0.54280  0.86080  0.33730  Biso   1.000  N
  N109     1.0000 0.95720  0.83730  0.63920  Biso   1.000  N
  N110     1.0000 0.04280  0.16270  0.63920  Biso   1.000  N
  N111     1.0000 0.95720  0.16270  0.36080  Biso   1.000  N
  N112     1.0000 0.04280  0.83730  0.36080  Biso   1.000  N
  N113     1.0000 0.83730  0.63920  0.95720  Biso   1.000  N
  N114     1.0000 0.16270  0.63920  0.04280  Biso   1.000  N
  N115     1.0000 0.16270  0.36080  0.95720  Biso   1.000  N
  N116     1.0000 0.83730  0.36080  0.04280  Biso   1.000  N
  N117     1.0000 0.63920  0.95720  0.83730  Biso   1.000  N
  N118     1.0000 0.63920  0.04280  0.16270  Biso   1.000  N
  N119     1.0000 0.36080  0.95720  0.16270  Biso   1.000  N
  N120     1.0000 0.36080  0.04280  0.83730  Biso   1.000  N
  N121     1.0000 0.33730  0.95720  0.63920  Biso   1.000  N
  N122     1.0000 0.66270  0.04280  0.63920  Biso   1.000  N
  N123     1.0000 0.66270  0.95720  0.36080  Biso   1.000  N
  N124     1.0000 0.33730  0.04280  0.36080  Biso   1.000  N
  N125     1.0000 0.13920  0.83730  0.95720  Biso   1.000  N
  N126     1.0000 0.13920  0.16270  0.04280  Biso   1.000  N
  N127     1.0000 0.86080  0.16270  0.95720  Biso   1.000  N
  N128     1.0000 0.86080  0.83730  0.04280  Biso   1.000  N
  N129     1.0000 0.45720  0.63920  0.83730  Biso   1.000  N
  N130     1.0000 0.54280  0.63920  0.16270  Biso   1.000  N
  N131     1.0000 0.45720  0.36080  0.16270  Biso   1.000  N
  N132     1.0000 0.54280  0.36080  0.83730  Biso   1.000  N
  N133     1.0000 0.95720  0.33730  0.13920  Biso   1.000  N
  N134     1.0000 0.04280  0.66270  0.13920  Biso   1.000  N
  N135     1.0000 0.95720  0.66270  0.86080  Biso   1.000  N
  N136     1.0000 0.04280  0.33730  0.86080  Biso   1.000  N
  N137     1.0000 0.83730  0.13920  0.45720  Biso   1.000  N
  N138     1.0000 0.16270  0.13920  0.54280  Biso   1.000  N
  N139     1.0000 0.16270  0.86080  0.45720  Biso   1.000  N
  N140     1.0000 0.83730  0.86080  0.54280  Biso   1.000  N
  N141     1.0000 0.63920  0.45720  0.33730  Biso   1.000  N
  N142     1.0000 0.63920  0.54280  0.66270  Biso   1.000  N
  N143     1.0000 0.36080  0.45720  0.66270  Biso   1.000  N
  N144     1.0000 0.36080  0.54280  0.33730  Biso   1.000  N
  N145     1.0000 0.83730  0.45720  0.63920  Biso   1.000  N
  N146     1.0000 0.16270  0.54280  0.63920  Biso   1.000  N
  N147     1.0000 0.16270  0.45720  0.36080  Biso   1.000  N
  N148     1.0000 0.83730  0.54280  0.36080  Biso   1.000  N
  N149     1.0000 0.63920  0.33730  0.95720  Biso   1.000  N
  N150     1.0000 0.63920  0.66270  0.04280  Biso   1.000  N
  N151     1.0000 0.36080  0.66270  0.95720  Biso   1.000  N
  N152     1.0000 0.36080  0.33730  0.04280  Biso   1.000  N
  N153     1.0000 0.95720  0.13920  0.83730  Biso   1.000  N
  N154     1.0000 0.04280  0.13920  0.16270  Biso   1.000  N
  N155     1.0000 0.95720  0.86080  0.16270  Biso   1.000  N
  N156     1.0000 0.04280  0.86080  0.83730  Biso   1.000  N
  N157     1.0000 0.45720  0.83730  0.13920  Biso   1.000  N
  N158     1.0000 0.54280  0.16270  0.13920  Biso   1.000  N
  N159     1.0000 0.45720  0.16270  0.86080  Biso   1.000  N
  N160     1.0000 0.54280  0.83730  0.86080  Biso   1.000  N
  N161     1.0000 0.33730  0.63920  0.45720  Biso   1.000  N
  N162     1.0000 0.66270  0.63920  0.54280  Biso   1.000  N
  N163     1.0000 0.66270  0.36080  0.45720  Biso   1.000  N
  N164     1.0000 0.33730  0.36080  0.54280  Biso   1.000  N
  N165     1.0000 0.13920  0.95720  0.33730  Biso   1.000  N
  N166     1.0000 0.13920  0.04280  0.66270  Biso   1.000  N
  N167     1.0000 0.86080  0.95720  0.66270  Biso   1.000  N
  N168     1.0000 0.86080  0.04280  0.33730  Biso   1.000  N
  N169     1.0000 0.83730  0.95720  0.13920  Biso   1.000  N
  N170     1.0000 0.16270  0.04280  0.13920  Biso   1.000  N
  N171     1.0000 0.16270  0.95720  0.86080  Biso   1.000  N
  N172     1.0000 0.83730  0.04280  0.86080  Biso   1.000  N
  N173     1.0000 0.63920  0.83730  0.45720  Biso   1.000  N
  N174     1.0000 0.63920  0.16270  0.54280  Biso   1.000  N
  N175     1.0000 0.36080  0.16270  0.45720  Biso   1.000  N
  N176     1.0000 0.36080  0.83730  0.54280  Biso   1.000  N
  N177     1.0000 0.95720  0.63920  0.33730  Biso   1.000  N
  N178     1.0000 0.04280  0.63920  0.66270  Biso   1.000  N
  N179     1.0000 0.95720  0.36080  0.66270  Biso   1.000  N
  N180     1.0000 0.04280  0.36080  0.33730  Biso   1.000  N
  N181     1.0000 0.45720  0.33730  0.63920  Biso   1.000  N
  N182     1.0000 0.54280  0.66270  0.63920  Biso   1.000  N
  N183     1.0000 0.45720  0.66270  0.36080  Biso   1.000  N
  N184     1.0000 0.54280  0.33730  0.36080  Biso   1.000  N
  N185     1.0000 0.33730  0.13920  0.95720  Biso   1.000  N
  N186     1.0000 0.66270  0.13920  0.04280  Biso   1.000  N
  N187     1.0000 0.66270  0.86080  0.95720  Biso   1.000  N
  N188     1.0000 0.33730  0.86080  0.04280  Biso   1.000  N
  N189     1.0000 0.13920  0.45720  0.83730  Biso   1.000  N
  N190     1.0000 0.13920  0.54280  0.16270  Biso   1.000  N
  N191     1.0000 0.86080  0.45720  0.16270  Biso   1.000  N
  N192     1.0000 0.86080  0.54280  0.83730  Biso   1.000  N
  O97      1.0000 0.52920  0.39450  0.28989  Biso   1.000  O
  O98      1.0000 0.47080  0.60550  0.28989  Biso   1.000  O
  O99      1.0000 0.47080  0.39450  0.71011  Biso   1.000  O
  O100     1.0000 0.52920  0.60550  0.71011  Biso   1.000  O
  O101     1.0000 0.28989  0.52920  0.39450  Biso   1.000  O
  O102     1.0000 0.28989  0.47080  0.60550  Biso   1.000  O
  O103     1.0000 0.71011  0.47080  0.39450  Biso   1.000  O
  O104     1.0000 0.71011  0.52920  0.60550  Biso   1.000  O
  O105     1.0000 0.39450  0.28989  0.52920  Biso   1.000  O
  O106     1.0000 0.60550  0.28989  0.47080  Biso   1.000  O
  O107     1.0000 0.39450  0.71011  0.47080  Biso   1.000  O
  O108     1.0000 0.60550  0.71011  0.52920  Biso   1.000  O
  O109     1.0000 0.89450  0.02920  0.78989  Biso   1.000  O
  O110     1.0000 0.10550  0.97080  0.78989  Biso   1.000  O
  O111     1.0000 0.89450  0.97080  0.21011  Biso   1.000  O
  O112     1.0000 0.10550  0.02920  0.21011  Biso   1.000  O
  O113     1.0000 0.02920  0.78989  0.89450  Biso   1.000  O
  O114     1.0000 0.97080  0.78989  0.10550  Biso   1.000  O
  O115     1.0000 0.97080  0.21011  0.89450  Biso   1.000  O
  O116     1.0000 0.02920  0.21011  0.10550  Biso   1.000  O
  O117     1.0000 0.78989  0.89450  0.02920  Biso   1.000  O
  O118     1.0000 0.78989  0.10550  0.97080  Biso   1.000  O
  O119     1.0000 0.21011  0.89450  0.97080  Biso   1.000  O
  O120     1.0000 0.21011  0.10550  0.02920  Biso   1.000  O
  O121     1.0000 0.52920  0.89450  0.78989  Biso   1.000  O
  O122     1.0000 0.47080  0.10550  0.78989  Biso   1.000  O
  O123     1.0000 0.47080  0.89450  0.21011  Biso   1.000  O
  O124     1.0000 0.52920  0.10550  0.21011  Biso   1.000  O
  O125     1.0000 0.28989  0.02920  0.89450  Biso   1.000  O
  O126     1.0000 0.28989  0.97080  0.10550  Biso   1.000  O
  O127     1.0000 0.71011  0.97080  0.89450  Biso   1.000  O
  O128     1.0000 0.71011  0.02920  0.10550  Biso   1.000  O
  O129     1.0000 0.39450  0.78989  0.02920  Biso   1.000  O
  O130     1.0000 0.60550  0.78989  0.97080  Biso   1.000  O
  O131     1.0000 0.39450  0.21011  0.97080  Biso   1.000  O
  O132     1.0000 0.60550  0.21011  0.02920  Biso   1.000  O
  O133     1.0000 0.89450  0.52920  0.28989  Biso   1.000  O
  O134     1.0000 0.10550  0.47080  0.28989  Biso   1.000  O
  O135     1.0000 0.89450  0.47080  0.71011  Biso   1.000  O
  O136     1.0000 0.10550  0.52920  0.71011  Biso   1.000  O
  O137     1.0000 0.02920  0.28989  0.39450  Biso   1.000  O
  O138     1.0000 0.97080  0.28989  0.60550  Biso   1.000  O
  O139     1.0000 0.97080  0.71011  0.39450  Biso   1.000  O
  O140     1.0000 0.02920  0.71011  0.60550  Biso   1.000  O
  O141     1.0000 0.78989  0.39450  0.52920  Biso   1.000  O
  O142     1.0000 0.78989  0.60550  0.47080  Biso   1.000  O
  O143     1.0000 0.21011  0.39450  0.47080  Biso   1.000  O
  O144     1.0000 0.21011  0.60550  0.52920  Biso   1.000  O
  O145     1.0000 0.02920  0.39450  0.78989  Biso   1.000  O
  O146     1.0000 0.97080  0.60550  0.78989  Biso   1.000  O
  O147     1.0000 0.97080  0.39450  0.21011  Biso   1.000  O
  O148     1.0000 0.02920  0.60550  0.21011  Biso   1.000  O
  O149     1.0000 0.78989  0.52920  0.89450  Biso   1.000  O
  O150     1.0000 0.78989  0.47080  0.10550  Biso   1.000  O
  O151     1.0000 0.21011  0.47080  0.89450  Biso   1.000  O
  O152     1.0000 0.21011  0.52920  0.10550  Biso   1.000  O
  O153     1.0000 0.89450  0.28989  0.02920  Biso   1.000  O
  O154     1.0000 0.10550  0.28989  0.97080  Biso   1.000  O
  O155     1.0000 0.89450  0.71011  0.97080  Biso   1.000  O
  O156     1.0000 0.10550  0.71011  0.02920  Biso   1.000  O
  O157     1.0000 0.39450  0.02920  0.28989  Biso   1.000  O
  O158     1.0000 0.60550  0.97080  0.28989  Biso   1.000  O
  O159     1.0000 0.39450  0.97080  0.71011  Biso   1.000  O
  O160     1.0000 0.60550  0.02920  0.71011  Biso   1.000  O
  O161     1.0000 0.52920  0.78989  0.39450  Biso   1.000  O
  O162     1.0000 0.47080  0.78989  0.60550  Biso   1.000  O
  O163     1.0000 0.47080  0.21011  0.39450  Biso   1.000  O
  O164     1.0000 0.52920  0.21011  0.60550  Biso   1.000  O
  O165     1.0000 0.28989  0.89450  0.52920  Biso   1.000  O
  O166     1.0000 0.28989  0.10550  0.47080  Biso   1.000  O
  O167     1.0000 0.71011  0.89450  0.47080  Biso   1.000  O
  O168     1.0000 0.71011  0.10550  0.52920  Biso   1.000  O
  O169     1.0000 0.02920  0.89450  0.28989  Biso   1.000  O
  O170     1.0000 0.97080  0.10550  0.28989  Biso   1.000  O
  O171     1.0000 0.97080  0.89450  0.71011  Biso   1.000  O
  O172     1.0000 0.02920  0.10550  0.71011  Biso   1.000  O
  O173     1.0000 0.78989  0.02920  0.39450  Biso   1.000  O
  O174     1.0000 0.78989  0.97080  0.60550  Biso   1.000  O
  O175     1.0000 0.21011  0.97080  0.39450  Biso   1.000  O
  O176     1.0000 0.21011  0.02920  0.60550  Biso   1.000  O
  O177     1.0000 0.89450  0.78989  0.52920  Biso   1.000  O
  O178     1.0000 0.10550  0.78989  0.47080  Biso   1.000  O
  O179     1.0000 0.89450  0.21011  0.47080  Biso   1.000  O
  O180     1.0000 0.10550  0.21011  0.52920  Biso   1.000  O
  O181     1.0000 0.39450  0.52920  0.78989  Biso   1.000  O
  O182     1.0000 0.60550  0.47080  0.78989  Biso   1.000  O
  O183     1.0000 0.39450  0.47080  0.21011  Biso   1.000  O
  O184     1.0000 0.60550  0.52920  0.21011  Biso   1.000  O
  O185     1.0000 0.52920  0.28989  0.89450  Biso   1.000  O
  O186     1.0000 0.47080  0.28989  0.10550  Biso   1.000  O
  O187     1.0000 0.47080  0.71011  0.89450  Biso   1.000  O
  O188     1.0000 0.52920  0.71011  0.10550  Biso   1.000  O
  O189     1.0000 0.28989  0.39450  0.02920  Biso   1.000  O
  O190     1.0000 0.28989  0.60550  0.97080  Biso   1.000  O
  O191     1.0000 0.71011  0.39450  0.97080  Biso   1.000  O
  O192     1.0000 0.71011  0.60550  0.02920  Biso   1.000  O
  O193     1.0000 0.56500  0.34200  0.25040  Biso   1.000  O
  O194     1.0000 0.43500  0.65800  0.25040  Biso   1.000  O
  O195     1.0000 0.43500  0.34200  0.74960  Biso   1.000  O
  O196     1.0000 0.56500  0.65800  0.74960  Biso   1.000  O
  O197     1.0000 0.25040  0.56500  0.34200  Biso   1.000  O
  O198     1.0000 0.25040  0.43500  0.65800  Biso   1.000  O
  O199     1.0000 0.74960  0.43500  0.34200  Biso   1.000  O
  O200     1.0000 0.74960  0.56500  0.65800  Biso   1.000  O
  O201     1.0000 0.34200  0.25040  0.56500  Biso   1.000  O
  O202     1.0000 0.65800  0.25040  0.43500  Biso   1.000  O
  O203     1.0000 0.34200  0.74960  0.43500  Biso   1.000  O
  O204     1.0000 0.65800  0.74960  0.56500  Biso   1.000  O
  O205     1.0000 0.84200  0.06500  0.75040  Biso   1.000  O
  O206     1.0000 0.15800  0.93500  0.75040  Biso   1.000  O
  O207     1.0000 0.84200  0.93500  0.24960  Biso   1.000  O
  O208     1.0000 0.15800  0.06500  0.24960  Biso   1.000  O
  O209     1.0000 0.06500  0.75040  0.84200  Biso   1.000  O
  O210     1.0000 0.93500  0.75040  0.15800  Biso   1.000  O
  O211     1.0000 0.93500  0.24960  0.84200  Biso   1.000  O
  O212     1.0000 0.06500  0.24960  0.15800  Biso   1.000  O
  O213     1.0000 0.75040  0.84200  0.06500  Biso   1.000  O
  O214     1.0000 0.75040  0.15800  0.93500  Biso   1.000  O
  O215     1.0000 0.24960  0.84200  0.93500  Biso   1.000  O
  O216     1.0000 0.24960  0.15800  0.06500  Biso   1.000  O
  O217     1.0000 0.56500  0.84200  0.75040  Biso   1.000  O
  O218     1.0000 0.43500  0.15800  0.75040  Biso   1.000  O
  O219     1.0000 0.43500  0.84200  0.24960  Biso   1.000  O
  O220     1.0000 0.56500  0.15800  0.24960  Biso   1.000  O
  O221     1.0000 0.25040  0.06500  0.84200  Biso   1.000  O
  O222     1.0000 0.25040  0.93500  0.15800  Biso   1.000  O
  O223     1.0000 0.74960  0.93500  0.84200  Biso   1.000  O
  O224     1.0000 0.74960  0.06500  0.15800  Biso   1.000  O
  O225     1.0000 0.34200  0.75040  0.06500  Biso   1.000  O
  O226     1.0000 0.65800  0.75040  0.93500  Biso   1.000  O
  O227     1.0000 0.34200  0.24960  0.93500  Biso   1.000  O
  O228     1.0000 0.65800  0.24960  0.06500  Biso   1.000  O
  O229     1.0000 0.84200  0.56500  0.25040  Biso   1.000  O
  O230     1.0000 0.15800  0.43500  0.25040  Biso   1.000  O
  O231     1.0000 0.84200  0.43500  0.74960  Biso   1.000  O
  O232     1.0000 0.15800  0.56500  0.74960  Biso   1.000  O
  O233     1.0000 0.06500  0.25040  0.34200  Biso   1.000  O
  O234     1.0000 0.93500  0.25040  0.65800  Biso   1.000  O
  O235     1.0000 0.93500  0.74960  0.34200  Biso   1.000  O
  O236     1.0000 0.06500  0.74960  0.65800  Biso   1.000  O
  O237     1.0000 0.75040  0.34200  0.56500  Biso   1.000  O
  O238     1.0000 0.75040  0.65800  0.43500  Biso   1.000  O
  O239     1.0000 0.24960  0.34200  0.43500  Biso   1.000  O
  O240     1.0000 0.24960  0.65800  0.56500  Biso   1.000  O
  O241     1.0000 0.06500  0.34200  0.75040  Biso   1.000  O
  O242     1.0000 0.93500  0.65800  0.75040  Biso   1.000  O
  O243     1.0000 0.93500  0.34200  0.24960  Biso   1.000  O
  O244     1.0000 0.06500  0.65800  0.24960  Biso   1.000  O
  O245     1.0000 0.75040  0.56500  0.84200  Biso   1.000  O
  O246     1.0000 0.75040  0.43500  0.15800  Biso   1.000  O
  O247     1.0000 0.24960  0.43500  0.84200  Biso   1.000  O
  O248     1.0000 0.24960  0.56500  0.15800  Biso   1.000  O
  O249     1.0000 0.84200  0.25040  0.06500  Biso   1.000  O
  O250     1.0000 0.15800  0.25040  0.93500  Biso   1.000  O
  O251     1.0000 0.84200  0.74960  0.93500  Biso   1.000  O
  O252     1.0000 0.15800  0.74960  0.06500  Biso   1.000  O
  O253     1.0000 0.34200  0.06500  0.25040  Biso   1.000  O
  O254     1.0000 0.65800  0.93500  0.25040  Biso   1.000  O
  O255     1.0000 0.34200  0.93500  0.74960  Biso   1.000  O
  O256     1.0000 0.65800  0.06500  0.74960  Biso   1.000  O
  O257     1.0000 0.56500  0.75040  0.34200  Biso   1.000  O
  O258     1.0000 0.43500  0.75040  0.65800  Biso   1.000  O
  O259     1.0000 0.43500  0.24960  0.34200  Biso   1.000  O
  O260     1.0000 0.56500  0.24960  0.65800  Biso   1.000  O
  O261     1.0000 0.25040  0.84200  0.56500  Biso   1.000  O
  O262     1.0000 0.25040  0.15800  0.43500  Biso   1.000  O
  O263     1.0000 0.74960  0.84200  0.43500  Biso   1.000  O
  O264     1.0000 0.74960  0.15800  0.56500  Biso   1.000  O
  O265     1.0000 0.06500  0.84200  0.25040  Biso   1.000  O
  O266     1.0000 0.93500  0.15800  0.25040  Biso   1.000  O
  O267     1.0000 0.93500  0.84200  0.74960  Biso   1.000  O
  O268     1.0000 0.06500  0.15800  0.74960  Biso   1.000  O
  O269     1.0000 0.75040  0.06500  0.34200  Biso   1.000  O
  O270     1.0000 0.75040  0.93500  0.65800  Biso   1.000  O
  O271     1.0000 0.24960  0.93500  0.34200  Biso   1.000  O
  O272     1.0000 0.24960  0.06500  0.65800  Biso   1.000  O
  O273     1.0000 0.84200  0.75040  0.56500  Biso   1.000  O
  O274     1.0000 0.15800  0.75040  0.43500  Biso   1.000  O
  O275     1.0000 0.84200  0.24960  0.43500  Biso   1.000  O
  O276     1.0000 0.15800  0.24960  0.56500  Biso   1.000  O
  O277     1.0000 0.34200  0.56500  0.75040  Biso   1.000  O
  O278     1.0000 0.65800  0.43500  0.75040  Biso   1.000  O
  O279     1.0000 0.34200  0.43500  0.24960  Biso   1.000  O
  O280     1.0000 0.65800  0.56500  0.24960  Biso   1.000  O
  O281     1.0000 0.56500  0.25040  0.84200  Biso   1.000  O
  O282     1.0000 0.43500  0.25040  0.15800  Biso   1.000  O
  O283     1.0000 0.43500  0.74960  0.84200  Biso   1.000  O
  O284     1.0000 0.56500  0.74960  0.15800  Biso   1.000  O
  O285     1.0000 0.25040  0.34200  0.06500  Biso   1.000  O
  O286     1.0000 0.25040  0.65800  0.93500  Biso   1.000  O
  O287     1.0000 0.74960  0.34200  0.93500  Biso   1.000  O
  O288     1.0000 0.74960  0.65800  0.06500  Biso   1.000  O
  O289     1.0000 0.37170  0.37170  0.12830  Biso   1.000  O
  O290     1.0000 0.62830  0.62830  0.12830  Biso   1.000  O
  O291     1.0000 0.62830  0.37170  0.87170  Biso   1.000  O
  O292     1.0000 0.37170  0.62830  0.87170  Biso   1.000  O
  O293     1.0000 0.12830  0.37170  0.37170  Biso   1.000  O
  O294     1.0000 0.12830  0.62830  0.62830  Biso   1.000  O
  O295     1.0000 0.87170  0.62830  0.37170  Biso   1.000  O
  O296     1.0000 0.87170  0.37170  0.62830  Biso   1.000  O
  O297     1.0000 0.37170  0.12830  0.37170  Biso   1.000  O
  O298     1.0000 0.62830  0.12830  0.62830  Biso   1.000  O
  O299     1.0000 0.37170  0.87170  0.62830  Biso   1.000  O
  O300     1.0000 0.62830  0.87170  0.37170  Biso   1.000  O
  O301     1.0000 0.87170  0.87170  0.62830  Biso   1.000  O
  O302     1.0000 0.12830  0.12830  0.62830  Biso   1.000  O
  O303     1.0000 0.87170  0.12830  0.37170  Biso   1.000  O
  O304     1.0000 0.12830  0.87170  0.37170  Biso   1.000  O
  O305     1.0000 0.87170  0.62830  0.87170  Biso   1.000  O
  O306     1.0000 0.12830  0.62830  0.12830  Biso   1.000  O
  O307     1.0000 0.12830  0.37170  0.87170  Biso   1.000  O
  O308     1.0000 0.87170  0.37170  0.12830  Biso   1.000  O
  O309     1.0000 0.62830  0.87170  0.87170  Biso   1.000  O
  O310     1.0000 0.62830  0.12830  0.12830  Biso   1.000  O
  O311     1.0000 0.37170  0.87170  0.12830  Biso   1.000  O
  O312     1.0000 0.37170  0.12830  0.87170  Biso   1.000  O
  O313     1.0000 0.12830  0.87170  0.87170  Biso   1.000  O
  O314     1.0000 0.12830  0.12830  0.12830  Biso   1.000  O
  O315     1.0000 0.87170  0.12830  0.87170  Biso   1.000  O
  O316     1.0000 0.87170  0.87170  0.12830  Biso   1.000  O
  O317     1.0000 0.62830  0.37170  0.37170  Biso   1.000  O
  O318     1.0000 0.62830  0.62830  0.62830  Biso   1.000  O
  O319     1.0000 0.37170  0.37170  0.62830  Biso   1.000  O
  O320     1.0000 0.37170  0.62830  0.37170  Biso   1.000  O
  O321     1.0000 0.39290  0.39290  0.10710  Biso   1.000  O
  O322     1.0000 0.60710  0.60710  0.10710  Biso   1.000  O
  O323     1.0000 0.60710  0.39290  0.89290  Biso   1.000  O
  O324     1.0000 0.39290  0.60710  0.89290  Biso   1.000  O
  O325     1.0000 0.10710  0.39290  0.39290  Biso   1.000  O
  O326     1.0000 0.10710  0.60710  0.60710  Biso   1.000  O
  O327     1.0000 0.89290  0.60710  0.39290  Biso   1.000  O
  O328     1.0000 0.89290  0.39290  0.60710  Biso   1.000  O
  O329     1.0000 0.39290  0.10710  0.39290  Biso   1.000  O
  O330     1.0000 0.60710  0.10710  0.60710  Biso   1.000  O
  O331     1.0000 0.39290  0.89290  0.60710  Biso   1.000  O
  O332     1.0000 0.60710  0.89290  0.39290  Biso   1.000  O
  O333     1.0000 0.89290  0.89290  0.60710  Biso   1.000  O
  O334     1.0000 0.10710  0.10710  0.60710  Biso   1.000  O
  O335     1.0000 0.89290  0.10710  0.39290  Biso   1.000  O
  O336     1.0000 0.10710  0.89290  0.39290  Biso   1.000  O
  O337     1.0000 0.89290  0.60710  0.89290  Biso   1.000  O
  O338     1.0000 0.10710  0.60710  0.10710  Biso   1.000  O
  O339     1.0000 0.10710  0.39290  0.89290  Biso   1.000  O
  O340     1.0000 0.89290  0.39290  0.10710  Biso   1.000  O
  O341     1.0000 0.60710  0.89290  0.89290  Biso   1.000  O
  O342     1.0000 0.60710  0.10710  0.10710  Biso   1.000  O
  O343     1.0000 0.39290  0.89290  0.10710  Biso   1.000  O
  O344     1.0000 0.39290  0.10710  0.89290  Biso   1.000  O
  O345     1.0000 0.10710  0.89290  0.89290  Biso   1.000  O
  O346     1.0000 0.10710  0.10710  0.10710  Biso   1.000  O
  O347     1.0000 0.89290  0.10710  0.89290  Biso   1.000  O
  O348     1.0000 0.89290  0.89290  0.10710  Biso   1.000  O
  O349     1.0000 0.60710  0.39290  0.39290  Biso   1.000  O
  O350     1.0000 0.60710  0.60710  0.60710  Biso   1.000  O
  O351     1.0000 0.39290  0.39290  0.60710  Biso   1.000  O
  O352     1.0000 0.39290  0.60710  0.39290  Biso   1.000  O
