data_image0
_cell_length_a       23.7507
_cell_length_b       23.7507
_cell_length_c       14.1156
_cell_angle_alpha    90
_cell_angle_beta     90
_cell_angle_gamma    90

_symmetry_space_group_name_H-M    "P 1"
_symmetry_int_tables_number       1

loop_
  _symmetry_equiv_pos_as_xyz
  'x, y, z'

loop_
  _atom_site_label
  _atom_site_occupancy
  _atom_site_fract_x
  _atom_site_fract_y
  _atom_site_fract_z
  _atom_site_thermal_displace_type
  _atom_site_B_iso_or_equiv
  _atom_site_type_symbol
  O1       1.0000 0.81800  0.48270  0.13170  Biso   1.000  O
  O2       1.0000 0.01730  0.81800  0.13170  Biso   1.000  O
  O3       1.0000 0.48270  0.68200  0.13170  Biso   1.000  O
  O4       1.0000 0.68200  0.01730  0.13170  Biso   1.000  O
  O5       1.0000 0.18200  0.51730  0.86830  Biso   1.000  O
  O6       1.0000 0.98270  0.18200  0.86830  Biso   1.000  O
  O7       1.0000 0.51730  0.31800  0.86830  Biso   1.000  O
  O8       1.0000 0.31800  0.98270  0.86830  Biso   1.000  O
  O9       1.0000 0.86380  0.61920  0.08760  Biso   1.000  O
  O10      1.0000 0.88080  0.86380  0.08760  Biso   1.000  O
  O11      1.0000 0.61920  0.63620  0.08760  Biso   1.000  O
  O12      1.0000 0.63620  0.88080  0.08760  Biso   1.000  O
  O13      1.0000 0.13620  0.38080  0.91240  Biso   1.000  O
  O14      1.0000 0.11920  0.13620  0.91240  Biso   1.000  O
  O15      1.0000 0.38080  0.36380  0.91240  Biso   1.000  O
  O16      1.0000 0.36380  0.11920  0.91240  Biso   1.000  O
  O17      1.0000 0.92880  0.66010  0.88080  Biso   1.000  O
  O18      1.0000 0.83990  0.92880  0.88080  Biso   1.000  O
  O19      1.0000 0.66010  0.57120  0.88080  Biso   1.000  O
  O20      1.0000 0.57120  0.83990  0.88080  Biso   1.000  O
  O21      1.0000 0.07120  0.33990  0.11920  Biso   1.000  O
  O22      1.0000 0.16010  0.07120  0.11920  Biso   1.000  O
  O23      1.0000 0.33990  0.42880  0.11920  Biso   1.000  O
  O24      1.0000 0.42880  0.16010  0.11920  Biso   1.000  O
  O25      1.0000 0.95000  0.56880  0.71020  Biso   1.000  O
  O26      1.0000 0.93120  0.95000  0.71020  Biso   1.000  O
  O27      1.0000 0.56880  0.55000  0.71020  Biso   1.000  O
  O28      1.0000 0.55000  0.93120  0.71020  Biso   1.000  O
  O29      1.0000 0.05000  0.43120  0.28980  Biso   1.000  O
  O30      1.0000 0.06880  0.05000  0.28980  Biso   1.000  O
  O31      1.0000 0.43120  0.45000  0.28980  Biso   1.000  O
  O32      1.0000 0.45000  0.06880  0.28980  Biso   1.000  O
  O33      1.0000 0.08960  0.56100  0.24580  Biso   1.000  O
  O34      1.0000 0.93900  0.08960  0.24580  Biso   1.000  O
  O35      1.0000 0.56100  0.41040  0.24580  Biso   1.000  O
  O36      1.0000 0.41040  0.93900  0.24580  Biso   1.000  O
  O37      1.0000 0.91040  0.43900  0.75420  Biso   1.000  O
  O38      1.0000 0.06100  0.91040  0.75420  Biso   1.000  O
  O39      1.0000 0.43900  0.58960  0.75420  Biso   1.000  O
  O40      1.0000 0.58960  0.06100  0.75420  Biso   1.000  O
  O41      1.0000 0.15670  0.60820  0.04200  Biso   1.000  O
  O42      1.0000 0.89180  0.15670  0.04200  Biso   1.000  O
  O43      1.0000 0.60820  0.34330  0.04200  Biso   1.000  O
  O44      1.0000 0.34330  0.89180  0.04200  Biso   1.000  O
  O45      1.0000 0.84330  0.39180  0.95800  Biso   1.000  O
  O46      1.0000 0.10820  0.84330  0.95800  Biso   1.000  O
  O47      1.0000 0.39180  0.65670  0.95800  Biso   1.000  O
  O48      1.0000 0.65670  0.10820  0.95800  Biso   1.000  O
  N1       1.0000 0.86580  0.41270  0.21190  Biso   1.000  N
  N2       1.0000 0.08730  0.86580  0.21190  Biso   1.000  N
  N3       1.0000 0.41270  0.63420  0.21190  Biso   1.000  N
  N4       1.0000 0.63420  0.08730  0.21190  Biso   1.000  N
  N5       1.0000 0.13420  0.58730  0.78810  Biso   1.000  N
  N6       1.0000 0.91270  0.13420  0.78810  Biso   1.000  N
  N7       1.0000 0.58730  0.36580  0.78810  Biso   1.000  N
  N8       1.0000 0.36580  0.91270  0.78810  Biso   1.000  N
  N9       1.0000 0.87810  0.50150  0.25680  Biso   1.000  N
  N10      1.0000 0.99850  0.87810  0.25680  Biso   1.000  N
  N11      1.0000 0.50150  0.62190  0.25680  Biso   1.000  N
  N12      1.0000 0.62190  0.99850  0.25680  Biso   1.000  N
  N13      1.0000 0.12190  0.49850  0.74320  Biso   1.000  N
  N14      1.0000 0.00150  0.12190  0.74320  Biso   1.000  N
  N15      1.0000 0.49850  0.37810  0.74320  Biso   1.000  N
  N16      1.0000 0.37810  0.00150  0.74320  Biso   1.000  N
  N17      1.0000 0.90610  0.59930  0.23280  Biso   1.000  N
  N18      1.0000 0.90070  0.90610  0.23280  Biso   1.000  N
  N19      1.0000 0.59930  0.59390  0.23280  Biso   1.000  N
  N20      1.0000 0.59390  0.90070  0.23280  Biso   1.000  N
  N21      1.0000 0.09390  0.40070  0.76720  Biso   1.000  N
  N22      1.0000 0.09930  0.09390  0.76720  Biso   1.000  N
  N23      1.0000 0.40070  0.40610  0.76720  Biso   1.000  N
  N24      1.0000 0.40610  0.09930  0.76720  Biso   1.000  N
  N25      1.0000 0.94650  0.66280  0.13860  Biso   1.000  N
  N26      1.0000 0.83720  0.94650  0.13860  Biso   1.000  N
  N27      1.0000 0.66280  0.55350  0.13860  Biso   1.000  N
  N28      1.0000 0.55350  0.83720  0.13860  Biso   1.000  N
  N29      1.0000 0.05350  0.33720  0.86140  Biso   1.000  N
  N30      1.0000 0.16280  0.05350  0.86140  Biso   1.000  N
  N31      1.0000 0.33720  0.44650  0.86140  Biso   1.000  N
  N32      1.0000 0.44650  0.16280  0.86140  Biso   1.000  N
  N33      1.0000 0.99070  0.69540  0.99260  Biso   1.000  N
  N34      1.0000 0.80460  0.99070  0.99260  Biso   1.000  N
  N35      1.0000 0.69540  0.50930  0.99260  Biso   1.000  N
  N36      1.0000 0.50930  0.80460  0.99260  Biso   1.000  N
  N37      1.0000 0.00930  0.30460  0.00740  Biso   1.000  N
  N38      1.0000 0.19540  0.00930  0.00740  Biso   1.000  N
  N39      1.0000 0.30460  0.49070  0.00740  Biso   1.000  N
  N40      1.0000 0.49070  0.19540  0.00740  Biso   1.000  N
  N41      1.0000 0.02280  0.67820  0.84860  Biso   1.000  N
  N42      1.0000 0.82180  0.02280  0.84860  Biso   1.000  N
  N43      1.0000 0.67820  0.47720  0.84860  Biso   1.000  N
  N44      1.0000 0.47720  0.82180  0.84860  Biso   1.000  N
  N45      1.0000 0.97720  0.32180  0.15140  Biso   1.000  N
  N46      1.0000 0.17820  0.97720  0.15140  Biso   1.000  N
  N47      1.0000 0.32180  0.52280  0.15140  Biso   1.000  N
  N48      1.0000 0.52280  0.17820  0.15140  Biso   1.000  N
  N49      1.0000 0.03880  0.60670  0.73000  Biso   1.000  N
  N50      1.0000 0.89330  0.03880  0.73000  Biso   1.000  N
  N51      1.0000 0.60670  0.46120  0.73000  Biso   1.000  N
  N52      1.0000 0.46120  0.89330  0.73000  Biso   1.000  N
  N53      1.0000 0.96120  0.39330  0.27000  Biso   1.000  N
  N54      1.0000 0.10670  0.96120  0.27000  Biso   1.000  N
  N55      1.0000 0.39330  0.53880  0.27000  Biso   1.000  N
  N56      1.0000 0.53880  0.10670  0.27000  Biso   1.000  N
  N57      1.0000 0.96830  0.47970  0.33120  Biso   1.000  N
  N58      1.0000 0.02030  0.96830  0.33120  Biso   1.000  N
  N59      1.0000 0.47970  0.53170  0.33120  Biso   1.000  N
  N60      1.0000 0.53170  0.02030  0.33120  Biso   1.000  N
  N61      1.0000 0.03170  0.52030  0.66880  Biso   1.000  N
  N62      1.0000 0.97970  0.03170  0.66880  Biso   1.000  N
  N63      1.0000 0.52030  0.46830  0.66880  Biso   1.000  N
  N64      1.0000 0.46830  0.97970  0.66880  Biso   1.000  N
  N65      1.0000 0.99750  0.57520  0.29600  Biso   1.000  N
  N66      1.0000 0.92480  0.99750  0.29600  Biso   1.000  N
  N67      1.0000 0.57520  0.50250  0.29600  Biso   1.000  N
  N68      1.0000 0.50250  0.92480  0.29600  Biso   1.000  N
  N69      1.0000 0.00250  0.42480  0.70400  Biso   1.000  N
  N70      1.0000 0.07520  0.00250  0.70400  Biso   1.000  N
  N71      1.0000 0.42480  0.49750  0.70400  Biso   1.000  N
  N72      1.0000 0.49750  0.07520  0.70400  Biso   1.000  N
  N73      1.0000 0.03790  0.64030  0.20390  Biso   1.000  N
  N74      1.0000 0.85970  0.03790  0.20390  Biso   1.000  N
  N75      1.0000 0.64030  0.46210  0.20390  Biso   1.000  N
  N76      1.0000 0.46210  0.85970  0.20390  Biso   1.000  N
  N77      1.0000 0.96210  0.35970  0.79610  Biso   1.000  N
  N78      1.0000 0.14030  0.96210  0.79610  Biso   1.000  N
  N79      1.0000 0.35970  0.53790  0.79610  Biso   1.000  N
  N80      1.0000 0.53790  0.14030  0.79610  Biso   1.000  N
  N81      1.0000 0.08350  0.67130  0.06060  Biso   1.000  N
  N82      1.0000 0.82870  0.08350  0.06060  Biso   1.000  N
  N83      1.0000 0.67130  0.41650  0.06060  Biso   1.000  N
  N84      1.0000 0.41650  0.82870  0.06060  Biso   1.000  N
  N85      1.0000 0.91650  0.32870  0.93940  Biso   1.000  N
  N86      1.0000 0.17130  0.91650  0.93940  Biso   1.000  N
  N87      1.0000 0.32870  0.58350  0.93940  Biso   1.000  N
  N88      1.0000 0.58350  0.17130  0.93940  Biso   1.000  N
  N89      1.0000 0.11480  0.65360  0.91460  Biso   1.000  N
  N90      1.0000 0.84640  0.11480  0.91460  Biso   1.000  N
  N91      1.0000 0.65360  0.38520  0.91460  Biso   1.000  N
  N92      1.0000 0.38520  0.84640  0.91460  Biso   1.000  N
  N93      1.0000 0.88520  0.34640  0.08540  Biso   1.000  N
  N94      1.0000 0.15360  0.88520  0.08540  Biso   1.000  N
  N95      1.0000 0.34640  0.61480  0.08540  Biso   1.000  N
  N96      1.0000 0.61480  0.15360  0.08540  Biso   1.000  N
  C1       1.0000 0.85040  0.46630  0.19370  Biso   1.000  C
  C2       1.0000 0.03370  0.85040  0.19370  Biso   1.000  C
  C3       1.0000 0.46630  0.64960  0.19370  Biso   1.000  C
  C4       1.0000 0.64960  0.03370  0.19370  Biso   1.000  C
  C5       1.0000 0.14960  0.53370  0.80630  Biso   1.000  C
  C6       1.0000 0.96630  0.14960  0.80630  Biso   1.000  C
  C7       1.0000 0.53370  0.35040  0.80630  Biso   1.000  C
  C8       1.0000 0.35040  0.96630  0.80630  Biso   1.000  C
  C9       1.0000 0.86290  0.56060  0.26880  Biso   1.000  C
  C10      1.0000 0.93940  0.86290  0.26880  Biso   1.000  C
  C11      1.0000 0.56060  0.63710  0.26880  Biso   1.000  C
  C12      1.0000 0.63710  0.93940  0.26880  Biso   1.000  C
  C13      1.0000 0.13710  0.43940  0.73120  Biso   1.000  C
  C14      1.0000 0.06060  0.13710  0.73120  Biso   1.000  C
  C15      1.0000 0.43940  0.36290  0.73120  Biso   1.000  C
  C16      1.0000 0.36290  0.06060  0.73120  Biso   1.000  C
  H1       1.0000 0.85690  0.56790  0.33490  Biso   1.000  H
  H2       1.0000 0.93210  0.85690  0.33490  Biso   1.000  H
  H3       1.0000 0.56790  0.64310  0.33490  Biso   1.000  H
  H4       1.0000 0.64310  0.93210  0.33490  Biso   1.000  H
  H5       1.0000 0.14310  0.43210  0.66510  Biso   1.000  H
  H6       1.0000 0.06790  0.14310  0.66510  Biso   1.000  H
  H7       1.0000 0.43210  0.35690  0.66510  Biso   1.000  H
  H8       1.0000 0.35690  0.06790  0.66510  Biso   1.000  H
  H9       1.0000 0.82810  0.56760  0.23630  Biso   1.000  H
  H10      1.0000 0.93240  0.82810  0.23630  Biso   1.000  H
  H11      1.0000 0.56760  0.67190  0.23630  Biso   1.000  H
  H12      1.0000 0.67190  0.93240  0.23630  Biso   1.000  H
  H13      1.0000 0.17190  0.43240  0.76370  Biso   1.000  H
  H14      1.0000 0.06760  0.17190  0.76370  Biso   1.000  H
  H15      1.0000 0.43240  0.32810  0.76370  Biso   1.000  H
  H16      1.0000 0.32810  0.06760  0.76370  Biso   1.000  H
  C17      1.0000 0.90100  0.62550  0.14750  Biso   1.000  C
  C18      1.0000 0.87450  0.90100  0.14750  Biso   1.000  C
  C19      1.0000 0.62550  0.59900  0.14750  Biso   1.000  C
  C20      1.0000 0.59900  0.87450  0.14750  Biso   1.000  C
  C21      1.0000 0.09900  0.37450  0.85250  Biso   1.000  C
  C22      1.0000 0.12550  0.09900  0.85250  Biso   1.000  C
  C23      1.0000 0.37450  0.40100  0.85250  Biso   1.000  C
  C24      1.0000 0.40100  0.12550  0.85250  Biso   1.000  C
  C25      1.0000 0.94940  0.70560  0.06610  Biso   1.000  C
  C26      1.0000 0.79440  0.94940  0.06610  Biso   1.000  C
  C27      1.0000 0.70560  0.55060  0.06610  Biso   1.000  C
  C28      1.0000 0.55060  0.79440  0.06610  Biso   1.000  C
  C29      1.0000 0.05060  0.29440  0.93390  Biso   1.000  C
  C30      1.0000 0.20560  0.05060  0.93390  Biso   1.000  C
  C31      1.0000 0.29440  0.44940  0.93390  Biso   1.000  C
  C32      1.0000 0.44940  0.20560  0.93390  Biso   1.000  C
  H17      1.0000 0.95780  0.74100  0.09570  Biso   1.000  H
  H18      1.0000 0.75900  0.95780  0.09570  Biso   1.000  H
  H19      1.0000 0.74100  0.54220  0.09570  Biso   1.000  H
  H20      1.0000 0.54220  0.75900  0.09570  Biso   1.000  H
  H21      1.0000 0.04220  0.25900  0.90430  Biso   1.000  H
  H22      1.0000 0.24100  0.04220  0.90430  Biso   1.000  H
  H23      1.0000 0.25900  0.45780  0.90430  Biso   1.000  H
  H24      1.0000 0.45780  0.24100  0.90430  Biso   1.000  H
  H25      1.0000 0.91300  0.70890  0.03700  Biso   1.000  H
  H26      1.0000 0.79110  0.91300  0.03700  Biso   1.000  H
  H27      1.0000 0.70890  0.58700  0.03700  Biso   1.000  H
  H28      1.0000 0.58700  0.79110  0.03700  Biso   1.000  H
  H29      1.0000 0.08700  0.29110  0.96300  Biso   1.000  H
  H30      1.0000 0.20890  0.08700  0.96300  Biso   1.000  H
  H31      1.0000 0.29110  0.41300  0.96300  Biso   1.000  H
  H32      1.0000 0.41300  0.20890  0.96300  Biso   1.000  H
  C33      1.0000 0.97650  0.67580  0.90540  Biso   1.000  C
  C34      1.0000 0.82420  0.97650  0.90540  Biso   1.000  C
  C35      1.0000 0.67580  0.52350  0.90540  Biso   1.000  C
  C36      1.0000 0.52350  0.82420  0.90540  Biso   1.000  C
  C37      1.0000 0.02350  0.32420  0.09460  Biso   1.000  C
  C38      1.0000 0.17580  0.02350  0.09460  Biso   1.000  C
  C39      1.0000 0.32420  0.47650  0.09460  Biso   1.000  C
  C40      1.0000 0.47650  0.17580  0.09460  Biso   1.000  C
  C41      1.0000 0.02180  0.66450  0.74860  Biso   1.000  C
  C42      1.0000 0.83550  0.02180  0.74860  Biso   1.000  C
  C43      1.0000 0.66450  0.47820  0.74860  Biso   1.000  C
  C44      1.0000 0.47820  0.83550  0.74860  Biso   1.000  C
  C45      1.0000 0.97820  0.33550  0.25140  Biso   1.000  C
  C46      1.0000 0.16450  0.97820  0.25140  Biso   1.000  C
  C47      1.0000 0.33550  0.52180  0.25140  Biso   1.000  C
  C48      1.0000 0.52180  0.16450  0.25140  Biso   1.000  C
  H33      1.0000 0.04660  0.68950  0.71540  Biso   1.000  H
  H34      1.0000 0.81050  0.04660  0.71540  Biso   1.000  H
  H35      1.0000 0.68950  0.45340  0.71540  Biso   1.000  H
  H36      1.0000 0.45340  0.81050  0.71540  Biso   1.000  H
  H37      1.0000 0.95340  0.31050  0.28460  Biso   1.000  H
  H38      1.0000 0.18950  0.95340  0.28460  Biso   1.000  H
  H39      1.0000 0.31050  0.54660  0.28460  Biso   1.000  H
  H40      1.0000 0.54660  0.18950  0.28460  Biso   1.000  H
  H41      1.0000 0.98450  0.67020  0.72460  Biso   1.000  H
  H42      1.0000 0.82980  0.98450  0.72460  Biso   1.000  H
  H43      1.0000 0.67020  0.51550  0.72460  Biso   1.000  H
  H44      1.0000 0.51550  0.82980  0.72460  Biso   1.000  H
  H45      1.0000 0.01550  0.32980  0.27540  Biso   1.000  H
  H46      1.0000 0.17020  0.01550  0.27540  Biso   1.000  H
  H47      1.0000 0.32980  0.48450  0.27540  Biso   1.000  H
  H48      1.0000 0.48450  0.17020  0.27540  Biso   1.000  H
  C49      1.0000 0.90320  0.40870  0.29370  Biso   1.000  C
  C50      1.0000 0.09130  0.90320  0.29370  Biso   1.000  C
  C51      1.0000 0.40870  0.59680  0.29370  Biso   1.000  C
  C52      1.0000 0.59680  0.09130  0.29370  Biso   1.000  C
  C53      1.0000 0.09680  0.59130  0.70630  Biso   1.000  C
  C54      1.0000 0.90870  0.09680  0.70630  Biso   1.000  C
  C55      1.0000 0.59130  0.40320  0.70630  Biso   1.000  C
  C56      1.0000 0.40320  0.90870  0.70630  Biso   1.000  C
  H49      1.0000 0.88800  0.38450  0.34180  Biso   1.000  H
  H50      1.0000 0.11550  0.88800  0.34180  Biso   1.000  H
  H51      1.0000 0.38450  0.61200  0.34180  Biso   1.000  H
  H52      1.0000 0.61200  0.11550  0.34180  Biso   1.000  H
  H53      1.0000 0.11200  0.61550  0.65820  Biso   1.000  H
  H54      1.0000 0.88450  0.11200  0.65820  Biso   1.000  H
  H55      1.0000 0.61550  0.38800  0.65820  Biso   1.000  H
  H56      1.0000 0.38800  0.88450  0.65820  Biso   1.000  H
  C57      1.0000 0.90880  0.47030  0.32940  Biso   1.000  C
  C58      1.0000 0.02970  0.90880  0.32940  Biso   1.000  C
  C59      1.0000 0.47030  0.59120  0.32940  Biso   1.000  C
  C60      1.0000 0.59120  0.02970  0.32940  Biso   1.000  C
  C61      1.0000 0.09120  0.52970  0.67060  Biso   1.000  C
  C62      1.0000 0.97030  0.09120  0.67060  Biso   1.000  C
  C63      1.0000 0.52970  0.40880  0.67060  Biso   1.000  C
  C64      1.0000 0.40880  0.97030  0.67060  Biso   1.000  C
  H57      1.0000 0.89220  0.47510  0.39090  Biso   1.000  H
  H58      1.0000 0.02490  0.89220  0.39090  Biso   1.000  H
  H59      1.0000 0.47510  0.60780  0.39090  Biso   1.000  H
  H60      1.0000 0.60780  0.02490  0.39090  Biso   1.000  H
  H61      1.0000 0.10780  0.52490  0.60910  Biso   1.000  H
  H62      1.0000 0.97510  0.10780  0.60910  Biso   1.000  H
  H63      1.0000 0.52490  0.39220  0.60910  Biso   1.000  H
  H64      1.0000 0.39220  0.97510  0.60910  Biso   1.000  H
  C65      1.0000 0.95420  0.61740  0.28680  Biso   1.000  C
  C66      1.0000 0.88260  0.95420  0.28680  Biso   1.000  C
  C67      1.0000 0.61740  0.54580  0.28680  Biso   1.000  C
  C68      1.0000 0.54580  0.88260  0.28680  Biso   1.000  C
  C69      1.0000 0.04580  0.38260  0.71320  Biso   1.000  C
  C70      1.0000 0.11740  0.04580  0.71320  Biso   1.000  C
  C71      1.0000 0.38260  0.45420  0.71320  Biso   1.000  C
  C72      1.0000 0.45420  0.11740  0.71320  Biso   1.000  C
  H65      1.0000 0.94350  0.63270  0.34710  Biso   1.000  H
  H66      1.0000 0.86730  0.94350  0.34710  Biso   1.000  H
  H67      1.0000 0.63270  0.55650  0.34710  Biso   1.000  H
  H68      1.0000 0.55650  0.86730  0.34710  Biso   1.000  H
  H69      1.0000 0.05650  0.36730  0.65290  Biso   1.000  H
  H70      1.0000 0.13270  0.05650  0.65290  Biso   1.000  H
  H71      1.0000 0.36730  0.44350  0.65290  Biso   1.000  H
  H72      1.0000 0.44350  0.13270  0.65290  Biso   1.000  H
  C73      1.0000 0.98210  0.66250  0.22210  Biso   1.000  C
  C74      1.0000 0.83750  0.98210  0.22210  Biso   1.000  C
  C75      1.0000 0.66250  0.51790  0.22210  Biso   1.000  C
  C76      1.0000 0.51790  0.83750  0.22210  Biso   1.000  C
  C77      1.0000 0.01790  0.33750  0.77790  Biso   1.000  C
  C78      1.0000 0.16250  0.01790  0.77790  Biso   1.000  C
  C79      1.0000 0.33750  0.48210  0.77790  Biso   1.000  C
  C80      1.0000 0.48210  0.16250  0.77790  Biso   1.000  C
  H73      1.0000 0.98350  0.69870  0.25210  Biso   1.000  H
  H74      1.0000 0.80130  0.98350  0.25210  Biso   1.000  H
  H75      1.0000 0.69870  0.51650  0.25210  Biso   1.000  H
  H76      1.0000 0.51650  0.80130  0.25210  Biso   1.000  H
  H77      1.0000 0.01650  0.30130  0.74790  Biso   1.000  H
  H78      1.0000 0.19870  0.01650  0.74790  Biso   1.000  H
  H79      1.0000 0.30130  0.48350  0.74790  Biso   1.000  H
  H80      1.0000 0.48350  0.19870  0.74790  Biso   1.000  H
  C81      1.0000 0.05040  0.70970  0.99910  Biso   1.000  C
  C82      1.0000 0.79030  0.05040  0.99910  Biso   1.000  C
  C83      1.0000 0.70970  0.44960  0.99910  Biso   1.000  C
  C84      1.0000 0.44960  0.79030  0.99910  Biso   1.000  C
  C85      1.0000 0.94960  0.29030  0.00090  Biso   1.000  C
  C86      1.0000 0.20970  0.94960  0.00090  Biso   1.000  C
  C87      1.0000 0.29030  0.55040  0.00090  Biso   1.000  C
  C88      1.0000 0.55040  0.20970  0.00090  Biso   1.000  C
  H81      1.0000 0.05590  0.74850  0.01630  Biso   1.000  H
  H82      1.0000 0.75150  0.05590  0.01630  Biso   1.000  H
  H83      1.0000 0.74850  0.44410  0.01630  Biso   1.000  H
  H84      1.0000 0.44410  0.75150  0.01630  Biso   1.000  H
  H85      1.0000 0.94410  0.25150  0.98370  Biso   1.000  H
  H86      1.0000 0.24850  0.94410  0.98370  Biso   1.000  H
  H87      1.0000 0.25150  0.55590  0.98370  Biso   1.000  H
  H88      1.0000 0.55590  0.24850  0.98370  Biso   1.000  H
  C89      1.0000 0.07240  0.69750  0.90020  Biso   1.000  C
  C90      1.0000 0.80250  0.07240  0.90020  Biso   1.000  C
  C91      1.0000 0.69750  0.42760  0.90020  Biso   1.000  C
  C92      1.0000 0.42760  0.80250  0.90020  Biso   1.000  C
  C93      1.0000 0.92760  0.30250  0.09980  Biso   1.000  C
  C94      1.0000 0.19750  0.92760  0.09980  Biso   1.000  C
  C95      1.0000 0.30250  0.57240  0.09980  Biso   1.000  C
  C96      1.0000 0.57240  0.19750  0.09980  Biso   1.000  C
  H89      1.0000 0.08840  0.73040  0.87160  Biso   1.000  H
  H90      1.0000 0.76960  0.08840  0.87160  Biso   1.000  H
  H91      1.0000 0.73040  0.41160  0.87160  Biso   1.000  H
  H92      1.0000 0.41160  0.76960  0.87160  Biso   1.000  H
  H93      1.0000 0.91160  0.26960  0.12840  Biso   1.000  H
  H94      1.0000 0.23040  0.91160  0.12840  Biso   1.000  H
  H95      1.0000 0.26960  0.58840  0.12840  Biso   1.000  H
  H96      1.0000 0.58840  0.23040  0.12840  Biso   1.000  H
  C97      1.0000 0.00270  0.56590  0.70420  Biso   1.000  C
  C98      1.0000 0.93410  0.00270  0.70420  Biso   1.000  C
  C99      1.0000 0.56590  0.49730  0.70420  Biso   1.000  C
  C100     1.0000 0.49730  0.93410  0.70420  Biso   1.000  C
  C101     1.0000 0.99730  0.43410  0.29580  Biso   1.000  C
  C102     1.0000 0.06590  0.99730  0.29580  Biso   1.000  C
  C103     1.0000 0.43410  0.50270  0.29580  Biso   1.000  C
  C104     1.0000 0.50270  0.06590  0.29580  Biso   1.000  C
  C105     1.0000 0.99570  0.52960  0.36450  Biso   1.000  C
  C106     1.0000 0.97040  0.99570  0.36450  Biso   1.000  C
  C107     1.0000 0.52960  0.50430  0.36450  Biso   1.000  C
  C108     1.0000 0.50430  0.97040  0.36450  Biso   1.000  C
  C109     1.0000 0.00430  0.47040  0.63550  Biso   1.000  C
  C110     1.0000 0.02960  0.00430  0.63550  Biso   1.000  C
  C111     1.0000 0.47040  0.49570  0.63550  Biso   1.000  C
  C112     1.0000 0.49570  0.02960  0.63550  Biso   1.000  C
  H97      1.0000 0.03360  0.52030  0.38230  Biso   1.000  H
  H98      1.0000 0.97970  0.03360  0.38230  Biso   1.000  H
  H99      1.0000 0.52030  0.46640  0.38230  Biso   1.000  H
  H100     1.0000 0.46640  0.97970  0.38230  Biso   1.000  H
  H101     1.0000 0.96640  0.47970  0.61770  Biso   1.000  H
  H102     1.0000 0.02030  0.96640  0.61770  Biso   1.000  H
  H103     1.0000 0.47970  0.53360  0.61770  Biso   1.000  H
  H104     1.0000 0.53360  0.02030  0.61770  Biso   1.000  H
  H105     1.0000 0.97660  0.54260  0.42030  Biso   1.000  H
  H106     1.0000 0.95740  0.97660  0.42030  Biso   1.000  H
  H107     1.0000 0.54260  0.52340  0.42030  Biso   1.000  H
  H108     1.0000 0.52340  0.95740  0.42030  Biso   1.000  H
  H109     1.0000 0.02340  0.45740  0.57970  Biso   1.000  H
  H110     1.0000 0.04260  0.02340  0.57970  Biso   1.000  H
  H111     1.0000 0.45740  0.47660  0.57970  Biso   1.000  H
  H112     1.0000 0.47660  0.04260  0.57970  Biso   1.000  H
  C113     1.0000 0.04650  0.58920  0.24830  Biso   1.000  C
  C114     1.0000 0.91080  0.04650  0.24830  Biso   1.000  C
  C115     1.0000 0.58920  0.45350  0.24830  Biso   1.000  C
  C116     1.0000 0.45350  0.91080  0.24830  Biso   1.000  C
  C117     1.0000 0.95350  0.41080  0.75170  Biso   1.000  C
  C118     1.0000 0.08920  0.95350  0.75170  Biso   1.000  C
  C119     1.0000 0.41080  0.54650  0.75170  Biso   1.000  C
  C120     1.0000 0.54650  0.08920  0.75170  Biso   1.000  C
  C121     1.0000 0.08390  0.67320  0.16060  Biso   1.000  C
  C122     1.0000 0.82680  0.08390  0.16060  Biso   1.000  C
  C123     1.0000 0.67320  0.41610  0.16060  Biso   1.000  C
  C124     1.0000 0.41610  0.82680  0.16060  Biso   1.000  C
  C125     1.0000 0.91610  0.32680  0.83940  Biso   1.000  C
  C126     1.0000 0.17320  0.91610  0.83940  Biso   1.000  C
  C127     1.0000 0.32680  0.58390  0.83940  Biso   1.000  C
  C128     1.0000 0.58390  0.17320  0.83940  Biso   1.000  C
  H113     1.0000 0.08080  0.71170  0.18070  Biso   1.000  H
  H114     1.0000 0.78830  0.08080  0.18070  Biso   1.000  H
  H115     1.0000 0.71170  0.41920  0.18070  Biso   1.000  H
  H116     1.0000 0.41920  0.78830  0.18070  Biso   1.000  H
  H117     1.0000 0.91920  0.28830  0.81930  Biso   1.000  H
  H118     1.0000 0.21170  0.91920  0.81930  Biso   1.000  H
  H119     1.0000 0.28830  0.58080  0.81930  Biso   1.000  H
  H120     1.0000 0.58080  0.21170  0.81930  Biso   1.000  H
  H121     1.0000 0.11930  0.65890  0.18310  Biso   1.000  H
  H122     1.0000 0.84110  0.11930  0.18310  Biso   1.000  H
  H123     1.0000 0.65890  0.38070  0.18310  Biso   1.000  H
  H124     1.0000 0.38070  0.84110  0.18310  Biso   1.000  H
  H125     1.0000 0.88070  0.34110  0.81690  Biso   1.000  H
  H126     1.0000 0.15890  0.88070  0.81690  Biso   1.000  H
  H127     1.0000 0.34110  0.61930  0.81690  Biso   1.000  H
  H128     1.0000 0.61930  0.15890  0.81690  Biso   1.000  H
  C129     1.0000 0.12190  0.64140  0.00840  Biso   1.000  C
  C130     1.0000 0.85860  0.12190  0.00840  Biso   1.000  C
  C131     1.0000 0.64140  0.37810  0.00840  Biso   1.000  C
  C132     1.0000 0.37810  0.85860  0.00840  Biso   1.000  C
  C133     1.0000 0.87810  0.35860  0.99160  Biso   1.000  C
  C134     1.0000 0.14140  0.87810  0.99160  Biso   1.000  C
  C135     1.0000 0.35860  0.62190  0.99160  Biso   1.000  C
  C136     1.0000 0.62190  0.14140  0.99160  Biso   1.000  C
  C137     1.0000 0.84620  0.36630  0.15730  Biso   1.000  C
  C138     1.0000 0.13370  0.84620  0.15730  Biso   1.000  C
  C139     1.0000 0.36630  0.65380  0.15730  Biso   1.000  C
  C140     1.0000 0.65380  0.13370  0.15730  Biso   1.000  C
  C141     1.0000 0.15380  0.63370  0.84270  Biso   1.000  C
  C142     1.0000 0.86630  0.15380  0.84270  Biso   1.000  C
  C143     1.0000 0.63370  0.34620  0.84270  Biso   1.000  C
  C144     1.0000 0.34620  0.86630  0.84270  Biso   1.000  C
  H129     1.0000 0.83780  0.33570  0.19940  Biso   1.000  H
  H130     1.0000 0.16430  0.83780  0.19940  Biso   1.000  H
  H131     1.0000 0.33570  0.66220  0.19940  Biso   1.000  H
  H132     1.0000 0.66220  0.16430  0.19940  Biso   1.000  H
  H133     1.0000 0.16220  0.66430  0.80060  Biso   1.000  H
  H134     1.0000 0.83570  0.16220  0.80060  Biso   1.000  H
  H135     1.0000 0.66430  0.33780  0.80060  Biso   1.000  H
  H136     1.0000 0.33780  0.83570  0.80060  Biso   1.000  H
  H137     1.0000 0.81170  0.37700  0.12680  Biso   1.000  H
  H138     1.0000 0.12300  0.81170  0.12680  Biso   1.000  H
  H139     1.0000 0.37700  0.68830  0.12680  Biso   1.000  H
  H140     1.0000 0.68830  0.12300  0.12680  Biso   1.000  H
  H141     1.0000 0.18830  0.62300  0.87320  Biso   1.000  H
  H142     1.0000 0.87700  0.18830  0.87320  Biso   1.000  H
  H143     1.0000 0.62300  0.31170  0.87320  Biso   1.000  H
  H144     1.0000 0.31170  0.87700  0.87320  Biso   1.000  H
  O49      1.0000 0.25000  0.25000  0.46340  Biso   1.000  O
  O50      1.0000 0.75000  0.75000  0.53660  Biso   1.000  O
  O51      1.0000 0.09780  0.79160  0.72100  Biso   1.000  O
  O52      1.0000 0.70840  0.09780  0.72100  Biso   1.000  O
  O53      1.0000 0.79160  0.40220  0.72100  Biso   1.000  O
  O54      1.0000 0.40220  0.70840  0.72100  Biso   1.000  O
  O55      1.0000 0.90220  0.20840  0.27900  Biso   1.000  O
  O56      1.0000 0.29160  0.90220  0.27900  Biso   1.000  O
  O57      1.0000 0.20840  0.59780  0.27900  Biso   1.000  O
  O58      1.0000 0.59780  0.29160  0.27900  Biso   1.000  O
  O59      1.0000 0.83030  0.45410  0.55000  Biso   1.000  O
  O60      1.0000 0.04590  0.83030  0.55000  Biso   1.000  O
  O61      1.0000 0.45410  0.66970  0.55000  Biso   1.000  O
  O62      1.0000 0.66970  0.04590  0.55000  Biso   1.000  O
  O63      1.0000 0.16970  0.54590  0.45000  Biso   1.000  O
  O64      1.0000 0.95410  0.16970  0.45000  Biso   1.000  O
  O65      1.0000 0.54590  0.33030  0.45000  Biso   1.000  O
  O66      1.0000 0.33030  0.95410  0.45000  Biso   1.000  O
  O67      1.0000 0.05600  0.68700  0.48600  Biso   1.000  O
  O68      1.0000 0.81300  0.05600  0.48600  Biso   1.000  O
  O69      1.0000 0.68700  0.44400  0.48600  Biso   1.000  O
  O70      1.0000 0.44400  0.81300  0.48600  Biso   1.000  O
  O71      1.0000 0.94400  0.31300  0.51400  Biso   1.000  O
  O72      1.0000 0.18700  0.94400  0.51400  Biso   1.000  O
  O73      1.0000 0.31300  0.55600  0.51400  Biso   1.000  O
  O74      1.0000 0.55600  0.18700  0.51400  Biso   1.000  O
  O75      1.0000 0.83260  0.65990  0.47530  Biso   1.000  O
  O76      1.0000 0.84010  0.83260  0.47530  Biso   1.000  O
  O77      1.0000 0.65990  0.66740  0.47530  Biso   1.000  O
  O78      1.0000 0.66740  0.84010  0.47530  Biso   1.000  O
  O79      1.0000 0.16740  0.34010  0.52470  Biso   1.000  O
  O80      1.0000 0.15990  0.16740  0.52470  Biso   1.000  O
  O81      1.0000 0.34010  0.33260  0.52470  Biso   1.000  O
  O82      1.0000 0.33260  0.15990  0.52470  Biso   1.000  O
  O83      1.0000 0.88650  0.55840  0.53460  Biso   1.000  O
  O84      1.0000 0.94160  0.88650  0.53460  Biso   1.000  O
  O85      1.0000 0.55840  0.61350  0.53460  Biso   1.000  O
  O86      1.0000 0.61350  0.94160  0.53460  Biso   1.000  O
  O87      1.0000 0.11350  0.44160  0.46540  Biso   1.000  O
  O88      1.0000 0.05840  0.11350  0.46540  Biso   1.000  O
  O89      1.0000 0.44160  0.38650  0.46540  Biso   1.000  O
  O90      1.0000 0.38650  0.05840  0.46540  Biso   1.000  O
  O91      1.0000 0.83990  0.75330  0.19900  Biso   1.000  O
  O92      1.0000 0.74670  0.83990  0.19900  Biso   1.000  O
  O93      1.0000 0.75330  0.66010  0.19900  Biso   1.000  O
  O94      1.0000 0.66010  0.74670  0.19900  Biso   1.000  O
  O95      1.0000 0.16010  0.24670  0.80100  Biso   1.000  O
  O96      1.0000 0.25330  0.16010  0.80100  Biso   1.000  O
  O97      1.0000 0.24670  0.33990  0.80100  Biso   1.000  O
  O98      1.0000 0.33990  0.25330  0.80100  Biso   1.000  O
  O99      1.0000 0.87630  0.73820  0.33200  Biso   1.000  O
  O100     1.0000 0.76180  0.87630  0.33200  Biso   1.000  O
  O101     1.0000 0.73820  0.62370  0.33200  Biso   1.000  O
  O102     1.0000 0.62370  0.76180  0.33200  Biso   1.000  O
  O103     1.0000 0.12370  0.26180  0.66800  Biso   1.000  O
  O104     1.0000 0.23820  0.12370  0.66800  Biso   1.000  O
  O105     1.0000 0.26180  0.37630  0.66800  Biso   1.000  O
  O106     1.0000 0.37630  0.23820  0.66800  Biso   1.000  O
  O107     1.0000 0.25000  0.75000  0.00000  Biso   1.000  O
  O108     1.0000 0.75000  0.25000  0.00000  Biso   1.000  O
  O109     1.0000 0.05600  0.76640  0.36600  Biso   1.000  O
  O110     1.0000 0.73360  0.05600  0.36600  Biso   1.000  O
  O111     1.0000 0.76640  0.44400  0.36600  Biso   1.000  O
  O112     1.0000 0.44400  0.73360  0.36600  Biso   1.000  O
  O113     1.0000 0.94400  0.23360  0.63400  Biso   1.000  O
  O114     1.0000 0.26640  0.94400  0.63400  Biso   1.000  O
  O115     1.0000 0.23360  0.55600  0.63400  Biso   1.000  O
  O116     1.0000 0.55600  0.26640  0.63400  Biso   1.000  O
  O117     1.0000 0.23040  0.69950  0.16100  Biso   1.000  O
  O118     1.0000 0.80050  0.23040  0.16100  Biso   1.000  O
  O119     1.0000 0.69950  0.26960  0.16100  Biso   1.000  O
  O120     1.0000 0.26960  0.80050  0.16100  Biso   1.000  O
  O121     1.0000 0.76960  0.30050  0.83900  Biso   1.000  O
  O122     1.0000 0.19950  0.76960  0.83900  Biso   1.000  O
  O123     1.0000 0.30050  0.73040  0.83900  Biso   1.000  O
  O124     1.0000 0.73040  0.19950  0.83900  Biso   1.000  O
  Cu1      1.0000 0.25000  0.25000  0.21088  Biso   1.000  Cu
  Cu2      1.0000 0.75000  0.75000  0.78912  Biso   1.000  Cu
  N97      1.0000 0.10510  0.45470  0.11370  Biso   1.000  N
  N98      1.0000 0.04530  0.10510  0.11370  Biso   1.000  N
  N99      1.0000 0.45470  0.39490  0.11370  Biso   1.000  N
  N100     1.0000 0.39490  0.04530  0.11370  Biso   1.000  N
  N101     1.0000 0.89490  0.54530  0.88630  Biso   1.000  N
  N102     1.0000 0.95470  0.89490  0.88630  Biso   1.000  N
  N103     1.0000 0.54530  0.60510  0.88630  Biso   1.000  N
  N104     1.0000 0.60510  0.95470  0.88630  Biso   1.000  N
  H145     1.0000 0.09300  0.41620  0.11100  Biso   1.000  H
  H146     1.0000 0.08380  0.09300  0.11100  Biso   1.000  H
  H147     1.0000 0.41620  0.40700  0.11100  Biso   1.000  H
  H148     1.0000 0.40700  0.08380  0.11100  Biso   1.000  H
  H149     1.0000 0.90700  0.58380  0.88900  Biso   1.000  H
  H150     1.0000 0.91620  0.90700  0.88900  Biso   1.000  H
  H151     1.0000 0.58380  0.59300  0.88900  Biso   1.000  H
  H152     1.0000 0.59300  0.91620  0.88900  Biso   1.000  H
  H153     1.0000 0.09450  0.46960  0.17440  Biso   1.000  H
  H154     1.0000 0.03040  0.09450  0.17440  Biso   1.000  H
  H155     1.0000 0.46960  0.40550  0.17440  Biso   1.000  H
  H156     1.0000 0.40550  0.03040  0.17440  Biso   1.000  H
  H157     1.0000 0.90550  0.53040  0.82560  Biso   1.000  H
  H158     1.0000 0.96960  0.90550  0.82560  Biso   1.000  H
  H159     1.0000 0.53040  0.59450  0.82560  Biso   1.000  H
  H160     1.0000 0.59450  0.96960  0.82560  Biso   1.000  H
  N105     1.0000 0.23650  0.33430  0.22920  Biso   1.000  N
  N106     1.0000 0.16570  0.23650  0.22920  Biso   1.000  N
  N107     1.0000 0.33430  0.26350  0.22920  Biso   1.000  N
  N108     1.0000 0.26350  0.16570  0.22920  Biso   1.000  N
  N109     1.0000 0.76350  0.66570  0.77080  Biso   1.000  N
  N110     1.0000 0.83430  0.76350  0.77080  Biso   1.000  N
  N111     1.0000 0.66570  0.73650  0.77080  Biso   1.000  N
  N112     1.0000 0.73650  0.83430  0.77080  Biso   1.000  N
  C145     1.0000 0.01370  0.48330  0.03880  Biso   1.000  C
  C146     1.0000 0.01670  0.01370  0.03880  Biso   1.000  C
  C147     1.0000 0.48330  0.48630  0.03880  Biso   1.000  C
  C148     1.0000 0.48630  0.01670  0.03880  Biso   1.000  C
  C149     1.0000 0.98630  0.51670  0.96120  Biso   1.000  C
  C150     1.0000 0.98330  0.98630  0.96120  Biso   1.000  C
  C151     1.0000 0.51670  0.51370  0.96120  Biso   1.000  C
  C152     1.0000 0.51370  0.98330  0.96120  Biso   1.000  C
  H161     1.0000 0.00000  0.49660  0.09880  Biso   1.000  H
  H162     1.0000 0.00340  0.00000  0.09880  Biso   1.000  H
  H163     1.0000 0.49660  0.50000  0.09880  Biso   1.000  H
  H164     1.0000 0.50000  0.00340  0.09880  Biso   1.000  H
  H165     1.0000 0.00000  0.50340  0.90120  Biso   1.000  H
  H166     1.0000 0.99660  0.00000  0.90120  Biso   1.000  H
  H167     1.0000 0.50340  0.50000  0.90120  Biso   1.000  H
  H168     1.0000 0.50000  0.99660  0.90120  Biso   1.000  H
  H169     1.0000 0.00300  0.44450  0.03260  Biso   1.000  H
  H170     1.0000 0.05550  0.00300  0.03260  Biso   1.000  H
  H171     1.0000 0.44450  0.49700  0.03260  Biso   1.000  H
  H172     1.0000 0.49700  0.05550  0.03260  Biso   1.000  H
  H173     1.0000 0.99700  0.55550  0.96740  Biso   1.000  H
  H174     1.0000 0.94450  0.99700  0.96740  Biso   1.000  H
  H175     1.0000 0.55550  0.50300  0.96740  Biso   1.000  H
  H176     1.0000 0.50300  0.94450  0.96740  Biso   1.000  H
  C153     1.0000 0.07650  0.48730  0.03780  Biso   1.000  C
  C154     1.0000 0.01270  0.07650  0.03780  Biso   1.000  C
  C155     1.0000 0.48730  0.42350  0.03780  Biso   1.000  C
  C156     1.0000 0.42350  0.01270  0.03780  Biso   1.000  C
  C157     1.0000 0.92350  0.51270  0.96220  Biso   1.000  C
  C158     1.0000 0.98730  0.92350  0.96220  Biso   1.000  C
  C159     1.0000 0.51270  0.57650  0.96220  Biso   1.000  C
  C160     1.0000 0.57650  0.98730  0.96220  Biso   1.000  C
  H177     1.0000 0.08990  0.47430  0.97760  Biso   1.000  H
  H178     1.0000 0.02570  0.08990  0.97760  Biso   1.000  H
  H179     1.0000 0.47430  0.41010  0.97760  Biso   1.000  H
  H180     1.0000 0.41010  0.02570  0.97760  Biso   1.000  H
  H181     1.0000 0.91010  0.52570  0.02240  Biso   1.000  H
  H182     1.0000 0.97430  0.91010  0.02240  Biso   1.000  H
  H183     1.0000 0.52570  0.58990  0.02240  Biso   1.000  H
  H184     1.0000 0.58990  0.97430  0.02240  Biso   1.000  H
  H185     1.0000 0.08690  0.52620  0.04380  Biso   1.000  H
  H186     1.0000 0.97380  0.08690  0.04380  Biso   1.000  H
  H187     1.0000 0.52620  0.41310  0.04380  Biso   1.000  H
  H188     1.0000 0.41310  0.97380  0.04380  Biso   1.000  H
  H189     1.0000 0.91310  0.47380  0.95620  Biso   1.000  H
  H190     1.0000 0.02620  0.91310  0.95620  Biso   1.000  H
  H191     1.0000 0.47380  0.58690  0.95620  Biso   1.000  H
  H192     1.0000 0.58690  0.02620  0.95620  Biso   1.000  H
  C161     1.0000 0.16810  0.45730  0.10360  Biso   1.000  C
  C162     1.0000 0.04270  0.16810  0.10360  Biso   1.000  C
  C163     1.0000 0.45730  0.33190  0.10360  Biso   1.000  C
  C164     1.0000 0.33190  0.04270  0.10360  Biso   1.000  C
  C165     1.0000 0.83190  0.54270  0.89640  Biso   1.000  C
  C166     1.0000 0.95730  0.83190  0.89640  Biso   1.000  C
  C167     1.0000 0.54270  0.66810  0.89640  Biso   1.000  C
  C168     1.0000 0.66810  0.95730  0.89640  Biso   1.000  C
  H193     1.0000 0.18040  0.49570  0.10820  Biso   1.000  H
  H194     1.0000 0.00430  0.18040  0.10820  Biso   1.000  H
  H195     1.0000 0.49570  0.31960  0.10820  Biso   1.000  H
  H196     1.0000 0.31960  0.00430  0.10820  Biso   1.000  H
  H197     1.0000 0.81960  0.50430  0.89180  Biso   1.000  H
  H198     1.0000 0.99570  0.81960  0.89180  Biso   1.000  H
  H199     1.0000 0.50430  0.68040  0.89180  Biso   1.000  H
  H200     1.0000 0.68040  0.99570  0.89180  Biso   1.000  H
  H201     1.0000 0.17880  0.44320  0.04240  Biso   1.000  H
  H202     1.0000 0.05680  0.17880  0.04240  Biso   1.000  H
  H203     1.0000 0.44320  0.32120  0.04240  Biso   1.000  H
  H204     1.0000 0.32120  0.05680  0.04240  Biso   1.000  H
  H205     1.0000 0.82120  0.55680  0.95760  Biso   1.000  H
  H206     1.0000 0.94320  0.82120  0.95760  Biso   1.000  H
  H207     1.0000 0.55680  0.67880  0.95760  Biso   1.000  H
  H208     1.0000 0.67880  0.94320  0.95760  Biso   1.000  H
  C169     1.0000 0.19660  0.42230  0.18040  Biso   1.000  C
  C170     1.0000 0.07770  0.19660  0.18040  Biso   1.000  C
  C171     1.0000 0.42230  0.30340  0.18040  Biso   1.000  C
  C172     1.0000 0.30340  0.07770  0.18040  Biso   1.000  C
  C173     1.0000 0.80340  0.57770  0.81960  Biso   1.000  C
  C174     1.0000 0.92230  0.80340  0.81960  Biso   1.000  C
  C175     1.0000 0.57770  0.69660  0.81960  Biso   1.000  C
  C176     1.0000 0.69660  0.92230  0.81960  Biso   1.000  C
  C177     1.0000 0.20930  0.36570  0.16640  Biso   1.000  C
  C178     1.0000 0.13430  0.20930  0.16640  Biso   1.000  C
  C179     1.0000 0.36570  0.29070  0.16640  Biso   1.000  C
  C180     1.0000 0.29070  0.13430  0.16640  Biso   1.000  C
  C181     1.0000 0.79070  0.63430  0.83360  Biso   1.000  C
  C182     1.0000 0.86570  0.79070  0.83360  Biso   1.000  C
  C183     1.0000 0.63430  0.70930  0.83360  Biso   1.000  C
  C184     1.0000 0.70930  0.86570  0.83360  Biso   1.000  C
  H209     1.0000 0.19780  0.34840  0.10800  Biso   1.000  H
  H210     1.0000 0.15160  0.19780  0.10800  Biso   1.000  H
  H211     1.0000 0.34840  0.30220  0.10800  Biso   1.000  H
  H212     1.0000 0.30220  0.15160  0.10800  Biso   1.000  H
  H213     1.0000 0.80220  0.65160  0.89200  Biso   1.000  H
  H214     1.0000 0.84840  0.80220  0.89200  Biso   1.000  H
  H215     1.0000 0.65160  0.69780  0.89200  Biso   1.000  H
  H216     1.0000 0.69780  0.84840  0.89200  Biso   1.000  H
  C185     1.0000 0.25170  0.35840  0.30790  Biso   1.000  C
  C186     1.0000 0.14160  0.25170  0.30790  Biso   1.000  C
  C187     1.0000 0.35840  0.24830  0.30790  Biso   1.000  C
  C188     1.0000 0.24830  0.14160  0.30790  Biso   1.000  C
  C189     1.0000 0.74830  0.64160  0.69210  Biso   1.000  C
  C190     1.0000 0.85840  0.74830  0.69210  Biso   1.000  C
  C191     1.0000 0.64160  0.75170  0.69210  Biso   1.000  C
  C192     1.0000 0.75170  0.85840  0.69210  Biso   1.000  C
  H217     1.0000 0.27220  0.33610  0.35290  Biso   1.000  H
  H218     1.0000 0.16390  0.27220  0.35290  Biso   1.000  H
  H219     1.0000 0.33610  0.22780  0.35290  Biso   1.000  H
  H220     1.0000 0.22780  0.16390  0.35290  Biso   1.000  H
  H221     1.0000 0.72780  0.66390  0.64710  Biso   1.000  H
  H222     1.0000 0.83610  0.72780  0.64710  Biso   1.000  H
  H223     1.0000 0.66390  0.77220  0.64710  Biso   1.000  H
  H224     1.0000 0.77220  0.83610  0.64710  Biso   1.000  H
  C193     1.0000 0.24000  0.41540  0.33190  Biso   1.000  C
  C194     1.0000 0.08460  0.24000  0.33190  Biso   1.000  C
  C195     1.0000 0.41540  0.26000  0.33190  Biso   1.000  C
  C196     1.0000 0.26000  0.08460  0.33190  Biso   1.000  C
  C197     1.0000 0.76000  0.58460  0.66810  Biso   1.000  C
  C198     1.0000 0.91540  0.76000  0.66810  Biso   1.000  C
  C199     1.0000 0.58460  0.74000  0.66810  Biso   1.000  C
  C200     1.0000 0.74000  0.91540  0.66810  Biso   1.000  C
  H225     1.0000 0.25130  0.43140  0.39130  Biso   1.000  H
  H226     1.0000 0.06860  0.25130  0.39130  Biso   1.000  H
  H227     1.0000 0.43140  0.24870  0.39130  Biso   1.000  H
  H228     1.0000 0.24870  0.06860  0.39130  Biso   1.000  H
  H229     1.0000 0.74870  0.56860  0.60870  Biso   1.000  H
  H230     1.0000 0.93140  0.74870  0.60870  Biso   1.000  H
  H231     1.0000 0.56860  0.75130  0.60870  Biso   1.000  H
  H232     1.0000 0.75130  0.93140  0.60870  Biso   1.000  H
  C201     1.0000 0.21200  0.44550  0.26570  Biso   1.000  C
  C202     1.0000 0.05450  0.21200  0.26570  Biso   1.000  C
  C203     1.0000 0.44550  0.28800  0.26570  Biso   1.000  C
  C204     1.0000 0.28800  0.05450  0.26570  Biso   1.000  C
  C205     1.0000 0.78800  0.55450  0.73430  Biso   1.000  C
  C206     1.0000 0.94550  0.78800  0.73430  Biso   1.000  C
  C207     1.0000 0.55450  0.71200  0.73430  Biso   1.000  C
  C208     1.0000 0.71200  0.94550  0.73430  Biso   1.000  C
  H233     1.0000 0.20270  0.48410  0.27850  Biso   1.000  H
  H234     1.0000 0.01590  0.20270  0.27850  Biso   1.000  H
  H235     1.0000 0.48410  0.29730  0.27850  Biso   1.000  H
  H236     1.0000 0.29730  0.01590  0.27850  Biso   1.000  H
  H237     1.0000 0.79730  0.51590  0.72150  Biso   1.000  H
  H238     1.0000 0.98410  0.79730  0.72150  Biso   1.000  H
  H239     1.0000 0.51590  0.70270  0.72150  Biso   1.000  H
  H240     1.0000 0.70270  0.98410  0.72150  Biso   1.000  H
  O125     1.0000 0.25000  0.25000  0.05590  Biso   1.000  O
  O126     1.0000 0.75000  0.75000  0.94410  Biso   1.000  O
  O127     1.0000 0.30300  0.75860  0.04600  Biso   1.000  O
  O128     1.0000 0.74140  0.30300  0.04600  Biso   1.000  O
  O129     1.0000 0.75860  0.19700  0.04600  Biso   1.000  O
  O130     1.0000 0.19700  0.74140  0.04600  Biso   1.000  O
  O131     1.0000 0.69700  0.24140  0.95400  Biso   1.000  O
  O132     1.0000 0.25860  0.69700  0.95400  Biso   1.000  O
  O133     1.0000 0.24140  0.80300  0.95400  Biso   1.000  O
  O134     1.0000 0.80300  0.25860  0.95400  Biso   1.000  O
  O135     1.0000 0.89700  0.60900  0.52900  Biso   1.000  O
  O136     1.0000 0.89100  0.89700  0.52900  Biso   1.000  O
  O137     1.0000 0.60900  0.60300  0.52900  Biso   1.000  O
  O138     1.0000 0.60300  0.89100  0.52900  Biso   1.000  O
  O139     1.0000 0.10300  0.39100  0.47100  Biso   1.000  O
  O140     1.0000 0.10900  0.10300  0.47100  Biso   1.000  O
  O141     1.0000 0.39100  0.39700  0.47100  Biso   1.000  O
  O142     1.0000 0.39700  0.10900  0.47100  Biso   1.000  O
  O143     1.0000 0.03800  0.63400  0.50100  Biso   1.000  O
  O144     1.0000 0.86600  0.03800  0.50100  Biso   1.000  O
  O145     1.0000 0.63400  0.46200  0.50100  Biso   1.000  O
  O146     1.0000 0.46200  0.86600  0.50100  Biso   1.000  O
  O147     1.0000 0.96200  0.36600  0.49900  Biso   1.000  O
  O148     1.0000 0.13400  0.96200  0.49900  Biso   1.000  O
  O149     1.0000 0.36600  0.53800  0.49900  Biso   1.000  O
  O150     1.0000 0.53800  0.13400  0.49900  Biso   1.000  O
  O151     1.0000 0.99500  0.67100  0.51500  Biso   1.000  O
  O152     1.0000 0.82900  0.99500  0.51500  Biso   1.000  O
  O153     1.0000 0.67100  0.50500  0.51500  Biso   1.000  O
  O154     1.0000 0.50500  0.82900  0.51500  Biso   1.000  O
  O155     1.0000 0.00500  0.32900  0.48500  Biso   1.000  O
  O156     1.0000 0.17100  0.00500  0.48500  Biso   1.000  O
  O157     1.0000 0.32900  0.49500  0.48500  Biso   1.000  O
  O158     1.0000 0.49500  0.17100  0.48500  Biso   1.000  O
  O159     1.0000 0.82740  0.75800  0.08200  Biso   1.000  O
  O160     1.0000 0.74200  0.82740  0.08200  Biso   1.000  O
  O161     1.0000 0.75800  0.67260  0.08200  Biso   1.000  O
  O162     1.0000 0.67260  0.74200  0.08200  Biso   1.000  O
  O163     1.0000 0.17260  0.24200  0.91800  Biso   1.000  O
  O164     1.0000 0.25800  0.17260  0.91800  Biso   1.000  O
  O165     1.0000 0.24200  0.32740  0.91800  Biso   1.000  O
  O166     1.0000 0.32740  0.25800  0.91800  Biso   1.000  O
  O167     1.0000 0.87700  0.71800  0.37700  Biso   1.000  O
  O168     1.0000 0.78200  0.87700  0.37700  Biso   1.000  O
  O169     1.0000 0.71800  0.62300  0.37700  Biso   1.000  O
  O170     1.0000 0.62300  0.78200  0.37700  Biso   1.000  O
  O171     1.0000 0.12300  0.28200  0.62300  Biso   1.000  O
  O172     1.0000 0.21800  0.12300  0.62300  Biso   1.000  O
  O173     1.0000 0.28200  0.37700  0.62300  Biso   1.000  O
  O174     1.0000 0.37700  0.21800  0.62300  Biso   1.000  O
  O175     1.0000 0.04100  0.65900  0.44700  Biso   1.000  O
  O176     1.0000 0.84100  0.04100  0.44700  Biso   1.000  O
  O177     1.0000 0.65900  0.45900  0.44700  Biso   1.000  O
  O178     1.0000 0.45900  0.84100  0.44700  Biso   1.000  O
  O179     1.0000 0.95900  0.34100  0.55300  Biso   1.000  O
  O180     1.0000 0.15900  0.95900  0.55300  Biso   1.000  O
  O181     1.0000 0.34100  0.54100  0.55300  Biso   1.000  O
  O182     1.0000 0.54100  0.15900  0.55300  Biso   1.000  O
  O183     1.0000 0.99600  0.77800  0.42000  Biso   1.000  O
  O184     1.0000 0.72200  0.99600  0.42000  Biso   1.000  O
  O185     1.0000 0.77800  0.50400  0.42000  Biso   1.000  O
  O186     1.0000 0.50400  0.72200  0.42000  Biso   1.000  O
  O187     1.0000 0.00400  0.22200  0.58000  Biso   1.000  O
  O188     1.0000 0.27800  0.00400  0.58000  Biso   1.000  O
  O189     1.0000 0.22200  0.49600  0.58000  Biso   1.000  O
  O190     1.0000 0.49600  0.27800  0.58000  Biso   1.000  O
  O191     1.0000 0.21800  0.71200  0.26700  Biso   1.000  O
  O192     1.0000 0.78800  0.21800  0.26700  Biso   1.000  O
  O193     1.0000 0.71200  0.28200  0.26700  Biso   1.000  O
  O194     1.0000 0.28200  0.78800  0.26700  Biso   1.000  O
  O195     1.0000 0.78200  0.28800  0.73300  Biso   1.000  O
  O196     1.0000 0.21200  0.78200  0.73300  Biso   1.000  O
  O197     1.0000 0.28800  0.71800  0.73300  Biso   1.000  O
  O198     1.0000 0.71800  0.21200  0.73300  Biso   1.000  O
