data_image0
_cell_length_a       44.87
_cell_length_b       20.292
_cell_length_c       8.17
_cell_angle_alpha    90
_cell_angle_beta     90
_cell_angle_gamma    90

_symmetry_space_group_name_H-M    "P 1"
_symmetry_int_tables_number       1

loop_
  _symmetry_equiv_pos_as_xyz
  'x, y, z'

loop_
  _atom_site_label
  _atom_site_occupancy
  _atom_site_fract_x
  _atom_site_fract_y
  _atom_site_fract_z
  _atom_site_thermal_displace_type
  _atom_site_B_iso_or_equiv
  _atom_site_type_symbol
  Cu1      1.0000 0.62147  0.02549  0.51700  Biso   1.000  Cu
  Cu2      1.0000 0.37853  0.97451  0.51700  Biso   1.000  Cu
  Cu3      1.0000 0.87853  0.52549  0.51700  Biso   1.000  Cu
  Cu4      1.0000 0.12147  0.47451  0.51700  Biso   1.000  Cu
  Cu5      1.0000 0.62147  0.52549  0.01700  Biso   1.000  Cu
  Cu6      1.0000 0.37853  0.47451  0.01700  Biso   1.000  Cu
  Cu7      1.0000 0.87853  0.02549  0.01700  Biso   1.000  Cu
  Cu8      1.0000 0.12147  0.97451  0.01700  Biso   1.000  Cu
  Cl1      1.0000 0.55192  0.89690  0.06100  Biso   1.000  Cl
  Cl2      1.0000 0.44808  0.10310  0.06100  Biso   1.000  Cl
  Cl3      1.0000 0.94808  0.39690  0.06100  Biso   1.000  Cl
  Cl4      1.0000 0.05192  0.60310  0.06100  Biso   1.000  Cl
  Cl5      1.0000 0.55192  0.39690  0.56100  Biso   1.000  Cl
  Cl6      1.0000 0.44808  0.60310  0.56100  Biso   1.000  Cl
  Cl7      1.0000 0.94808  0.89690  0.56100  Biso   1.000  Cl
  Cl8      1.0000 0.05192  0.10310  0.56100  Biso   1.000  Cl
  P1       1.0000 0.67290  0.79020  0.24300  Biso   1.000  P
  P2       1.0000 0.32710  0.20980  0.24300  Biso   1.000  P
  P3       1.0000 0.82710  0.29020  0.24300  Biso   1.000  P
  P4       1.0000 0.17290  0.70980  0.24300  Biso   1.000  P
  P5       1.0000 0.67290  0.29020  0.74300  Biso   1.000  P
  P6       1.0000 0.32710  0.70980  0.74300  Biso   1.000  P
  P7       1.0000 0.82710  0.79020  0.74300  Biso   1.000  P
  P8       1.0000 0.17290  0.20980  0.74300  Biso   1.000  P
  F1       1.0000 0.69350  0.84660  0.18600  Biso   1.000  F
  F2       1.0000 0.30650  0.15340  0.18600  Biso   1.000  F
  F3       1.0000 0.80650  0.34660  0.18600  Biso   1.000  F
  F4       1.0000 0.19350  0.65340  0.18600  Biso   1.000  F
  F5       1.0000 0.69350  0.34660  0.68600  Biso   1.000  F
  F6       1.0000 0.30650  0.65340  0.68600  Biso   1.000  F
  F7       1.0000 0.80650  0.84660  0.68600  Biso   1.000  F
  F8       1.0000 0.19350  0.15340  0.68600  Biso   1.000  F
  F9       1.0000 0.65310  0.73160  0.30100  Biso   1.000  F
  F10      1.0000 0.34690  0.26840  0.30100  Biso   1.000  F
  F11      1.0000 0.84690  0.23160  0.30100  Biso   1.000  F
  F12      1.0000 0.15310  0.76840  0.30100  Biso   1.000  F
  F13      1.0000 0.65310  0.23160  0.80100  Biso   1.000  F
  F14      1.0000 0.34690  0.76840  0.80100  Biso   1.000  F
  F15      1.0000 0.84690  0.73160  0.80100  Biso   1.000  F
  F16      1.0000 0.15310  0.26840  0.80100  Biso   1.000  F
  F17      1.0000 0.70140  0.74990  0.27400  Biso   1.000  F
  F18      1.0000 0.29860  0.25010  0.27400  Biso   1.000  F
  F19      1.0000 0.79860  0.24990  0.27400  Biso   1.000  F
  F20      1.0000 0.20140  0.75010  0.27400  Biso   1.000  F
  F21      1.0000 0.70140  0.24990  0.77400  Biso   1.000  F
  F22      1.0000 0.29860  0.75010  0.77400  Biso   1.000  F
  F23      1.0000 0.79860  0.74990  0.77400  Biso   1.000  F
  F24      1.0000 0.20140  0.25010  0.77400  Biso   1.000  F
  F25      1.0000 0.64630  0.83440  0.20400  Biso   1.000  F
  F26      1.0000 0.35370  0.16560  0.20400  Biso   1.000  F
  F27      1.0000 0.85370  0.33440  0.20400  Biso   1.000  F
  F28      1.0000 0.14630  0.66560  0.20400  Biso   1.000  F
  F29      1.0000 0.64630  0.33440  0.70400  Biso   1.000  F
  F30      1.0000 0.35370  0.66560  0.70400  Biso   1.000  F
  F31      1.0000 0.85370  0.83440  0.70400  Biso   1.000  F
  F32      1.0000 0.14630  0.16560  0.70400  Biso   1.000  F
  F33      1.0000 0.67270  0.76190  0.07000  Biso   1.000  F
  F34      1.0000 0.32730  0.23810  0.07000  Biso   1.000  F
  F35      1.0000 0.82730  0.26190  0.07000  Biso   1.000  F
  F36      1.0000 0.17270  0.73810  0.07000  Biso   1.000  F
  F37      1.0000 0.67270  0.26190  0.57000  Biso   1.000  F
  F38      1.0000 0.32730  0.73810  0.57000  Biso   1.000  F
  F39      1.0000 0.82730  0.76190  0.57000  Biso   1.000  F
  F40      1.0000 0.17270  0.23810  0.57000  Biso   1.000  F
  F41      1.0000 0.67500  0.81720  0.41800  Biso   1.000  F
  F42      1.0000 0.32500  0.18280  0.41800  Biso   1.000  F
  F43      1.0000 0.82500  0.31720  0.41800  Biso   1.000  F
  F44      1.0000 0.17500  0.68280  0.41800  Biso   1.000  F
  F45      1.0000 0.67500  0.31720  0.91800  Biso   1.000  F
  F46      1.0000 0.32500  0.68280  0.91800  Biso   1.000  F
  F47      1.0000 0.82500  0.81720  0.91800  Biso   1.000  F
  F48      1.0000 0.17500  0.18280  0.91800  Biso   1.000  F
  O1       1.0000 0.55650  0.86140  0.91400  Biso   1.000  O
  O2       1.0000 0.44350  0.13860  0.91400  Biso   1.000  O
  O3       1.0000 0.94350  0.36140  0.91400  Biso   1.000  O
  O4       1.0000 0.05650  0.63860  0.91400  Biso   1.000  O
  O5       1.0000 0.55650  0.36140  0.41400  Biso   1.000  O
  O6       1.0000 0.44350  0.63860  0.41400  Biso   1.000  O
  O7       1.0000 0.94350  0.86140  0.41400  Biso   1.000  O
  O8       1.0000 0.05650  0.13860  0.41400  Biso   1.000  O
  O9       1.0000 0.57010  0.95430  0.04400  Biso   1.000  O
  O10      1.0000 0.42990  0.04570  0.04400  Biso   1.000  O
  O11      1.0000 0.92990  0.45430  0.04400  Biso   1.000  O
  O12      1.0000 0.07010  0.54570  0.04400  Biso   1.000  O
  O13      1.0000 0.57010  0.45430  0.54400  Biso   1.000  O
  O14      1.0000 0.42990  0.54570  0.54400  Biso   1.000  O
  O15      1.0000 0.92990  0.95430  0.54400  Biso   1.000  O
  O16      1.0000 0.07010  0.04570  0.54400  Biso   1.000  O
  O17      1.0000 0.56300  0.87090  0.20000  Biso   1.000  O
  O18      1.0000 0.43700  0.12910  0.20000  Biso   1.000  O
  O19      1.0000 0.93700  0.37090  0.20000  Biso   1.000  O
  O20      1.0000 0.06300  0.62910  0.20000  Biso   1.000  O
  O21      1.0000 0.56300  0.37090  0.70000  Biso   1.000  O
  O22      1.0000 0.43700  0.62910  0.70000  Biso   1.000  O
  O23      1.0000 0.93700  0.87090  0.70000  Biso   1.000  O
  O24      1.0000 0.06300  0.12910  0.70000  Biso   1.000  O
  O25      1.0000 0.52290  0.92440  0.05000  Biso   1.000  O
  O26      1.0000 0.47710  0.07560  0.05000  Biso   1.000  O
  O27      1.0000 0.97710  0.42440  0.05000  Biso   1.000  O
  O28      1.0000 0.02290  0.57560  0.05000  Biso   1.000  O
  O29      1.0000 0.52290  0.42440  0.55000  Biso   1.000  O
  O30      1.0000 0.47710  0.57560  0.55000  Biso   1.000  O
  O31      1.0000 0.97710  0.92440  0.55000  Biso   1.000  O
  O32      1.0000 0.02290  0.07560  0.55000  Biso   1.000  O
  O33      1.0000 0.62311  0.06760  0.79100  Biso   1.000  O
  O34      1.0000 0.37689  0.93240  0.79100  Biso   1.000  O
  O35      1.0000 0.87689  0.56760  0.79100  Biso   1.000  O
  O36      1.0000 0.12311  0.43240  0.79100  Biso   1.000  O
  O37      1.0000 0.62311  0.56760  0.29100  Biso   1.000  O
  O38      1.0000 0.37689  0.43240  0.29100  Biso   1.000  O
  O39      1.0000 0.87689  0.06760  0.29100  Biso   1.000  O
  O40      1.0000 0.12311  0.93240  0.29100  Biso   1.000  O
  O41      1.0000 0.62420  0.97050  0.21200  Biso   1.000  O
  O42      1.0000 0.37580  0.02950  0.21200  Biso   1.000  O
  O43      1.0000 0.87580  0.47050  0.21200  Biso   1.000  O
  O44      1.0000 0.12420  0.52950  0.21200  Biso   1.000  O
  O45      1.0000 0.62420  0.47050  0.71200  Biso   1.000  O
  O46      1.0000 0.37580  0.52950  0.71200  Biso   1.000  O
  O47      1.0000 0.87580  0.97050  0.71200  Biso   1.000  O
  O48      1.0000 0.12420  0.02950  0.71200  Biso   1.000  O
  O49      1.0000 0.95160  0.22660  0.21600  Biso   1.000  O
  O50      1.0000 0.04840  0.77340  0.21600  Biso   1.000  O
  O51      1.0000 0.54840  0.72660  0.21600  Biso   1.000  O
  O52      1.0000 0.45160  0.27340  0.21600  Biso   1.000  O
  O53      1.0000 0.95160  0.72660  0.71600  Biso   1.000  O
  O54      1.0000 0.04840  0.27340  0.71600  Biso   1.000  O
  O55      1.0000 0.54840  0.22660  0.71600  Biso   1.000  O
  O56      1.0000 0.45160  0.77340  0.71600  Biso   1.000  O
  O57      1.0000 0.24860  0.13980  0.26800  Biso   1.000  O
  O58      1.0000 0.75140  0.86020  0.26800  Biso   1.000  O
  O59      1.0000 0.25140  0.63980  0.26800  Biso   1.000  O
  O60      1.0000 0.74860  0.36020  0.26800  Biso   1.000  O
  O61      1.0000 0.24860  0.63980  0.76800  Biso   1.000  O
  O62      1.0000 0.75140  0.36020  0.76800  Biso   1.000  O
  O63      1.0000 0.25140  0.13980  0.76800  Biso   1.000  O
  O64      1.0000 0.74860  0.86020  0.76800  Biso   1.000  O
  O65      1.0000 0.92280  0.14800  0.39900  Biso   1.000  O
  O66      1.0000 0.07720  0.85200  0.39900  Biso   1.000  O
  O67      1.0000 0.57720  0.64800  0.39900  Biso   1.000  O
  O68      1.0000 0.42280  0.35200  0.39900  Biso   1.000  O
  O69      1.0000 0.92280  0.64800  0.89900  Biso   1.000  O
  O70      1.0000 0.07720  0.35200  0.89900  Biso   1.000  O
  O71      1.0000 0.57720  0.14800  0.89900  Biso   1.000  O
  O72      1.0000 0.42280  0.85200  0.89900  Biso   1.000  O
  N1       1.0000 0.62246  0.93300  0.59600  Biso   1.000  N
  N2       1.0000 0.37754  0.06700  0.59600  Biso   1.000  N
  N3       1.0000 0.87754  0.43300  0.59600  Biso   1.000  N
  N4       1.0000 0.12246  0.56700  0.59600  Biso   1.000  N
  N5       1.0000 0.62246  0.43300  0.09600  Biso   1.000  N
  N6       1.0000 0.37754  0.56700  0.09600  Biso   1.000  N
  N7       1.0000 0.87754  0.93300  0.09600  Biso   1.000  N
  N8       1.0000 0.12246  0.06700  0.09600  Biso   1.000  N
  N9       1.0000 0.61961  0.11430  0.41600  Biso   1.000  N
  N10      1.0000 0.38039  0.88570  0.41600  Biso   1.000  N
  N11      1.0000 0.88039  0.61430  0.41600  Biso   1.000  N
  N12      1.0000 0.11961  0.38570  0.41600  Biso   1.000  N
  N13      1.0000 0.61961  0.61430  0.91600  Biso   1.000  N
  N14      1.0000 0.38039  0.38570  0.91600  Biso   1.000  N
  N15      1.0000 0.88039  0.11430  0.91600  Biso   1.000  N
  N16      1.0000 0.11961  0.88570  0.91600  Biso   1.000  N
  N17      1.0000 0.57660  0.02220  0.52800  Biso   1.000  N
  N18      1.0000 0.42340  0.97780  0.52800  Biso   1.000  N
  N19      1.0000 0.92340  0.52220  0.52800  Biso   1.000  N
  N20      1.0000 0.07660  0.47780  0.52800  Biso   1.000  N
  N21      1.0000 0.57660  0.52220  0.02800  Biso   1.000  N
  N22      1.0000 0.42340  0.47780  0.02800  Biso   1.000  N
  N23      1.0000 0.92340  0.02220  0.02800  Biso   1.000  N
  N24      1.0000 0.07660  0.97780  0.02800  Biso   1.000  N
  N25      1.0000 0.66585  0.03160  0.51700  Biso   1.000  N
  N26      1.0000 0.33415  0.96840  0.51700  Biso   1.000  N
  N27      1.0000 0.83415  0.53160  0.51700  Biso   1.000  N
  N28      1.0000 0.16585  0.46840  0.51700  Biso   1.000  N
  N29      1.0000 0.66585  0.53160  0.01700  Biso   1.000  N
  N30      1.0000 0.33415  0.46840  0.01700  Biso   1.000  N
  N31      1.0000 0.83415  0.03160  0.01700  Biso   1.000  N
  N32      1.0000 0.16585  0.96840  0.01700  Biso   1.000  N
  N33      1.0000 0.82160  0.05430  0.47600  Biso   1.000  N
  N34      1.0000 0.17840  0.94570  0.47600  Biso   1.000  N
  N35      1.0000 0.67840  0.55430  0.47600  Biso   1.000  N
  N36      1.0000 0.32160  0.44570  0.47600  Biso   1.000  N
  N37      1.0000 0.82160  0.55430  0.97600  Biso   1.000  N
  N38      1.0000 0.17840  0.44570  0.97600  Biso   1.000  N
  N39      1.0000 0.67840  0.05430  0.97600  Biso   1.000  N
  N40      1.0000 0.32160  0.94570  0.97600  Biso   1.000  N
  C1       1.0000 0.63480  0.91680  0.74100  Biso   1.000  C
  C2       1.0000 0.36520  0.08320  0.74100  Biso   1.000  C
  C3       1.0000 0.86520  0.41680  0.74100  Biso   1.000  C
  C4       1.0000 0.13480  0.58320  0.74100  Biso   1.000  C
  C5       1.0000 0.63480  0.41680  0.24100  Biso   1.000  C
  C6       1.0000 0.36520  0.58320  0.24100  Biso   1.000  C
  C7       1.0000 0.86520  0.91680  0.24100  Biso   1.000  C
  C8       1.0000 0.13480  0.08320  0.24100  Biso   1.000  C
  C9       1.0000 0.63390  0.85530  0.80200  Biso   1.000  C
  C10      1.0000 0.36610  0.14470  0.80200  Biso   1.000  C
  C11      1.0000 0.86610  0.35530  0.80200  Biso   1.000  C
  C12      1.0000 0.13390  0.64470  0.80200  Biso   1.000  C
  C13      1.0000 0.63390  0.35530  0.30200  Biso   1.000  C
  C14      1.0000 0.36610  0.64470  0.30200  Biso   1.000  C
  C15      1.0000 0.86610  0.85530  0.30200  Biso   1.000  C
  C16      1.0000 0.13390  0.14470  0.30200  Biso   1.000  C
  C17      1.0000 0.61940  0.80490  0.71500  Biso   1.000  C
  C18      1.0000 0.38060  0.19510  0.71500  Biso   1.000  C
  C19      1.0000 0.88060  0.30490  0.71500  Biso   1.000  C
  C20      1.0000 0.11940  0.69510  0.71500  Biso   1.000  C
  C21      1.0000 0.61940  0.30490  0.21500  Biso   1.000  C
  C22      1.0000 0.38060  0.69510  0.21500  Biso   1.000  C
  C23      1.0000 0.88060  0.80490  0.21500  Biso   1.000  C
  C24      1.0000 0.11940  0.19510  0.21500  Biso   1.000  C
  C25      1.0000 0.60690  0.82190  0.57100  Biso   1.000  C
  C26      1.0000 0.39310  0.17810  0.57100  Biso   1.000  C
  C27      1.0000 0.89310  0.32190  0.57100  Biso   1.000  C
  C28      1.0000 0.10690  0.67810  0.57100  Biso   1.000  C
  C29      1.0000 0.60690  0.32190  0.07100  Biso   1.000  C
  C30      1.0000 0.39310  0.67810  0.07100  Biso   1.000  C
  C31      1.0000 0.89310  0.82190  0.07100  Biso   1.000  C
  C32      1.0000 0.10690  0.17810  0.07100  Biso   1.000  C
  C33      1.0000 0.60810  0.88530  0.51500  Biso   1.000  C
  C34      1.0000 0.39190  0.11470  0.51500  Biso   1.000  C
  C35      1.0000 0.89190  0.38530  0.51500  Biso   1.000  C
  C36      1.0000 0.10810  0.61470  0.51500  Biso   1.000  C
  C37      1.0000 0.60810  0.38530  0.01500  Biso   1.000  C
  C38      1.0000 0.39190  0.61470  0.01500  Biso   1.000  C
  C39      1.0000 0.89190  0.88530  0.01500  Biso   1.000  C
  C40      1.0000 0.10810  0.11470  0.01500  Biso   1.000  C
  C41      1.0000 0.60820  0.16450  0.49400  Biso   1.000  C
  C42      1.0000 0.39180  0.83550  0.49400  Biso   1.000  C
  C43      1.0000 0.89180  0.66450  0.49400  Biso   1.000  C
  C44      1.0000 0.10820  0.33550  0.49400  Biso   1.000  C
  C45      1.0000 0.60820  0.66450  0.99400  Biso   1.000  C
  C46      1.0000 0.39180  0.33550  0.99400  Biso   1.000  C
  C47      1.0000 0.89180  0.16450  0.99400  Biso   1.000  C
  C48      1.0000 0.10820  0.83550  0.99400  Biso   1.000  C
  C49      1.0000 0.60810  0.22770  0.43700  Biso   1.000  C
  C50      1.0000 0.39190  0.77230  0.43700  Biso   1.000  C
  C51      1.0000 0.89190  0.72770  0.43700  Biso   1.000  C
  C52      1.0000 0.10810  0.27230  0.43700  Biso   1.000  C
  C53      1.0000 0.60810  0.72770  0.93700  Biso   1.000  C
  C54      1.0000 0.39190  0.27230  0.93700  Biso   1.000  C
  C55      1.0000 0.89190  0.22770  0.93700  Biso   1.000  C
  C56      1.0000 0.10810  0.77230  0.93700  Biso   1.000  C
  C57      1.0000 0.62000  0.73910  0.78400  Biso   1.000  C
  C58      1.0000 0.38000  0.26090  0.78400  Biso   1.000  C
  C59      1.0000 0.88000  0.23910  0.78400  Biso   1.000  C
  C60      1.0000 0.12000  0.76090  0.78400  Biso   1.000  C
  C61      1.0000 0.62000  0.23910  0.28400  Biso   1.000  C
  C62      1.0000 0.38000  0.76090  0.28400  Biso   1.000  C
  C63      1.0000 0.88000  0.73910  0.28400  Biso   1.000  C
  C64      1.0000 0.12000  0.26090  0.28400  Biso   1.000  C
  C65      1.0000 0.62960  0.68580  0.69600  Biso   1.000  C
  C66      1.0000 0.37040  0.31420  0.69600  Biso   1.000  C
  C67      1.0000 0.87040  0.18580  0.69600  Biso   1.000  C
  C68      1.0000 0.12960  0.81420  0.69600  Biso   1.000  C
  C69      1.0000 0.62960  0.18580  0.19600  Biso   1.000  C
  C70      1.0000 0.37040  0.81420  0.19600  Biso   1.000  C
  C71      1.0000 0.87040  0.68580  0.19600  Biso   1.000  C
  C72      1.0000 0.12960  0.31420  0.19600  Biso   1.000  C
  C73      1.0000 0.63000  0.12600  0.26600  Biso   1.000  C
  C74      1.0000 0.37000  0.87400  0.26600  Biso   1.000  C
  C75      1.0000 0.87000  0.62600  0.26600  Biso   1.000  C
  C76      1.0000 0.13000  0.37400  0.26600  Biso   1.000  C
  C77      1.0000 0.63000  0.62600  0.76600  Biso   1.000  C
  C78      1.0000 0.37000  0.37400  0.76600  Biso   1.000  C
  C79      1.0000 0.87000  0.12600  0.76600  Biso   1.000  C
  C80      1.0000 0.13000  0.87400  0.76600  Biso   1.000  C
  C81      1.0000 0.56300  0.00200  0.65800  Biso   1.000  C
  C82      1.0000 0.43700  0.99800  0.65800  Biso   1.000  C
  C83      1.0000 0.93700  0.50200  0.65800  Biso   1.000  C
  C84      1.0000 0.06300  0.49800  0.65800  Biso   1.000  C
  C85      1.0000 0.56300  0.50200  0.15800  Biso   1.000  C
  C86      1.0000 0.43700  0.49800  0.15800  Biso   1.000  C
  C87      1.0000 0.93700  0.00200  0.15800  Biso   1.000  C
  C88      1.0000 0.06300  0.99800  0.15800  Biso   1.000  C
  C89      1.0000 0.53300  0.99410  0.66000  Biso   1.000  C
  C90      1.0000 0.46700  0.00590  0.66000  Biso   1.000  C
  C91      1.0000 0.96700  0.49410  0.66000  Biso   1.000  C
  C92      1.0000 0.03300  0.50590  0.66000  Biso   1.000  C
  C93      1.0000 0.53300  0.49410  0.16000  Biso   1.000  C
  C94      1.0000 0.46700  0.50590  0.16000  Biso   1.000  C
  C95      1.0000 0.96700  0.99410  0.16000  Biso   1.000  C
  C96      1.0000 0.03300  0.00590  0.16000  Biso   1.000  C
  C97      1.0000 0.51625  0.00450  0.52400  Biso   1.000  C
  C98      1.0000 0.48375  0.99550  0.52400  Biso   1.000  C
  C99      1.0000 0.98375  0.50450  0.52400  Biso   1.000  C
  C100     1.0000 0.01625  0.49550  0.52400  Biso   1.000  C
  C101     1.0000 0.51625  0.50450  0.02400  Biso   1.000  C
  C102     1.0000 0.48375  0.49550  0.02400  Biso   1.000  C
  C103     1.0000 0.98375  0.00450  0.02400  Biso   1.000  C
  C104     1.0000 0.01625  0.99550  0.02400  Biso   1.000  C
  C105     1.0000 0.53090  0.02650  0.38700  Biso   1.000  C
  C106     1.0000 0.46910  0.97350  0.38700  Biso   1.000  C
  C107     1.0000 0.96910  0.52650  0.38700  Biso   1.000  C
  C108     1.0000 0.03090  0.47350  0.38700  Biso   1.000  C
  C109     1.0000 0.53090  0.52650  0.88700  Biso   1.000  C
  C110     1.0000 0.46910  0.47350  0.88700  Biso   1.000  C
  C111     1.0000 0.96910  0.02650  0.88700  Biso   1.000  C
  C112     1.0000 0.03090  0.97350  0.88700  Biso   1.000  C
  C113     1.0000 0.56040  0.03740  0.39400  Biso   1.000  C
  C114     1.0000 0.43960  0.96260  0.39400  Biso   1.000  C
  C115     1.0000 0.93960  0.53740  0.39400  Biso   1.000  C
  C116     1.0000 0.06040  0.46260  0.39400  Biso   1.000  C
  C117     1.0000 0.56040  0.53740  0.89400  Biso   1.000  C
  C118     1.0000 0.43960  0.46260  0.89400  Biso   1.000  C
  C119     1.0000 0.93960  0.03740  0.89400  Biso   1.000  C
  C120     1.0000 0.06040  0.96260  0.89400  Biso   1.000  C
  C121     1.0000 0.68010  0.08620  0.55700  Biso   1.000  C
  C122     1.0000 0.31990  0.91380  0.55700  Biso   1.000  C
  C123     1.0000 0.81990  0.58620  0.55700  Biso   1.000  C
  C124     1.0000 0.18010  0.41380  0.55700  Biso   1.000  C
  C125     1.0000 0.68010  0.58620  0.05700  Biso   1.000  C
  C126     1.0000 0.31990  0.41380  0.05700  Biso   1.000  C
  C127     1.0000 0.81990  0.08620  0.05700  Biso   1.000  C
  C128     1.0000 0.18010  0.91380  0.05700  Biso   1.000  C
  C129     1.0000 0.70990  0.09350  0.55400  Biso   1.000  C
  C130     1.0000 0.29010  0.90650  0.55400  Biso   1.000  C
  C131     1.0000 0.79010  0.59350  0.55400  Biso   1.000  C
  C132     1.0000 0.20990  0.40650  0.55400  Biso   1.000  C
  C133     1.0000 0.70990  0.59350  0.05400  Biso   1.000  C
  C134     1.0000 0.29010  0.40650  0.05400  Biso   1.000  C
  C135     1.0000 0.79010  0.09350  0.05400  Biso   1.000  C
  C136     1.0000 0.20990  0.90650  0.05400  Biso   1.000  C
  C137     1.0000 0.72740  0.03980  0.50400  Biso   1.000  C
  C138     1.0000 0.27260  0.96020  0.50400  Biso   1.000  C
  C139     1.0000 0.77260  0.53980  0.50400  Biso   1.000  C
  C140     1.0000 0.22740  0.46020  0.50400  Biso   1.000  C
  C141     1.0000 0.72740  0.53980  0.00400  Biso   1.000  C
  C142     1.0000 0.27260  0.46020  0.00400  Biso   1.000  C
  C143     1.0000 0.77260  0.03980  0.00400  Biso   1.000  C
  C144     1.0000 0.22740  0.96020  0.00400  Biso   1.000  C
  C145     1.0000 0.71360  0.98460  0.45700  Biso   1.000  C
  C146     1.0000 0.28640  0.01540  0.45700  Biso   1.000  C
  C147     1.0000 0.78640  0.48460  0.45700  Biso   1.000  C
  C148     1.0000 0.21360  0.51540  0.45700  Biso   1.000  C
  C149     1.0000 0.71360  0.48460  0.95700  Biso   1.000  C
  C150     1.0000 0.28640  0.51540  0.95700  Biso   1.000  C
  C151     1.0000 0.78640  0.98460  0.95700  Biso   1.000  C
  C152     1.0000 0.21360  0.01540  0.95700  Biso   1.000  C
  C153     1.0000 0.68310  0.98080  0.46000  Biso   1.000  C
  C154     1.0000 0.31690  0.01920  0.46000  Biso   1.000  C
  C155     1.0000 0.81690  0.48080  0.46000  Biso   1.000  C
  C156     1.0000 0.18310  0.51920  0.46000  Biso   1.000  C
  C157     1.0000 0.68310  0.48080  0.96000  Biso   1.000  C
  C158     1.0000 0.31690  0.51920  0.96000  Biso   1.000  C
  C159     1.0000 0.81690  0.98080  0.96000  Biso   1.000  C
  C160     1.0000 0.18310  0.01920  0.96000  Biso   1.000  C
  C161     1.0000 0.80850  0.00090  0.50700  Biso   1.000  C
  C162     1.0000 0.19150  0.99910  0.50700  Biso   1.000  C
  C163     1.0000 0.69150  0.50090  0.50700  Biso   1.000  C
  C164     1.0000 0.30850  0.49910  0.50700  Biso   1.000  C
  C165     1.0000 0.80850  0.50090  0.00700  Biso   1.000  C
  C166     1.0000 0.19150  0.49910  0.00700  Biso   1.000  C
  C167     1.0000 0.69150  0.00090  0.00700  Biso   1.000  C
  C168     1.0000 0.30850  0.99910  0.00700  Biso   1.000  C
  C169     1.0000 0.77790  0.99070  0.51300  Biso   1.000  C
  C170     1.0000 0.22210  0.00930  0.51300  Biso   1.000  C
  C171     1.0000 0.72210  0.49070  0.51300  Biso   1.000  C
  C172     1.0000 0.27790  0.50930  0.51300  Biso   1.000  C
  C173     1.0000 0.77790  0.49070  0.01300  Biso   1.000  C
  C174     1.0000 0.22210  0.50930  0.01300  Biso   1.000  C
  C175     1.0000 0.72210  0.99070  0.01300  Biso   1.000  C
  C176     1.0000 0.27790  0.00930  0.01300  Biso   1.000  C
  C177     1.0000 0.76020  0.04600  0.49500  Biso   1.000  C
  C178     1.0000 0.23980  0.95400  0.49500  Biso   1.000  C
  C179     1.0000 0.73980  0.54600  0.49500  Biso   1.000  C
  C180     1.0000 0.26020  0.45400  0.49500  Biso   1.000  C
  C181     1.0000 0.76020  0.54600  0.99500  Biso   1.000  C
  C182     1.0000 0.23980  0.45400  0.99500  Biso   1.000  C
  C183     1.0000 0.73980  0.04600  0.99500  Biso   1.000  C
  C184     1.0000 0.26020  0.95400  0.99500  Biso   1.000  C
  C185     1.0000 0.77400  0.10670  0.47000  Biso   1.000  C
  C186     1.0000 0.22600  0.89330  0.47000  Biso   1.000  C
  C187     1.0000 0.72600  0.60670  0.47000  Biso   1.000  C
  C188     1.0000 0.27400  0.39330  0.47000  Biso   1.000  C
  C189     1.0000 0.77400  0.60670  0.97000  Biso   1.000  C
  C190     1.0000 0.22600  0.39330  0.97000  Biso   1.000  C
  C191     1.0000 0.72600  0.10670  0.97000  Biso   1.000  C
  C192     1.0000 0.27400  0.89330  0.97000  Biso   1.000  C
  C193     1.0000 0.80490  0.11050  0.45800  Biso   1.000  C
  C194     1.0000 0.19510  0.88950  0.45800  Biso   1.000  C
  C195     1.0000 0.69510  0.61050  0.45800  Biso   1.000  C
  C196     1.0000 0.30490  0.38950  0.45800  Biso   1.000  C
  C197     1.0000 0.80490  0.61050  0.95800  Biso   1.000  C
  C198     1.0000 0.19510  0.38950  0.95800  Biso   1.000  C
  C199     1.0000 0.69510  0.11050  0.95800  Biso   1.000  C
  C200     1.0000 0.30490  0.88950  0.95800  Biso   1.000  C
  C201     1.0000 0.22090  0.23820  0.23200  Biso   1.000  C
  C202     1.0000 0.77910  0.76180  0.23200  Biso   1.000  C
  C203     1.0000 0.27910  0.73820  0.23200  Biso   1.000  C
  C204     1.0000 0.72090  0.26180  0.23200  Biso   1.000  C
  C205     1.0000 0.22090  0.73820  0.73200  Biso   1.000  C
  C206     1.0000 0.77910  0.26180  0.73200  Biso   1.000  C
  C207     1.0000 0.27910  0.23820  0.73200  Biso   1.000  C
  C208     1.0000 0.72090  0.76180  0.73200  Biso   1.000  C
  C209     1.0000 0.22310  0.16740  0.25000  Biso   1.000  C
  C210     1.0000 0.77690  0.83260  0.25000  Biso   1.000  C
  C211     1.0000 0.27690  0.66740  0.25000  Biso   1.000  C
  C212     1.0000 0.72310  0.33260  0.25000  Biso   1.000  C
  C213     1.0000 0.22310  0.66740  0.75000  Biso   1.000  C
  C214     1.0000 0.77690  0.33260  0.75000  Biso   1.000  C
  C215     1.0000 0.27690  0.16740  0.75000  Biso   1.000  C
  C216     1.0000 0.72310  0.83260  0.75000  Biso   1.000  C
  C217     1.0000 0.95990  0.15800  0.58500  Biso   1.000  C
  C218     1.0000 0.04010  0.84200  0.58500  Biso   1.000  C
  C219     1.0000 0.54010  0.65800  0.58500  Biso   1.000  C
  C220     1.0000 0.45990  0.34200  0.58500  Biso   1.000  C
  C221     1.0000 0.95990  0.65800  0.08500  Biso   1.000  C
  C222     1.0000 0.04010  0.34200  0.08500  Biso   1.000  C
  C223     1.0000 0.54010  0.15800  0.08500  Biso   1.000  C
  C224     1.0000 0.45990  0.84200  0.08500  Biso   1.000  C
  C225     1.0000 0.93550  0.10500  0.49100  Biso   1.000  C
  C226     1.0000 0.06450  0.89500  0.49100  Biso   1.000  C
  C227     1.0000 0.56450  0.60500  0.49100  Biso   1.000  C
  C228     1.0000 0.43550  0.39500  0.49100  Biso   1.000  C
  C229     1.0000 0.93550  0.60500  0.99100  Biso   1.000  C
  C230     1.0000 0.06450  0.39500  0.99100  Biso   1.000  C
  C231     1.0000 0.56450  0.10500  0.99100  Biso   1.000  C
  C232     1.0000 0.43550  0.89500  0.99100  Biso   1.000  C
  H1       1.0000 0.64470  0.95020  0.80740  Biso   1.000  H
  H2       1.0000 0.35530  0.04980  0.80740  Biso   1.000  H
  H3       1.0000 0.85530  0.45020  0.80740  Biso   1.000  H
  H4       1.0000 0.14470  0.54980  0.80740  Biso   1.000  H
  H5       1.0000 0.64470  0.45020  0.30740  Biso   1.000  H
  H6       1.0000 0.35530  0.54980  0.30740  Biso   1.000  H
  H7       1.0000 0.85530  0.95020  0.30740  Biso   1.000  H
  H8       1.0000 0.14470  0.04980  0.30740  Biso   1.000  H
  H9       1.0000 0.64300  0.84600  0.91010  Biso   1.000  H
  H10      1.0000 0.35700  0.15400  0.91010  Biso   1.000  H
  H11      1.0000 0.85700  0.34600  0.91010  Biso   1.000  H
  H12      1.0000 0.14300  0.65400  0.91010  Biso   1.000  H
  H13      1.0000 0.64300  0.34600  0.41010  Biso   1.000  H
  H14      1.0000 0.35700  0.65400  0.41010  Biso   1.000  H
  H15      1.0000 0.85700  0.84600  0.41010  Biso   1.000  H
  H16      1.0000 0.14300  0.15400  0.41010  Biso   1.000  H
  H17      1.0000 0.59720  0.78930  0.51280  Biso   1.000  H
  H18      1.0000 0.40280  0.21070  0.51280  Biso   1.000  H
  H19      1.0000 0.90280  0.28930  0.51280  Biso   1.000  H
  H20      1.0000 0.09720  0.71070  0.51280  Biso   1.000  H
  H21      1.0000 0.59720  0.28930  0.01280  Biso   1.000  H
  H22      1.0000 0.40280  0.71070  0.01280  Biso   1.000  H
  H23      1.0000 0.90280  0.78930  0.01280  Biso   1.000  H
  H24      1.0000 0.09720  0.21070  0.01280  Biso   1.000  H
  H25      1.0000 0.59840  0.89580  0.42060  Biso   1.000  H
  H26      1.0000 0.40160  0.10420  0.42060  Biso   1.000  H
  H27      1.0000 0.90160  0.39580  0.42060  Biso   1.000  H
  H28      1.0000 0.09840  0.60420  0.42060  Biso   1.000  H
  H29      1.0000 0.59840  0.39580  0.92060  Biso   1.000  H
  H30      1.0000 0.40160  0.60420  0.92060  Biso   1.000  H
  H31      1.0000 0.90160  0.89580  0.92060  Biso   1.000  H
  H32      1.0000 0.09840  0.10420  0.92060  Biso   1.000  H
  H33      1.0000 0.59930  0.15650  0.60250  Biso   1.000  H
  H34      1.0000 0.40070  0.84350  0.60250  Biso   1.000  H
  H35      1.0000 0.90070  0.65650  0.60250  Biso   1.000  H
  H36      1.0000 0.09930  0.34350  0.60250  Biso   1.000  H
  H37      1.0000 0.59930  0.65650  0.10250  Biso   1.000  H
  H38      1.0000 0.40070  0.34350  0.10250  Biso   1.000  H
  H39      1.0000 0.90070  0.15650  0.10250  Biso   1.000  H
  H40      1.0000 0.09930  0.84350  0.10250  Biso   1.000  H
  H41      1.0000 0.60000  0.26250  0.50560  Biso   1.000  H
  H42      1.0000 0.40000  0.73750  0.50560  Biso   1.000  H
  H43      1.0000 0.90000  0.76250  0.50560  Biso   1.000  H
  H44      1.0000 0.10000  0.23750  0.50560  Biso   1.000  H
  H45      1.0000 0.60000  0.76250  0.00560  Biso   1.000  H
  H46      1.0000 0.40000  0.23750  0.00560  Biso   1.000  H
  H47      1.0000 0.90000  0.26250  0.00560  Biso   1.000  H
  H48      1.0000 0.10000  0.73750  0.00560  Biso   1.000  H
  H49      1.0000 0.63590  0.69120  0.59100  Biso   1.000  H
  H50      1.0000 0.36410  0.30880  0.59100  Biso   1.000  H
  H51      1.0000 0.86410  0.19120  0.59100  Biso   1.000  H
  H52      1.0000 0.13590  0.80880  0.59100  Biso   1.000  H
  H53      1.0000 0.63590  0.19120  0.09100  Biso   1.000  H
  H54      1.0000 0.36410  0.80880  0.09100  Biso   1.000  H
  H55      1.0000 0.86410  0.69120  0.09100  Biso   1.000  H
  H56      1.0000 0.13590  0.30880  0.09100  Biso   1.000  H
  H57      1.0000 0.63810  0.09030  0.21130  Biso   1.000  H
  H58      1.0000 0.36190  0.90970  0.21130  Biso   1.000  H
  H59      1.0000 0.86190  0.59030  0.21130  Biso   1.000  H
  H60      1.0000 0.13810  0.40970  0.21130  Biso   1.000  H
  H61      1.0000 0.63810  0.59030  0.71130  Biso   1.000  H
  H62      1.0000 0.36190  0.40970  0.71130  Biso   1.000  H
  H63      1.0000 0.86190  0.09030  0.71130  Biso   1.000  H
  H64      1.0000 0.13810  0.90970  0.71130  Biso   1.000  H
  H65      1.0000 0.57420  0.99270  0.75940  Biso   1.000  H
  H66      1.0000 0.42580  0.00730  0.75940  Biso   1.000  H
  H67      1.0000 0.92580  0.49270  0.75940  Biso   1.000  H
  H68      1.0000 0.07420  0.50730  0.75940  Biso   1.000  H
  H69      1.0000 0.57420  0.49270  0.25940  Biso   1.000  H
  H70      1.0000 0.42580  0.50730  0.25940  Biso   1.000  H
  H71      1.0000 0.92580  0.99270  0.25940  Biso   1.000  H
  H72      1.0000 0.07420  0.00730  0.25940  Biso   1.000  H
  H73      1.0000 0.52360  0.98120  0.76490  Biso   1.000  H
  H74      1.0000 0.47640  0.01880  0.76490  Biso   1.000  H
  H75      1.0000 0.97640  0.48120  0.76490  Biso   1.000  H
  H76      1.0000 0.02360  0.51880  0.76490  Biso   1.000  H
  H77      1.0000 0.52360  0.48120  0.26490  Biso   1.000  H
  H78      1.0000 0.47640  0.51880  0.26490  Biso   1.000  H
  H79      1.0000 0.97640  0.98120  0.26490  Biso   1.000  H
  H80      1.0000 0.02360  0.01880  0.26490  Biso   1.000  H
  H81      1.0000 0.52020  0.03370  0.29380  Biso   1.000  H
  H82      1.0000 0.47980  0.96630  0.29380  Biso   1.000  H
  H83      1.0000 0.97980  0.53370  0.29380  Biso   1.000  H
  H84      1.0000 0.02020  0.46630  0.29380  Biso   1.000  H
  H85      1.0000 0.52020  0.53370  0.79380  Biso   1.000  H
  H86      1.0000 0.47980  0.46630  0.79380  Biso   1.000  H
  H87      1.0000 0.97980  0.03370  0.79380  Biso   1.000  H
  H88      1.0000 0.02020  0.96630  0.79380  Biso   1.000  H
  H89      1.0000 0.57020  0.05670  0.30730  Biso   1.000  H
  H90      1.0000 0.42980  0.94330  0.30730  Biso   1.000  H
  H91      1.0000 0.92980  0.55670  0.30730  Biso   1.000  H
  H92      1.0000 0.07020  0.44330  0.30730  Biso   1.000  H
  H93      1.0000 0.57020  0.55670  0.80730  Biso   1.000  H
  H94      1.0000 0.42980  0.44330  0.80730  Biso   1.000  H
  H95      1.0000 0.92980  0.05670  0.80730  Biso   1.000  H
  H96      1.0000 0.07020  0.94330  0.80730  Biso   1.000  H
  H97      1.0000 0.66860  0.12290  0.59640  Biso   1.000  H
  H98      1.0000 0.33140  0.87710  0.59640  Biso   1.000  H
  H99      1.0000 0.83140  0.62290  0.59640  Biso   1.000  H
  H100     1.0000 0.16860  0.37710  0.59640  Biso   1.000  H
  H101     1.0000 0.66860  0.62290  0.09640  Biso   1.000  H
  H102     1.0000 0.33140  0.37710  0.09640  Biso   1.000  H
  H103     1.0000 0.83140  0.12290  0.09640  Biso   1.000  H
  H104     1.0000 0.16860  0.87710  0.09640  Biso   1.000  H
  H105     1.0000 0.71890  0.13410  0.58940  Biso   1.000  H
  H106     1.0000 0.28110  0.86590  0.58940  Biso   1.000  H
  H107     1.0000 0.78110  0.63410  0.58940  Biso   1.000  H
  H108     1.0000 0.21890  0.36590  0.58940  Biso   1.000  H
  H109     1.0000 0.71890  0.63410  0.08940  Biso   1.000  H
  H110     1.0000 0.28110  0.36590  0.08940  Biso   1.000  H
  H111     1.0000 0.78110  0.13410  0.08940  Biso   1.000  H
  H112     1.0000 0.21890  0.86590  0.08940  Biso   1.000  H
  H113     1.0000 0.72500  0.94810  0.42500  Biso   1.000  H
  H114     1.0000 0.27500  0.05190  0.42500  Biso   1.000  H
  H115     1.0000 0.77500  0.44810  0.42500  Biso   1.000  H
  H116     1.0000 0.22500  0.55190  0.42500  Biso   1.000  H
  H117     1.0000 0.72500  0.44810  0.92500  Biso   1.000  H
  H118     1.0000 0.27500  0.55190  0.92500  Biso   1.000  H
  H119     1.0000 0.77500  0.94810  0.92500  Biso   1.000  H
  H120     1.0000 0.22500  0.05190  0.92500  Biso   1.000  H
  H121     1.0000 0.67370  0.94180  0.42710  Biso   1.000  H
  H122     1.0000 0.32630  0.05820  0.42710  Biso   1.000  H
  H123     1.0000 0.82630  0.44180  0.42710  Biso   1.000  H
  H124     1.0000 0.17370  0.55820  0.42710  Biso   1.000  H
  H125     1.0000 0.67370  0.44180  0.92710  Biso   1.000  H
  H126     1.0000 0.32630  0.55820  0.92710  Biso   1.000  H
  H127     1.0000 0.82630  0.94180  0.92710  Biso   1.000  H
  H128     1.0000 0.17370  0.05820  0.92710  Biso   1.000  H
  H129     1.0000 0.82080  0.96390  0.53410  Biso   1.000  H
  H130     1.0000 0.17920  0.03610  0.53410  Biso   1.000  H
  H131     1.0000 0.67920  0.46390  0.53410  Biso   1.000  H
  H132     1.0000 0.32080  0.53610  0.53410  Biso   1.000  H
  H133     1.0000 0.82080  0.46390  0.03410  Biso   1.000  H
  H134     1.0000 0.17920  0.53610  0.03410  Biso   1.000  H
  H135     1.0000 0.67920  0.96390  0.03410  Biso   1.000  H
  H136     1.0000 0.32080  0.03610  0.03410  Biso   1.000  H
  H137     1.0000 0.76960  0.94790  0.53350  Biso   1.000  H
  H138     1.0000 0.23040  0.05210  0.53350  Biso   1.000  H
  H139     1.0000 0.73040  0.44790  0.53350  Biso   1.000  H
  H140     1.0000 0.26960  0.55210  0.53350  Biso   1.000  H
  H141     1.0000 0.76960  0.44790  0.03350  Biso   1.000  H
  H142     1.0000 0.23040  0.55210  0.03350  Biso   1.000  H
  H143     1.0000 0.73040  0.94790  0.03350  Biso   1.000  H
  H144     1.0000 0.26960  0.05210  0.03350  Biso   1.000  H
  H145     1.0000 0.76220  0.14540  0.46690  Biso   1.000  H
  H146     1.0000 0.23780  0.85460  0.46690  Biso   1.000  H
  H147     1.0000 0.73780  0.64540  0.46690  Biso   1.000  H
  H148     1.0000 0.26220  0.35460  0.46690  Biso   1.000  H
  H149     1.0000 0.76220  0.64540  0.96690  Biso   1.000  H
  H150     1.0000 0.23780  0.35460  0.96690  Biso   1.000  H
  H151     1.0000 0.73780  0.14540  0.96690  Biso   1.000  H
  H152     1.0000 0.26220  0.85460  0.96690  Biso   1.000  H
  H153     1.0000 0.81430  0.15150  0.44260  Biso   1.000  H
  H154     1.0000 0.18570  0.84850  0.44260  Biso   1.000  H
  H155     1.0000 0.68570  0.65150  0.44260  Biso   1.000  H
  H156     1.0000 0.31430  0.34850  0.44260  Biso   1.000  H
  H157     1.0000 0.81430  0.65150  0.94260  Biso   1.000  H
  H158     1.0000 0.18570  0.34850  0.94260  Biso   1.000  H
  H159     1.0000 0.68570  0.15150  0.94260  Biso   1.000  H
  H160     1.0000 0.31430  0.84850  0.94260  Biso   1.000  H
  H161     1.0000 0.20110  0.24970  0.21120  Biso   1.000  H
  H162     1.0000 0.79890  0.75030  0.21120  Biso   1.000  H
  H163     1.0000 0.29890  0.74970  0.21120  Biso   1.000  H
  H164     1.0000 0.70110  0.25030  0.21120  Biso   1.000  H
  H165     1.0000 0.20110  0.74970  0.71120  Biso   1.000  H
  H166     1.0000 0.79890  0.25030  0.71120  Biso   1.000  H
  H167     1.0000 0.29890  0.24970  0.71120  Biso   1.000  H
  H168     1.0000 0.70110  0.75030  0.71120  Biso   1.000  H
  H169     1.0000 0.23390  0.25280  0.15280  Biso   1.000  H
  H170     1.0000 0.76610  0.74720  0.15280  Biso   1.000  H
  H171     1.0000 0.26610  0.75280  0.15280  Biso   1.000  H
  H172     1.0000 0.73390  0.24720  0.15280  Biso   1.000  H
  H173     1.0000 0.23390  0.75280  0.65280  Biso   1.000  H
  H174     1.0000 0.76610  0.24720  0.65280  Biso   1.000  H
  H175     1.0000 0.26610  0.25280  0.65280  Biso   1.000  H
  H176     1.0000 0.73390  0.74720  0.65280  Biso   1.000  H
  H177     1.0000 0.22650  0.25860  0.33770  Biso   1.000  H
  H178     1.0000 0.77350  0.74140  0.33770  Biso   1.000  H
  H179     1.0000 0.27350  0.75860  0.33770  Biso   1.000  H
  H180     1.0000 0.72650  0.24140  0.33770  Biso   1.000  H
  H181     1.0000 0.22650  0.75860  0.83770  Biso   1.000  H
  H182     1.0000 0.77350  0.24140  0.83770  Biso   1.000  H
  H183     1.0000 0.27350  0.25860  0.83770  Biso   1.000  H
  H184     1.0000 0.72650  0.74140  0.83770  Biso   1.000  H
  H185     1.0000 0.21520  0.14850  0.15730  Biso   1.000  H
  H186     1.0000 0.78480  0.85150  0.15730  Biso   1.000  H
  H187     1.0000 0.28480  0.64850  0.15730  Biso   1.000  H
  H188     1.0000 0.71520  0.35150  0.15730  Biso   1.000  H
  H189     1.0000 0.21520  0.64850  0.65730  Biso   1.000  H
  H190     1.0000 0.78480  0.35150  0.65730  Biso   1.000  H
  H191     1.0000 0.28480  0.14850  0.65730  Biso   1.000  H
  H192     1.0000 0.71520  0.85150  0.65730  Biso   1.000  H
  H193     1.0000 0.21140  0.15510  0.34540  Biso   1.000  H
  H194     1.0000 0.78860  0.84490  0.34540  Biso   1.000  H
  H195     1.0000 0.28860  0.65510  0.34540  Biso   1.000  H
  H196     1.0000 0.71140  0.34490  0.34540  Biso   1.000  H
  H197     1.0000 0.21140  0.65510  0.84540  Biso   1.000  H
  H198     1.0000 0.78860  0.34490  0.84540  Biso   1.000  H
  H199     1.0000 0.28860  0.15510  0.84540  Biso   1.000  H
  H200     1.0000 0.71140  0.84490  0.84540  Biso   1.000  H
  H201     1.0000 0.97530  0.13570  0.65180  Biso   1.000  H
  H202     1.0000 0.02470  0.86430  0.65180  Biso   1.000  H
  H203     1.0000 0.52470  0.63570  0.65180  Biso   1.000  H
  H204     1.0000 0.47530  0.36430  0.65180  Biso   1.000  H
  H205     1.0000 0.97530  0.63570  0.15180  Biso   1.000  H
  H206     1.0000 0.02470  0.36430  0.15180  Biso   1.000  H
  H207     1.0000 0.52470  0.13570  0.15180  Biso   1.000  H
  H208     1.0000 0.47530  0.86430  0.15180  Biso   1.000  H
  H209     1.0000 0.96920  0.18890  0.51970  Biso   1.000  H
  H210     1.0000 0.03080  0.81110  0.51970  Biso   1.000  H
  H211     1.0000 0.53080  0.68890  0.51970  Biso   1.000  H
  H212     1.0000 0.46920  0.31110  0.51970  Biso   1.000  H
  H213     1.0000 0.96920  0.68890  0.01970  Biso   1.000  H
  H214     1.0000 0.03080  0.31110  0.01970  Biso   1.000  H
  H215     1.0000 0.53080  0.18890  0.01970  Biso   1.000  H
  H216     1.0000 0.46920  0.81110  0.01970  Biso   1.000  H
  H217     1.0000 0.94940  0.18540  0.67520  Biso   1.000  H
  H218     1.0000 0.05060  0.81460  0.67520  Biso   1.000  H
  H219     1.0000 0.55060  0.68540  0.67520  Biso   1.000  H
  H220     1.0000 0.44940  0.31460  0.67520  Biso   1.000  H
  H221     1.0000 0.94940  0.68540  0.17520  Biso   1.000  H
  H222     1.0000 0.05060  0.31460  0.17520  Biso   1.000  H
  H223     1.0000 0.55060  0.18540  0.17520  Biso   1.000  H
  H224     1.0000 0.44940  0.81460  0.17520  Biso   1.000  H
  H225     1.0000 0.92230  0.08430  0.56880  Biso   1.000  H
  H226     1.0000 0.07770  0.91570  0.56880  Biso   1.000  H
  H227     1.0000 0.57770  0.58430  0.56880  Biso   1.000  H
  H228     1.0000 0.42230  0.41570  0.56880  Biso   1.000  H
  H229     1.0000 0.92230  0.58430  0.06880  Biso   1.000  H
  H230     1.0000 0.07770  0.41570  0.06880  Biso   1.000  H
  H231     1.0000 0.57770  0.08430  0.06880  Biso   1.000  H
  H232     1.0000 0.42230  0.91570  0.06880  Biso   1.000  H
  H233     1.0000 0.94600  0.07290  0.43390  Biso   1.000  H
  H234     1.0000 0.05400  0.92710  0.43390  Biso   1.000  H
  H235     1.0000 0.55400  0.57290  0.43390  Biso   1.000  H
  H236     1.0000 0.44600  0.42710  0.43390  Biso   1.000  H
  H237     1.0000 0.94600  0.57290  0.93390  Biso   1.000  H
  H238     1.0000 0.05400  0.42710  0.93390  Biso   1.000  H
  H239     1.0000 0.55400  0.07290  0.93390  Biso   1.000  H
  H240     1.0000 0.44600  0.92710  0.93390  Biso   1.000  H
