data_image0
_cell_length_a       45.47
_cell_length_b       20.523
_cell_length_c       8.229
_cell_angle_alpha    90
_cell_angle_beta     90
_cell_angle_gamma    90

_symmetry_space_group_name_H-M    "P 1"
_symmetry_int_tables_number       1

loop_
  _symmetry_equiv_pos_as_xyz
  'x, y, z'

loop_
  _atom_site_label
  _atom_site_occupancy
  _atom_site_fract_x
  _atom_site_fract_y
  _atom_site_fract_z
  _atom_site_thermal_displace_type
  _atom_site_B_iso_or_equiv
  _atom_site_type_symbol
  Cu1      1.0000 0.62113  0.03287  0.31100  Biso   1.000  Cu
  Cu2      1.0000 0.37887  0.96713  0.31100  Biso   1.000  Cu
  Cu3      1.0000 0.87887  0.53287  0.31100  Biso   1.000  Cu
  Cu4      1.0000 0.12113  0.46713  0.31100  Biso   1.000  Cu
  Cu5      1.0000 0.62113  0.53287  0.81100  Biso   1.000  Cu
  Cu6      1.0000 0.37887  0.46713  0.81100  Biso   1.000  Cu
  Cu7      1.0000 0.87887  0.03287  0.81100  Biso   1.000  Cu
  Cu8      1.0000 0.12113  0.96713  0.81100  Biso   1.000  Cu
  P1       1.0000 0.67417  0.29680  0.08400  Biso   1.000  P
  P2       1.0000 0.32583  0.70320  0.08400  Biso   1.000  P
  P3       1.0000 0.82583  0.79680  0.08400  Biso   1.000  P
  P4       1.0000 0.17417  0.20320  0.08400  Biso   1.000  P
  P5       1.0000 0.67417  0.79680  0.58400  Biso   1.000  P
  P6       1.0000 0.32583  0.20320  0.58400  Biso   1.000  P
  P7       1.0000 0.82583  0.29680  0.58400  Biso   1.000  P
  P8       1.0000 0.17417  0.70320  0.58400  Biso   1.000  P
  P9       1.0000 0.54828  0.38480  0.24900  Biso   1.000  P
  P10      1.0000 0.45172  0.61520  0.24900  Biso   1.000  P
  P11      1.0000 0.95172  0.88480  0.24900  Biso   1.000  P
  P12      1.0000 0.04828  0.11520  0.24900  Biso   1.000  P
  P13      1.0000 0.54828  0.88480  0.74900  Biso   1.000  P
  P14      1.0000 0.45172  0.11520  0.74900  Biso   1.000  P
  P15      1.0000 0.95172  0.38480  0.74900  Biso   1.000  P
  P16      1.0000 0.04828  0.61520  0.74900  Biso   1.000  P
  F1       1.0000 0.67250  0.26870  0.26500  Biso   1.000  F
  F2       1.0000 0.32750  0.73130  0.26500  Biso   1.000  F
  F3       1.0000 0.82750  0.76870  0.26500  Biso   1.000  F
  F4       1.0000 0.17250  0.23130  0.26500  Biso   1.000  F
  F5       1.0000 0.67250  0.76870  0.76500  Biso   1.000  F
  F6       1.0000 0.32750  0.23130  0.76500  Biso   1.000  F
  F7       1.0000 0.82750  0.26870  0.76500  Biso   1.000  F
  F8       1.0000 0.17250  0.73130  0.76500  Biso   1.000  F
  F9       1.0000 0.67490  0.32320  0.90700  Biso   1.000  F
  F10      1.0000 0.32510  0.67680  0.90700  Biso   1.000  F
  F11      1.0000 0.82510  0.82320  0.90700  Biso   1.000  F
  F12      1.0000 0.17490  0.17680  0.90700  Biso   1.000  F
  F13      1.0000 0.67490  0.82320  0.40700  Biso   1.000  F
  F14      1.0000 0.32510  0.17680  0.40700  Biso   1.000  F
  F15      1.0000 0.82510  0.32320  0.40700  Biso   1.000  F
  F16      1.0000 0.17490  0.67680  0.40700  Biso   1.000  F
  F17      1.0000 0.65300  0.24090  0.02600  Biso   1.000  F
  F18      1.0000 0.34700  0.75910  0.02600  Biso   1.000  F
  F19      1.0000 0.84700  0.74090  0.02600  Biso   1.000  F
  F20      1.0000 0.15300  0.25910  0.02600  Biso   1.000  F
  F21      1.0000 0.65300  0.74090  0.52600  Biso   1.000  F
  F22      1.0000 0.34700  0.25910  0.52600  Biso   1.000  F
  F23      1.0000 0.84700  0.24090  0.52600  Biso   1.000  F
  F24      1.0000 0.15300  0.75910  0.52600  Biso   1.000  F
  F25      1.0000 0.69480  0.35490  0.14100  Biso   1.000  F
  F26      1.0000 0.30520  0.64510  0.14100  Biso   1.000  F
  F27      1.0000 0.80520  0.85490  0.14100  Biso   1.000  F
  F28      1.0000 0.19480  0.14510  0.14100  Biso   1.000  F
  F29      1.0000 0.69480  0.85490  0.64100  Biso   1.000  F
  F30      1.0000 0.30520  0.14510  0.64100  Biso   1.000  F
  F31      1.0000 0.80520  0.35490  0.64100  Biso   1.000  F
  F32      1.0000 0.19480  0.64510  0.64100  Biso   1.000  F
  F33      1.0000 0.70140  0.25260  0.04600  Biso   1.000  F
  F34      1.0000 0.29860  0.74740  0.04600  Biso   1.000  F
  F35      1.0000 0.79860  0.75260  0.04600  Biso   1.000  F
  F36      1.0000 0.20140  0.24740  0.04600  Biso   1.000  F
  F37      1.0000 0.70140  0.75260  0.54600  Biso   1.000  F
  F38      1.0000 0.29860  0.24740  0.54600  Biso   1.000  F
  F39      1.0000 0.79860  0.25260  0.54600  Biso   1.000  F
  F40      1.0000 0.20140  0.74740  0.54600  Biso   1.000  F
  F41      1.0000 0.64650  0.34170  0.12000  Biso   1.000  F
  F42      1.0000 0.35350  0.65830  0.12000  Biso   1.000  F
  F43      1.0000 0.85350  0.84170  0.12000  Biso   1.000  F
  F44      1.0000 0.14650  0.15830  0.12000  Biso   1.000  F
  F45      1.0000 0.64650  0.84170  0.62000  Biso   1.000  F
  F46      1.0000 0.35350  0.15830  0.62000  Biso   1.000  F
  F47      1.0000 0.85350  0.34170  0.62000  Biso   1.000  F
  F48      1.0000 0.14650  0.65830  0.62000  Biso   1.000  F
  F49      1.0000 0.53890  0.31530  0.23800  Biso   1.000  F
  F50      1.0000 0.46110  0.68470  0.23800  Biso   1.000  F
  F51      1.0000 0.96110  0.81530  0.23800  Biso   1.000  F
  F52      1.0000 0.03890  0.18470  0.23800  Biso   1.000  F
  F53      1.0000 0.53890  0.81530  0.73800  Biso   1.000  F
  F54      1.0000 0.46110  0.18470  0.73800  Biso   1.000  F
  F55      1.0000 0.96110  0.31530  0.73800  Biso   1.000  F
  F56      1.0000 0.03890  0.68470  0.73800  Biso   1.000  F
  F57      1.0000 0.55920  0.45910  0.26300  Biso   1.000  F
  F58      1.0000 0.44080  0.54090  0.26300  Biso   1.000  F
  F59      1.0000 0.94080  0.95910  0.26300  Biso   1.000  F
  F60      1.0000 0.05920  0.04090  0.26300  Biso   1.000  F
  F61      1.0000 0.55920  0.95910  0.76300  Biso   1.000  F
  F62      1.0000 0.44080  0.04090  0.76300  Biso   1.000  F
  F63      1.0000 0.94080  0.45910  0.76300  Biso   1.000  F
  F64      1.0000 0.05920  0.54090  0.76300  Biso   1.000  F
  F65      1.0000 0.55690  0.37450  0.43400  Biso   1.000  F
  F66      1.0000 0.44310  0.62550  0.43400  Biso   1.000  F
  F67      1.0000 0.94310  0.87450  0.43400  Biso   1.000  F
  F68      1.0000 0.05690  0.12550  0.43400  Biso   1.000  F
  F69      1.0000 0.55690  0.87450  0.93400  Biso   1.000  F
  F70      1.0000 0.44310  0.12550  0.93400  Biso   1.000  F
  F71      1.0000 0.94310  0.37450  0.93400  Biso   1.000  F
  F72      1.0000 0.05690  0.62550  0.93400  Biso   1.000  F
  F73      1.0000 0.54130  0.39690  0.06600  Biso   1.000  F
  F74      1.0000 0.45870  0.60310  0.06600  Biso   1.000  F
  F75      1.0000 0.95870  0.89690  0.06600  Biso   1.000  F
  F76      1.0000 0.04130  0.10310  0.06600  Biso   1.000  F
  F77      1.0000 0.54130  0.89690  0.56600  Biso   1.000  F
  F78      1.0000 0.45870  0.10310  0.56600  Biso   1.000  F
  F79      1.0000 0.95870  0.39690  0.56600  Biso   1.000  F
  F80      1.0000 0.04130  0.60310  0.56600  Biso   1.000  F
  F81      1.0000 0.58040  0.36430  0.19200  Biso   1.000  F
  F82      1.0000 0.41960  0.63570  0.19200  Biso   1.000  F
  F83      1.0000 0.91960  0.86430  0.19200  Biso   1.000  F
  F84      1.0000 0.08040  0.13570  0.19200  Biso   1.000  F
  F85      1.0000 0.58040  0.86430  0.69200  Biso   1.000  F
  F86      1.0000 0.41960  0.13570  0.69200  Biso   1.000  F
  F87      1.0000 0.91960  0.36430  0.69200  Biso   1.000  F
  F88      1.0000 0.08040  0.63570  0.69200  Biso   1.000  F
  F89      1.0000 0.51840  0.40370  0.31200  Biso   1.000  F
  F90      1.0000 0.48160  0.59630  0.31200  Biso   1.000  F
  F91      1.0000 0.98160  0.90370  0.31200  Biso   1.000  F
  F92      1.0000 0.01840  0.09630  0.31200  Biso   1.000  F
  F93      1.0000 0.51840  0.90370  0.81200  Biso   1.000  F
  F94      1.0000 0.48160  0.09630  0.81200  Biso   1.000  F
  F95      1.0000 0.98160  0.40370  0.81200  Biso   1.000  F
  F96      1.0000 0.01840  0.59630  0.81200  Biso   1.000  F
  O1       1.0000 0.62304  0.07400  0.03500  Biso   1.000  O
  O2       1.0000 0.37696  0.92600  0.03500  Biso   1.000  O
  O3       1.0000 0.87696  0.57400  0.03500  Biso   1.000  O
  O4       1.0000 0.12304  0.42600  0.03500  Biso   1.000  O
  O5       1.0000 0.62304  0.57400  0.53500  Biso   1.000  O
  O6       1.0000 0.37696  0.42600  0.53500  Biso   1.000  O
  O7       1.0000 0.87696  0.07400  0.53500  Biso   1.000  O
  O8       1.0000 0.12304  0.92600  0.53500  Biso   1.000  O
  O9       1.0000 0.62220  0.97820  0.62600  Biso   1.000  O
  O10      1.0000 0.37780  0.02180  0.62600  Biso   1.000  O
  O11      1.0000 0.87780  0.47820  0.62600  Biso   1.000  O
  O12      1.0000 0.12220  0.52180  0.62600  Biso   1.000  O
  O13      1.0000 0.62220  0.47820  0.12600  Biso   1.000  O
  O14      1.0000 0.37780  0.52180  0.12600  Biso   1.000  O
  O15      1.0000 0.87780  0.97820  0.12600  Biso   1.000  O
  O16      1.0000 0.12220  0.02180  0.12600  Biso   1.000  O
  O17      1.0000 0.92750  0.10100  0.35100  Biso   1.000  O
  O18      1.0000 0.07250  0.89900  0.35100  Biso   1.000  O
  O19      1.0000 0.57250  0.60100  0.35100  Biso   1.000  O
  O20      1.0000 0.42750  0.39900  0.35100  Biso   1.000  O
  O21      1.0000 0.92750  0.60100  0.85100  Biso   1.000  O
  O22      1.0000 0.07250  0.39900  0.85100  Biso   1.000  O
  O23      1.0000 0.57250  0.10100  0.85100  Biso   1.000  O
  O24      1.0000 0.42750  0.89900  0.85100  Biso   1.000  O
  O25      1.0000 0.25690  0.14040  0.03400  Biso   1.000  O
  O26      1.0000 0.74310  0.85960  0.03400  Biso   1.000  O
  O27      1.0000 0.24310  0.64040  0.03400  Biso   1.000  O
  O28      1.0000 0.75690  0.35960  0.03400  Biso   1.000  O
  O29      1.0000 0.25690  0.64040  0.53400  Biso   1.000  O
  O30      1.0000 0.74310  0.35960  0.53400  Biso   1.000  O
  O31      1.0000 0.24310  0.14040  0.53400  Biso   1.000  O
  O32      1.0000 0.75690  0.85960  0.53400  Biso   1.000  O
  O33      1.0000 0.95020  0.23750  0.39140  Biso   1.000  O
  O34      1.0000 0.04980  0.76250  0.39140  Biso   1.000  O
  O35      1.0000 0.54980  0.73750  0.39140  Biso   1.000  O
  O36      1.0000 0.45020  0.26250  0.39140  Biso   1.000  O
  O37      1.0000 0.95020  0.73750  0.89140  Biso   1.000  O
  O38      1.0000 0.04980  0.26250  0.89140  Biso   1.000  O
  O39      1.0000 0.54980  0.23750  0.89140  Biso   1.000  O
  O40      1.0000 0.45020  0.76250  0.89140  Biso   1.000  O
  N1       1.0000 0.62230  0.93900  0.23400  Biso   1.000  N
  N2       1.0000 0.37770  0.06100  0.23400  Biso   1.000  N
  N3       1.0000 0.87770  0.43900  0.23400  Biso   1.000  N
  N4       1.0000 0.12230  0.56100  0.23400  Biso   1.000  N
  N5       1.0000 0.62230  0.43900  0.73400  Biso   1.000  N
  N6       1.0000 0.37770  0.56100  0.73400  Biso   1.000  N
  N7       1.0000 0.87770  0.93900  0.73400  Biso   1.000  N
  N8       1.0000 0.12230  0.06100  0.73400  Biso   1.000  N
  N9       1.0000 0.61910  0.12040  0.41500  Biso   1.000  N
  N10      1.0000 0.38090  0.87960  0.41500  Biso   1.000  N
  N11      1.0000 0.88090  0.62040  0.41500  Biso   1.000  N
  N12      1.0000 0.11910  0.37960  0.41500  Biso   1.000  N
  N13      1.0000 0.61910  0.62040  0.91500  Biso   1.000  N
  N14      1.0000 0.38090  0.37960  0.91500  Biso   1.000  N
  N15      1.0000 0.88090  0.12040  0.91500  Biso   1.000  N
  N16      1.0000 0.11910  0.87960  0.91500  Biso   1.000  N
  N17      1.0000 0.57640  0.02870  0.30400  Biso   1.000  N
  N18      1.0000 0.42360  0.97130  0.30400  Biso   1.000  N
  N19      1.0000 0.92360  0.52870  0.30400  Biso   1.000  N
  N20      1.0000 0.07640  0.47130  0.30400  Biso   1.000  N
  N21      1.0000 0.57640  0.52870  0.80400  Biso   1.000  N
  N22      1.0000 0.42360  0.47130  0.80400  Biso   1.000  N
  N23      1.0000 0.92360  0.02870  0.80400  Biso   1.000  N
  N24      1.0000 0.07640  0.97130  0.80400  Biso   1.000  N
  N25      1.0000 0.66530  0.03690  0.31700  Biso   1.000  N
  N26      1.0000 0.33470  0.96310  0.31700  Biso   1.000  N
  N27      1.0000 0.83470  0.53690  0.31700  Biso   1.000  N
  N28      1.0000 0.16530  0.46310  0.31700  Biso   1.000  N
  N29      1.0000 0.66530  0.53690  0.81700  Biso   1.000  N
  N30      1.0000 0.33470  0.46310  0.81700  Biso   1.000  N
  N31      1.0000 0.83470  0.03690  0.81700  Biso   1.000  N
  N32      1.0000 0.16530  0.96310  0.81700  Biso   1.000  N
  N33      1.0000 0.82170  0.05790  0.35300  Biso   1.000  N
  N34      1.0000 0.17830  0.94210  0.35300  Biso   1.000  N
  N35      1.0000 0.67830  0.55790  0.35300  Biso   1.000  N
  N36      1.0000 0.32170  0.44210  0.35300  Biso   1.000  N
  N37      1.0000 0.82170  0.55790  0.85300  Biso   1.000  N
  N38      1.0000 0.17830  0.44210  0.85300  Biso   1.000  N
  N39      1.0000 0.67830  0.05790  0.85300  Biso   1.000  N
  N40      1.0000 0.32170  0.94210  0.85300  Biso   1.000  N
  C1       1.0000 0.63510  0.92320  0.09100  Biso   1.000  C
  C2       1.0000 0.36490  0.07680  0.09100  Biso   1.000  C
  C3       1.0000 0.86490  0.42320  0.09100  Biso   1.000  C
  C4       1.0000 0.13510  0.57680  0.09100  Biso   1.000  C
  C5       1.0000 0.63510  0.42320  0.59100  Biso   1.000  C
  C6       1.0000 0.36490  0.57680  0.59100  Biso   1.000  C
  C7       1.0000 0.86490  0.92320  0.59100  Biso   1.000  C
  C8       1.0000 0.13510  0.07680  0.59100  Biso   1.000  C
  C9       1.0000 0.63460  0.86370  0.03200  Biso   1.000  C
  C10      1.0000 0.36540  0.13630  0.03200  Biso   1.000  C
  C11      1.0000 0.86540  0.36370  0.03200  Biso   1.000  C
  C12      1.0000 0.13460  0.63630  0.03200  Biso   1.000  C
  C13      1.0000 0.63460  0.36370  0.53200  Biso   1.000  C
  C14      1.0000 0.36540  0.63630  0.53200  Biso   1.000  C
  C15      1.0000 0.86540  0.86370  0.53200  Biso   1.000  C
  C16      1.0000 0.13460  0.13630  0.53200  Biso   1.000  C
  C17      1.0000 0.62030  0.81160  0.11400  Biso   1.000  C
  C18      1.0000 0.37970  0.18840  0.11400  Biso   1.000  C
  C19      1.0000 0.87970  0.31160  0.11400  Biso   1.000  C
  C20      1.0000 0.12030  0.68840  0.11400  Biso   1.000  C
  C21      1.0000 0.62030  0.31160  0.61400  Biso   1.000  C
  C22      1.0000 0.37970  0.68840  0.61400  Biso   1.000  C
  C23      1.0000 0.87970  0.81160  0.61400  Biso   1.000  C
  C24      1.0000 0.12030  0.18840  0.61400  Biso   1.000  C
  C25      1.0000 0.60720  0.82880  0.26100  Biso   1.000  C
  C26      1.0000 0.39280  0.17120  0.26100  Biso   1.000  C
  C27      1.0000 0.89280  0.32880  0.26100  Biso   1.000  C
  C28      1.0000 0.10720  0.67120  0.26100  Biso   1.000  C
  C29      1.0000 0.60720  0.32880  0.76100  Biso   1.000  C
  C30      1.0000 0.39280  0.67120  0.76100  Biso   1.000  C
  C31      1.0000 0.89280  0.82880  0.76100  Biso   1.000  C
  C32      1.0000 0.10720  0.17120  0.76100  Biso   1.000  C
  C33      1.0000 0.60930  0.89160  0.31800  Biso   1.000  C
  C34      1.0000 0.39070  0.10840  0.31800  Biso   1.000  C
  C35      1.0000 0.89070  0.39160  0.31800  Biso   1.000  C
  C36      1.0000 0.10930  0.60840  0.31800  Biso   1.000  C
  C37      1.0000 0.60930  0.39160  0.81800  Biso   1.000  C
  C38      1.0000 0.39070  0.60840  0.81800  Biso   1.000  C
  C39      1.0000 0.89070  0.89160  0.81800  Biso   1.000  C
  C40      1.0000 0.10930  0.10840  0.81800  Biso   1.000  C
  C41      1.0000 0.60860  0.17240  0.32800  Biso   1.000  C
  C42      1.0000 0.39140  0.82760  0.32800  Biso   1.000  C
  C43      1.0000 0.89140  0.67240  0.32800  Biso   1.000  C
  C44      1.0000 0.10860  0.32760  0.32800  Biso   1.000  C
  C45      1.0000 0.60860  0.67240  0.82800  Biso   1.000  C
  C46      1.0000 0.39140  0.32760  0.82800  Biso   1.000  C
  C47      1.0000 0.89140  0.17240  0.82800  Biso   1.000  C
  C48      1.0000 0.10860  0.82760  0.82800  Biso   1.000  C
  C49      1.0000 0.60810  0.23540  0.39000  Biso   1.000  C
  C50      1.0000 0.39190  0.76460  0.39000  Biso   1.000  C
  C51      1.0000 0.89190  0.73540  0.39000  Biso   1.000  C
  C52      1.0000 0.10810  0.26460  0.39000  Biso   1.000  C
  C53      1.0000 0.60810  0.73540  0.89000  Biso   1.000  C
  C54      1.0000 0.39190  0.26460  0.89000  Biso   1.000  C
  C55      1.0000 0.89190  0.23540  0.89000  Biso   1.000  C
  C56      1.0000 0.10810  0.76460  0.89000  Biso   1.000  C
  C57      1.0000 0.61970  0.74490  0.04500  Biso   1.000  C
  C58      1.0000 0.38030  0.25510  0.04500  Biso   1.000  C
  C59      1.0000 0.88030  0.24490  0.04500  Biso   1.000  C
  C60      1.0000 0.11970  0.75510  0.04500  Biso   1.000  C
  C61      1.0000 0.61970  0.24490  0.54500  Biso   1.000  C
  C62      1.0000 0.38030  0.75510  0.54500  Biso   1.000  C
  C63      1.0000 0.88030  0.74490  0.54500  Biso   1.000  C
  C64      1.0000 0.11970  0.25510  0.54500  Biso   1.000  C
  C65      1.0000 0.62920  0.69380  0.13700  Biso   1.000  C
  C66      1.0000 0.37080  0.30620  0.13700  Biso   1.000  C
  C67      1.0000 0.87080  0.19380  0.13700  Biso   1.000  C
  C68      1.0000 0.12920  0.80620  0.13700  Biso   1.000  C
  C69      1.0000 0.62920  0.19380  0.63700  Biso   1.000  C
  C70      1.0000 0.37080  0.80620  0.63700  Biso   1.000  C
  C71      1.0000 0.87080  0.69380  0.63700  Biso   1.000  C
  C72      1.0000 0.12920  0.30620  0.63700  Biso   1.000  C
  C73      1.0000 0.62850  0.13030  0.56700  Biso   1.000  C
  C74      1.0000 0.37150  0.86970  0.56700  Biso   1.000  C
  C75      1.0000 0.87150  0.63030  0.56700  Biso   1.000  C
  C76      1.0000 0.12850  0.36970  0.56700  Biso   1.000  C
  C77      1.0000 0.62850  0.63030  0.06700  Biso   1.000  C
  C78      1.0000 0.37150  0.36970  0.06700  Biso   1.000  C
  C79      1.0000 0.87150  0.13030  0.06700  Biso   1.000  C
  C80      1.0000 0.12850  0.86970  0.06700  Biso   1.000  C
  C81      1.0000 0.56400  0.00330  0.17300  Biso   1.000  C
  C82      1.0000 0.43600  0.99670  0.17300  Biso   1.000  C
  C83      1.0000 0.93600  0.50330  0.17300  Biso   1.000  C
  C84      1.0000 0.06400  0.49670  0.17300  Biso   1.000  C
  C85      1.0000 0.56400  0.50330  0.67300  Biso   1.000  C
  C86      1.0000 0.43600  0.49670  0.67300  Biso   1.000  C
  C87      1.0000 0.93600  0.00330  0.67300  Biso   1.000  C
  C88      1.0000 0.06400  0.99670  0.67300  Biso   1.000  C
  C89      1.0000 0.53320  0.99470  0.17000  Biso   1.000  C
  C90      1.0000 0.46680  0.00530  0.17000  Biso   1.000  C
  C91      1.0000 0.96680  0.49470  0.17000  Biso   1.000  C
  C92      1.0000 0.03320  0.50530  0.17000  Biso   1.000  C
  C93      1.0000 0.53320  0.49470  0.67000  Biso   1.000  C
  C94      1.0000 0.46680  0.50530  0.67000  Biso   1.000  C
  C95      1.0000 0.96680  0.99470  0.67000  Biso   1.000  C
  C96      1.0000 0.03320  0.00530  0.67000  Biso   1.000  C
  C97      1.0000 0.51610  0.00740  0.29900  Biso   1.000  C
  C98      1.0000 0.48390  0.99260  0.29900  Biso   1.000  C
  C99      1.0000 0.98390  0.50740  0.29900  Biso   1.000  C
  C100     1.0000 0.01610  0.49260  0.29900  Biso   1.000  C
  C101     1.0000 0.51610  0.50740  0.79900  Biso   1.000  C
  C102     1.0000 0.48390  0.49260  0.79900  Biso   1.000  C
  C103     1.0000 0.98390  0.00740  0.79900  Biso   1.000  C
  C104     1.0000 0.01610  0.99260  0.79900  Biso   1.000  C
  C105     1.0000 0.52950  0.03450  0.43500  Biso   1.000  C
  C106     1.0000 0.47050  0.96550  0.43500  Biso   1.000  C
  C107     1.0000 0.97050  0.53450  0.43500  Biso   1.000  C
  C108     1.0000 0.02950  0.46550  0.43500  Biso   1.000  C
  C109     1.0000 0.52950  0.53450  0.93500  Biso   1.000  C
  C110     1.0000 0.47050  0.46550  0.93500  Biso   1.000  C
  C111     1.0000 0.97050  0.03450  0.93500  Biso   1.000  C
  C112     1.0000 0.02950  0.96550  0.93500  Biso   1.000  C
  C113     1.0000 0.55990  0.04510  0.43200  Biso   1.000  C
  C114     1.0000 0.44010  0.95490  0.43200  Biso   1.000  C
  C115     1.0000 0.94010  0.54510  0.43200  Biso   1.000  C
  C116     1.0000 0.05990  0.45490  0.43200  Biso   1.000  C
  C117     1.0000 0.55990  0.54510  0.93200  Biso   1.000  C
  C118     1.0000 0.44010  0.45490  0.93200  Biso   1.000  C
  C119     1.0000 0.94010  0.04510  0.93200  Biso   1.000  C
  C120     1.0000 0.05990  0.95490  0.93200  Biso   1.000  C
  C121     1.0000 0.67970  0.09250  0.27100  Biso   1.000  C
  C122     1.0000 0.32030  0.90750  0.27100  Biso   1.000  C
  C123     1.0000 0.82030  0.59250  0.27100  Biso   1.000  C
  C124     1.0000 0.17970  0.40750  0.27100  Biso   1.000  C
  C125     1.0000 0.67970  0.59250  0.77100  Biso   1.000  C
  C126     1.0000 0.32030  0.40750  0.77100  Biso   1.000  C
  C127     1.0000 0.82030  0.09250  0.77100  Biso   1.000  C
  C128     1.0000 0.17970  0.90750  0.77100  Biso   1.000  C
  C129     1.0000 0.70970  0.10070  0.27400  Biso   1.000  C
  C130     1.0000 0.29030  0.89930  0.27400  Biso   1.000  C
  C131     1.0000 0.79030  0.60070  0.27400  Biso   1.000  C
  C132     1.0000 0.20970  0.39930  0.27400  Biso   1.000  C
  C133     1.0000 0.70970  0.60070  0.77400  Biso   1.000  C
  C134     1.0000 0.29030  0.39930  0.77400  Biso   1.000  C
  C135     1.0000 0.79030  0.10070  0.77400  Biso   1.000  C
  C136     1.0000 0.20970  0.89930  0.77400  Biso   1.000  C
  C137     1.0000 0.72720  0.04560  0.32600  Biso   1.000  C
  C138     1.0000 0.27280  0.95440  0.32600  Biso   1.000  C
  C139     1.0000 0.77280  0.54560  0.32600  Biso   1.000  C
  C140     1.0000 0.22720  0.45440  0.32600  Biso   1.000  C
  C141     1.0000 0.72720  0.54560  0.82600  Biso   1.000  C
  C142     1.0000 0.27280  0.45440  0.82600  Biso   1.000  C
  C143     1.0000 0.77280  0.04560  0.82600  Biso   1.000  C
  C144     1.0000 0.22720  0.95440  0.82600  Biso   1.000  C
  C145     1.0000 0.71220  0.99140  0.37900  Biso   1.000  C
  C146     1.0000 0.28780  0.00860  0.37900  Biso   1.000  C
  C147     1.0000 0.78780  0.49140  0.37900  Biso   1.000  C
  C148     1.0000 0.21220  0.50860  0.37900  Biso   1.000  C
  C149     1.0000 0.71220  0.49140  0.87900  Biso   1.000  C
  C150     1.0000 0.28780  0.50860  0.87900  Biso   1.000  C
  C151     1.0000 0.78780  0.99140  0.87900  Biso   1.000  C
  C152     1.0000 0.21220  0.00860  0.87900  Biso   1.000  C
  C153     1.0000 0.68230  0.98840  0.37100  Biso   1.000  C
  C154     1.0000 0.31770  0.01160  0.37100  Biso   1.000  C
  C155     1.0000 0.81770  0.48840  0.37100  Biso   1.000  C
  C156     1.0000 0.18230  0.51160  0.37100  Biso   1.000  C
  C157     1.0000 0.68230  0.48840  0.87100  Biso   1.000  C
  C158     1.0000 0.31770  0.51160  0.87100  Biso   1.000  C
  C159     1.0000 0.81770  0.98840  0.87100  Biso   1.000  C
  C160     1.0000 0.18230  0.01160  0.87100  Biso   1.000  C
  C161     1.0000 0.80830  0.00320  0.32800  Biso   1.000  C
  C162     1.0000 0.19170  0.99680  0.32800  Biso   1.000  C
  C163     1.0000 0.69170  0.50320  0.32800  Biso   1.000  C
  C164     1.0000 0.30830  0.49680  0.32800  Biso   1.000  C
  C165     1.0000 0.80830  0.50320  0.82800  Biso   1.000  C
  C166     1.0000 0.19170  0.49680  0.82800  Biso   1.000  C
  C167     1.0000 0.69170  0.00320  0.82800  Biso   1.000  C
  C168     1.0000 0.30830  0.99680  0.82800  Biso   1.000  C
  C169     1.0000 0.77680  0.99680  0.31600  Biso   1.000  C
  C170     1.0000 0.22320  0.00320  0.31600  Biso   1.000  C
  C171     1.0000 0.72320  0.49680  0.31600  Biso   1.000  C
  C172     1.0000 0.27680  0.50320  0.31600  Biso   1.000  C
  C173     1.0000 0.77680  0.49680  0.81600  Biso   1.000  C
  C174     1.0000 0.22320  0.50320  0.81600  Biso   1.000  C
  C175     1.0000 0.72320  0.99680  0.81600  Biso   1.000  C
  C176     1.0000 0.27680  0.00320  0.81600  Biso   1.000  C
  C177     1.0000 0.76010  0.05160  0.33300  Biso   1.000  C
  C178     1.0000 0.23990  0.94840  0.33300  Biso   1.000  C
  C179     1.0000 0.73990  0.55160  0.33300  Biso   1.000  C
  C180     1.0000 0.26010  0.44840  0.33300  Biso   1.000  C
  C181     1.0000 0.76010  0.55160  0.83300  Biso   1.000  C
  C182     1.0000 0.23990  0.44840  0.83300  Biso   1.000  C
  C183     1.0000 0.73990  0.05160  0.83300  Biso   1.000  C
  C184     1.0000 0.26010  0.94840  0.83300  Biso   1.000  C
  C185     1.0000 0.77430  0.11210  0.35600  Biso   1.000  C
  C186     1.0000 0.22570  0.88790  0.35600  Biso   1.000  C
  C187     1.0000 0.72570  0.61210  0.35600  Biso   1.000  C
  C188     1.0000 0.27430  0.38790  0.35600  Biso   1.000  C
  C189     1.0000 0.77430  0.61210  0.85600  Biso   1.000  C
  C190     1.0000 0.22570  0.38790  0.85600  Biso   1.000  C
  C191     1.0000 0.72570  0.11210  0.85600  Biso   1.000  C
  C192     1.0000 0.27430  0.88790  0.85600  Biso   1.000  C
  C193     1.0000 0.80410  0.11370  0.36200  Biso   1.000  C
  C194     1.0000 0.19590  0.88630  0.36200  Biso   1.000  C
  C195     1.0000 0.69590  0.61370  0.36200  Biso   1.000  C
  C196     1.0000 0.30410  0.38630  0.36200  Biso   1.000  C
  C197     1.0000 0.80410  0.61370  0.86200  Biso   1.000  C
  C198     1.0000 0.19590  0.38630  0.86200  Biso   1.000  C
  C199     1.0000 0.69590  0.11370  0.86200  Biso   1.000  C
  C200     1.0000 0.30410  0.88630  0.86200  Biso   1.000  C
  C201     1.0000 0.27920  0.23260  0.09300  Biso   1.000  C
  C202     1.0000 0.72080  0.76740  0.09300  Biso   1.000  C
  C203     1.0000 0.22080  0.73260  0.09300  Biso   1.000  C
  C204     1.0000 0.77920  0.26740  0.09300  Biso   1.000  C
  C205     1.0000 0.27920  0.73260  0.59300  Biso   1.000  C
  C206     1.0000 0.72080  0.26740  0.59300  Biso   1.000  C
  C207     1.0000 0.22080  0.23260  0.59300  Biso   1.000  C
  C208     1.0000 0.77920  0.76740  0.59300  Biso   1.000  C
  C209     1.0000 0.28130  0.16340  0.07300  Biso   1.000  C
  C210     1.0000 0.71870  0.83660  0.07300  Biso   1.000  C
  C211     1.0000 0.21870  0.66340  0.07300  Biso   1.000  C
  C212     1.0000 0.78130  0.33660  0.07300  Biso   1.000  C
  C213     1.0000 0.28130  0.66340  0.57300  Biso   1.000  C
  C214     1.0000 0.71870  0.33660  0.57300  Biso   1.000  C
  C215     1.0000 0.21870  0.16340  0.57300  Biso   1.000  C
  C216     1.0000 0.78130  0.83660  0.57300  Biso   1.000  C
  C217     1.0000 0.96930  0.23210  0.13170  Biso   1.000  C
  C218     1.0000 0.03070  0.76790  0.13170  Biso   1.000  C
  C219     1.0000 0.53070  0.73210  0.13170  Biso   1.000  C
  C220     1.0000 0.46930  0.26790  0.13170  Biso   1.000  C
  C221     1.0000 0.96930  0.73210  0.63170  Biso   1.000  C
  C222     1.0000 0.03070  0.26790  0.63170  Biso   1.000  C
  C223     1.0000 0.53070  0.23210  0.63170  Biso   1.000  C
  C224     1.0000 0.46930  0.76790  0.63170  Biso   1.000  C
  C225     1.0000 0.97120  0.26180  0.28980  Biso   1.000  C
  C226     1.0000 0.02880  0.73820  0.28980  Biso   1.000  C
  C227     1.0000 0.52880  0.76180  0.28980  Biso   1.000  C
  C228     1.0000 0.47120  0.23820  0.28980  Biso   1.000  C
  C229     1.0000 0.97120  0.76180  0.78980  Biso   1.000  C
  C230     1.0000 0.02880  0.23820  0.78980  Biso   1.000  C
  C231     1.0000 0.52880  0.26180  0.78980  Biso   1.000  C
  C232     1.0000 0.47120  0.73820  0.78980  Biso   1.000  C
  H1       1.0000 0.64480  0.95640  0.02860  Biso   1.000  H
  H2       1.0000 0.35520  0.04360  0.02860  Biso   1.000  H
  H3       1.0000 0.85520  0.45640  0.02860  Biso   1.000  H
  H4       1.0000 0.14480  0.54360  0.02860  Biso   1.000  H
  H5       1.0000 0.64480  0.45640  0.52860  Biso   1.000  H
  H6       1.0000 0.35520  0.54360  0.52860  Biso   1.000  H
  H7       1.0000 0.85520  0.95640  0.52860  Biso   1.000  H
  H8       1.0000 0.14480  0.04360  0.52860  Biso   1.000  H
  H9       1.0000 0.64400  0.85530  0.92830  Biso   1.000  H
  H10      1.0000 0.35600  0.14470  0.92830  Biso   1.000  H
  H11      1.0000 0.85600  0.35530  0.92830  Biso   1.000  H
  H12      1.0000 0.14400  0.64470  0.92830  Biso   1.000  H
  H13      1.0000 0.64400  0.35530  0.42830  Biso   1.000  H
  H14      1.0000 0.35600  0.64470  0.42830  Biso   1.000  H
  H15      1.0000 0.85600  0.85530  0.42830  Biso   1.000  H
  H16      1.0000 0.14400  0.14470  0.42830  Biso   1.000  H
  H17      1.0000 0.59680  0.79700  0.31920  Biso   1.000  H
  H18      1.0000 0.40320  0.20300  0.31920  Biso   1.000  H
  H19      1.0000 0.90320  0.29700  0.31920  Biso   1.000  H
  H20      1.0000 0.09680  0.70300  0.31920  Biso   1.000  H
  H21      1.0000 0.59680  0.29700  0.81920  Biso   1.000  H
  H22      1.0000 0.40320  0.70300  0.81920  Biso   1.000  H
  H23      1.0000 0.90320  0.79700  0.81920  Biso   1.000  H
  H24      1.0000 0.09680  0.20300  0.81920  Biso   1.000  H
  H25      1.0000 0.60110  0.90140  0.41920  Biso   1.000  H
  H26      1.0000 0.39890  0.09860  0.41920  Biso   1.000  H
  H27      1.0000 0.89890  0.40140  0.41920  Biso   1.000  H
  H28      1.0000 0.10110  0.59860  0.41920  Biso   1.000  H
  H29      1.0000 0.60110  0.40140  0.91920  Biso   1.000  H
  H30      1.0000 0.39890  0.59860  0.91920  Biso   1.000  H
  H31      1.0000 0.89890  0.90140  0.91920  Biso   1.000  H
  H32      1.0000 0.10110  0.09860  0.91920  Biso   1.000  H
  H33      1.0000 0.60130  0.16510  0.21910  Biso   1.000  H
  H34      1.0000 0.39870  0.83490  0.21910  Biso   1.000  H
  H35      1.0000 0.89870  0.66510  0.21910  Biso   1.000  H
  H36      1.0000 0.10130  0.33490  0.21910  Biso   1.000  H
  H37      1.0000 0.60130  0.66510  0.71910  Biso   1.000  H
  H38      1.0000 0.39870  0.33490  0.71910  Biso   1.000  H
  H39      1.0000 0.89870  0.16510  0.71910  Biso   1.000  H
  H40      1.0000 0.10130  0.83490  0.71910  Biso   1.000  H
  H41      1.0000 0.60000  0.27060  0.32770  Biso   1.000  H
  H42      1.0000 0.40000  0.72940  0.32770  Biso   1.000  H
  H43      1.0000 0.90000  0.77060  0.32770  Biso   1.000  H
  H44      1.0000 0.10000  0.22940  0.32770  Biso   1.000  H
  H45      1.0000 0.60000  0.77060  0.82770  Biso   1.000  H
  H46      1.0000 0.40000  0.22940  0.82770  Biso   1.000  H
  H47      1.0000 0.90000  0.27060  0.82770  Biso   1.000  H
  H48      1.0000 0.10000  0.72940  0.82770  Biso   1.000  H
  H49      1.0000 0.63610  0.70040  0.24280  Biso   1.000  H
  H50      1.0000 0.36390  0.29960  0.24280  Biso   1.000  H
  H51      1.0000 0.86390  0.20040  0.24280  Biso   1.000  H
  H52      1.0000 0.13610  0.79960  0.24280  Biso   1.000  H
  H53      1.0000 0.63610  0.20040  0.74280  Biso   1.000  H
  H54      1.0000 0.36390  0.79960  0.74280  Biso   1.000  H
  H55      1.0000 0.86390  0.70040  0.74280  Biso   1.000  H
  H56      1.0000 0.13610  0.29960  0.74280  Biso   1.000  H
  H57      1.0000 0.63490  0.09420  0.62760  Biso   1.000  H
  H58      1.0000 0.36510  0.90580  0.62760  Biso   1.000  H
  H59      1.0000 0.86510  0.59420  0.62760  Biso   1.000  H
  H60      1.0000 0.13490  0.40580  0.62760  Biso   1.000  H
  H61      1.0000 0.63490  0.59420  0.12760  Biso   1.000  H
  H62      1.0000 0.36510  0.40580  0.12760  Biso   1.000  H
  H63      1.0000 0.86510  0.09420  0.12760  Biso   1.000  H
  H64      1.0000 0.13490  0.90580  0.12760  Biso   1.000  H
  H65      1.0000 0.57560  0.99120  0.07970  Biso   1.000  H
  H66      1.0000 0.42440  0.00880  0.07970  Biso   1.000  H
  H67      1.0000 0.92440  0.49120  0.07970  Biso   1.000  H
  H68      1.0000 0.07560  0.50880  0.07970  Biso   1.000  H
  H69      1.0000 0.57560  0.49120  0.57970  Biso   1.000  H
  H70      1.0000 0.42440  0.50880  0.57970  Biso   1.000  H
  H71      1.0000 0.92440  0.99120  0.57970  Biso   1.000  H
  H72      1.0000 0.07560  0.00880  0.57970  Biso   1.000  H
  H73      1.0000 0.52420  0.97950  0.07070  Biso   1.000  H
  H74      1.0000 0.47580  0.02050  0.07070  Biso   1.000  H
  H75      1.0000 0.97580  0.47950  0.07070  Biso   1.000  H
  H76      1.0000 0.02420  0.52050  0.07070  Biso   1.000  H
  H77      1.0000 0.52420  0.47950  0.57070  Biso   1.000  H
  H78      1.0000 0.47580  0.52050  0.57070  Biso   1.000  H
  H79      1.0000 0.97580  0.97950  0.57070  Biso   1.000  H
  H80      1.0000 0.02420  0.02050  0.57070  Biso   1.000  H
  H81      1.0000 0.51820  0.04550  0.52600  Biso   1.000  H
  H82      1.0000 0.48180  0.95450  0.52600  Biso   1.000  H
  H83      1.0000 0.98180  0.54550  0.52600  Biso   1.000  H
  H84      1.0000 0.01820  0.45450  0.52600  Biso   1.000  H
  H85      1.0000 0.51820  0.54550  0.02600  Biso   1.000  H
  H86      1.0000 0.48180  0.45450  0.02600  Biso   1.000  H
  H87      1.0000 0.98180  0.04550  0.02600  Biso   1.000  H
  H88      1.0000 0.01820  0.95450  0.02600  Biso   1.000  H
  H89      1.0000 0.56900  0.06460  0.52190  Biso   1.000  H
  H90      1.0000 0.43100  0.93540  0.52190  Biso   1.000  H
  H91      1.0000 0.93100  0.56460  0.52190  Biso   1.000  H
  H92      1.0000 0.06900  0.43540  0.52190  Biso   1.000  H
  H93      1.0000 0.56900  0.56460  0.02190  Biso   1.000  H
  H94      1.0000 0.43100  0.43540  0.02190  Biso   1.000  H
  H95      1.0000 0.93100  0.06460  0.02190  Biso   1.000  H
  H96      1.0000 0.06900  0.93540  0.02190  Biso   1.000  H
  H97      1.0000 0.66810  0.12800  0.23140  Biso   1.000  H
  H98      1.0000 0.33190  0.87200  0.23140  Biso   1.000  H
  H99      1.0000 0.83190  0.62800  0.23140  Biso   1.000  H
  H100     1.0000 0.16810  0.37200  0.23140  Biso   1.000  H
  H101     1.0000 0.66810  0.62800  0.73140  Biso   1.000  H
  H102     1.0000 0.33190  0.37200  0.73140  Biso   1.000  H
  H103     1.0000 0.83190  0.12800  0.73140  Biso   1.000  H
  H104     1.0000 0.16810  0.87200  0.73140  Biso   1.000  H
  H105     1.0000 0.71850  0.14080  0.24090  Biso   1.000  H
  H106     1.0000 0.28150  0.85920  0.24090  Biso   1.000  H
  H107     1.0000 0.78150  0.64080  0.24090  Biso   1.000  H
  H108     1.0000 0.21850  0.35920  0.24090  Biso   1.000  H
  H109     1.0000 0.71850  0.64080  0.74090  Biso   1.000  H
  H110     1.0000 0.28150  0.35920  0.74090  Biso   1.000  H
  H111     1.0000 0.78150  0.14080  0.74090  Biso   1.000  H
  H112     1.0000 0.21850  0.85920  0.74090  Biso   1.000  H
  H113     1.0000 0.72290  0.95550  0.41990  Biso   1.000  H
  H114     1.0000 0.27710  0.04450  0.41990  Biso   1.000  H
  H115     1.0000 0.77710  0.45550  0.41990  Biso   1.000  H
  H116     1.0000 0.22290  0.54450  0.41990  Biso   1.000  H
  H117     1.0000 0.72290  0.45550  0.91990  Biso   1.000  H
  H118     1.0000 0.27710  0.54450  0.91990  Biso   1.000  H
  H119     1.0000 0.77710  0.95550  0.91990  Biso   1.000  H
  H120     1.0000 0.22290  0.04450  0.91990  Biso   1.000  H
  H121     1.0000 0.67300  0.94940  0.40390  Biso   1.000  H
  H122     1.0000 0.32700  0.05060  0.40390  Biso   1.000  H
  H123     1.0000 0.82700  0.44940  0.40390  Biso   1.000  H
  H124     1.0000 0.17300  0.55060  0.40390  Biso   1.000  H
  H125     1.0000 0.67300  0.44940  0.90390  Biso   1.000  H
  H126     1.0000 0.32700  0.55060  0.90390  Biso   1.000  H
  H127     1.0000 0.82700  0.94940  0.90390  Biso   1.000  H
  H128     1.0000 0.17300  0.05060  0.90390  Biso   1.000  H
  H129     1.0000 0.82000  0.96500  0.31630  Biso   1.000  H
  H130     1.0000 0.18000  0.03500  0.31630  Biso   1.000  H
  H131     1.0000 0.68000  0.46500  0.31630  Biso   1.000  H
  H132     1.0000 0.32000  0.53500  0.31630  Biso   1.000  H
  H133     1.0000 0.82000  0.46500  0.81630  Biso   1.000  H
  H134     1.0000 0.18000  0.53500  0.81630  Biso   1.000  H
  H135     1.0000 0.68000  0.96500  0.81630  Biso   1.000  H
  H136     1.0000 0.32000  0.03500  0.81630  Biso   1.000  H
  H137     1.0000 0.76790  0.95560  0.29470  Biso   1.000  H
  H138     1.0000 0.23210  0.04440  0.29470  Biso   1.000  H
  H139     1.0000 0.73210  0.45560  0.29470  Biso   1.000  H
  H140     1.0000 0.26790  0.54440  0.29470  Biso   1.000  H
  H141     1.0000 0.76790  0.45560  0.79470  Biso   1.000  H
  H142     1.0000 0.23210  0.54440  0.79470  Biso   1.000  H
  H143     1.0000 0.73210  0.95560  0.79470  Biso   1.000  H
  H144     1.0000 0.26790  0.04440  0.79470  Biso   1.000  H
  H145     1.0000 0.76310  0.15100  0.36500  Biso   1.000  H
  H146     1.0000 0.23690  0.84900  0.36500  Biso   1.000  H
  H147     1.0000 0.73690  0.65100  0.36500  Biso   1.000  H
  H148     1.0000 0.26310  0.34900  0.36500  Biso   1.000  H
  H149     1.0000 0.76310  0.65100  0.86500  Biso   1.000  H
  H150     1.0000 0.23690  0.34900  0.86500  Biso   1.000  H
  H151     1.0000 0.73690  0.15100  0.86500  Biso   1.000  H
  H152     1.0000 0.26310  0.84900  0.86500  Biso   1.000  H
  H153     1.0000 0.81350  0.15490  0.37040  Biso   1.000  H
  H154     1.0000 0.18650  0.84510  0.37040  Biso   1.000  H
  H155     1.0000 0.68650  0.65490  0.37040  Biso   1.000  H
  H156     1.0000 0.31350  0.34510  0.37040  Biso   1.000  H
  H157     1.0000 0.81350  0.65490  0.87040  Biso   1.000  H
  H158     1.0000 0.18650  0.34510  0.87040  Biso   1.000  H
  H159     1.0000 0.68650  0.15490  0.87040  Biso   1.000  H
  H160     1.0000 0.31350  0.84510  0.87040  Biso   1.000  H
  H161     1.0000 0.29820  0.24970  0.11610  Biso   1.000  H
  H162     1.0000 0.70180  0.75030  0.11610  Biso   1.000  H
  H163     1.0000 0.20180  0.74970  0.11610  Biso   1.000  H
  H164     1.0000 0.79820  0.25030  0.11610  Biso   1.000  H
  H165     1.0000 0.29820  0.74970  0.61610  Biso   1.000  H
  H166     1.0000 0.70180  0.25030  0.61610  Biso   1.000  H
  H167     1.0000 0.20180  0.24970  0.61610  Biso   1.000  H
  H168     1.0000 0.79820  0.75030  0.61610  Biso   1.000  H
  H169     1.0000 0.27230  0.25200  0.99320  Biso   1.000  H
  H170     1.0000 0.72770  0.74800  0.99320  Biso   1.000  H
  H171     1.0000 0.22770  0.75200  0.99320  Biso   1.000  H
  H172     1.0000 0.77230  0.24800  0.99320  Biso   1.000  H
  H173     1.0000 0.27230  0.75200  0.49320  Biso   1.000  H
  H174     1.0000 0.72770  0.24800  0.49320  Biso   1.000  H
  H175     1.0000 0.22770  0.25200  0.49320  Biso   1.000  H
  H176     1.0000 0.77230  0.74800  0.49320  Biso   1.000  H
  H177     1.0000 0.26600  0.24270  0.17700  Biso   1.000  H
  H178     1.0000 0.73400  0.75730  0.17700  Biso   1.000  H
  H179     1.0000 0.23400  0.74270  0.17700  Biso   1.000  H
  H180     1.0000 0.76600  0.25730  0.17700  Biso   1.000  H
  H181     1.0000 0.26600  0.74270  0.67700  Biso   1.000  H
  H182     1.0000 0.73400  0.25730  0.67700  Biso   1.000  H
  H183     1.0000 0.23400  0.24270  0.67700  Biso   1.000  H
  H184     1.0000 0.76600  0.75730  0.67700  Biso   1.000  H
  H185     1.0000 0.28730  0.14410  0.17040  Biso   1.000  H
  H186     1.0000 0.71270  0.85590  0.17040  Biso   1.000  H
  H187     1.0000 0.21270  0.64410  0.17040  Biso   1.000  H
  H188     1.0000 0.78730  0.35590  0.17040  Biso   1.000  H
  H189     1.0000 0.28730  0.64410  0.67040  Biso   1.000  H
  H190     1.0000 0.71270  0.35590  0.67040  Biso   1.000  H
  H191     1.0000 0.21270  0.14410  0.67040  Biso   1.000  H
  H192     1.0000 0.78730  0.85590  0.67040  Biso   1.000  H
  H193     1.0000 0.29510  0.15360  0.98840  Biso   1.000  H
  H194     1.0000 0.70490  0.84640  0.98840  Biso   1.000  H
  H195     1.0000 0.20490  0.65360  0.98840  Biso   1.000  H
  H196     1.0000 0.79510  0.34640  0.98840  Biso   1.000  H
  H197     1.0000 0.29510  0.65360  0.48840  Biso   1.000  H
  H198     1.0000 0.70490  0.34640  0.48840  Biso   1.000  H
  H199     1.0000 0.20490  0.15360  0.48840  Biso   1.000  H
  H200     1.0000 0.79510  0.84640  0.48840  Biso   1.000  H
  H201     1.0000 0.95040  0.24040  0.08640  Biso   1.000  H
  H202     1.0000 0.04960  0.75960  0.08640  Biso   1.000  H
  H203     1.0000 0.54960  0.74040  0.08640  Biso   1.000  H
  H204     1.0000 0.45040  0.25960  0.08640  Biso   1.000  H
  H205     1.0000 0.95040  0.74040  0.58640  Biso   1.000  H
  H206     1.0000 0.04960  0.25960  0.58640  Biso   1.000  H
  H207     1.0000 0.54960  0.24040  0.58640  Biso   1.000  H
  H208     1.0000 0.45040  0.75960  0.58640  Biso   1.000  H
  H209     1.0000 0.98400  0.24990  0.06280  Biso   1.000  H
  H210     1.0000 0.01600  0.75010  0.06280  Biso   1.000  H
  H211     1.0000 0.51600  0.74990  0.06280  Biso   1.000  H
  H212     1.0000 0.48400  0.25010  0.06280  Biso   1.000  H
  H213     1.0000 0.98400  0.74990  0.56280  Biso   1.000  H
  H214     1.0000 0.01600  0.25010  0.56280  Biso   1.000  H
  H215     1.0000 0.51600  0.24990  0.56280  Biso   1.000  H
  H216     1.0000 0.48400  0.75010  0.56280  Biso   1.000  H
  H217     1.0000 0.97210  0.18640  0.14150  Biso   1.000  H
  H218     1.0000 0.02790  0.81360  0.14150  Biso   1.000  H
  H219     1.0000 0.52790  0.68640  0.14150  Biso   1.000  H
  H220     1.0000 0.47210  0.31360  0.14150  Biso   1.000  H
  H221     1.0000 0.97210  0.68640  0.64150  Biso   1.000  H
  H222     1.0000 0.02790  0.31360  0.64150  Biso   1.000  H
  H223     1.0000 0.52790  0.18640  0.64150  Biso   1.000  H
  H224     1.0000 0.47210  0.81360  0.64150  Biso   1.000  H
  H225     1.0000 0.96850  0.30750  0.27920  Biso   1.000  H
  H226     1.0000 0.03150  0.69250  0.27920  Biso   1.000  H
  H227     1.0000 0.53150  0.80750  0.27920  Biso   1.000  H
  H228     1.0000 0.46850  0.19250  0.27920  Biso   1.000  H
  H229     1.0000 0.96850  0.80750  0.77920  Biso   1.000  H
  H230     1.0000 0.03150  0.19250  0.77920  Biso   1.000  H
  H231     1.0000 0.53150  0.30750  0.77920  Biso   1.000  H
  H232     1.0000 0.46850  0.69250  0.77920  Biso   1.000  H
  H233     1.0000 0.99010  0.25330  0.33470  Biso   1.000  H
  H234     1.0000 0.00990  0.74670  0.33470  Biso   1.000  H
  H235     1.0000 0.50990  0.75330  0.33470  Biso   1.000  H
  H236     1.0000 0.49010  0.24670  0.33470  Biso   1.000  H
  H237     1.0000 0.99010  0.75330  0.83470  Biso   1.000  H
  H238     1.0000 0.00990  0.24670  0.83470  Biso   1.000  H
  H239     1.0000 0.50990  0.25330  0.83470  Biso   1.000  H
  H240     1.0000 0.49010  0.74670  0.83470  Biso   1.000  H
