data_image0
_cell_length_a       44.286
_cell_length_b       44.286
_cell_length_c       26.4667
_cell_angle_alpha    90
_cell_angle_beta     90
_cell_angle_gamma    120

_symmetry_space_group_name_H-M    "P 1"
_symmetry_int_tables_number       1

loop_
  _symmetry_equiv_pos_as_xyz
  'x, y, z'

loop_
  _atom_site_label
  _atom_site_occupancy
  _atom_site_fract_x
  _atom_site_fract_y
  _atom_site_fract_z
  _atom_site_thermal_displace_type
  _atom_site_B_iso_or_equiv
  _atom_site_type_symbol
  Cu1      1.0000 0.30689  0.62891  0.42670  Biso   1.000  Cu
  Cu2      1.0000 0.69311  0.37109  0.92670  Biso   1.000  Cu
  Cu3      1.0000 0.37109  0.67798  0.09337  Biso   1.000  Cu
  Cu4      1.0000 0.32202  0.69311  0.76003  Biso   1.000  Cu
  Cu5      1.0000 0.67798  0.30689  0.26003  Biso   1.000  Cu
  Cu6      1.0000 0.62891  0.32202  0.59337  Biso   1.000  Cu
  Cu7      1.0000 0.38954  0.63729  0.27680  Biso   1.000  Cu
  Cu8      1.0000 0.61046  0.36271  0.77680  Biso   1.000  Cu
  Cu9      1.0000 0.36271  0.75225  0.94347  Biso   1.000  Cu
  Cu10     1.0000 0.24775  0.61046  0.61013  Biso   1.000  Cu
  Cu11     1.0000 0.75225  0.38954  0.11013  Biso   1.000  Cu
  Cu12     1.0000 0.63729  0.24775  0.44347  Biso   1.000  Cu
  Cu13     1.0000 0.30461  0.38276  0.14392  Biso   1.000  Cu
  Cu14     1.0000 0.69539  0.61724  0.64392  Biso   1.000  Cu
  Cu15     1.0000 0.61724  0.92185  0.81059  Biso   1.000  Cu
  Cu16     1.0000 0.07815  0.69539  0.47725  Biso   1.000  Cu
  Cu17     1.0000 0.92185  0.30461  0.97725  Biso   1.000  Cu
  Cu18     1.0000 0.38276  0.07815  0.31059  Biso   1.000  Cu
  Cu19     1.0000 0.23602  0.33682  0.32098  Biso   1.000  Cu
  Cu20     1.0000 0.76398  0.66318  0.82098  Biso   1.000  Cu
  Cu21     1.0000 0.66318  0.89920  0.98765  Biso   1.000  Cu
  Cu22     1.0000 0.10080  0.76398  0.65431  Biso   1.000  Cu
  Cu23     1.0000 0.89920  0.23602  0.15431  Biso   1.000  Cu
  Cu24     1.0000 0.33682  0.10080  0.48765  Biso   1.000  Cu
  Cu25     1.0000 0.23286  0.37168  0.97873  Biso   1.000  Cu
  Cu26     1.0000 0.76714  0.62832  0.47873  Biso   1.000  Cu
  Cu27     1.0000 0.62832  0.86118  0.64540  Biso   1.000  Cu
  Cu28     1.0000 0.13882  0.76714  0.31206  Biso   1.000  Cu
  Cu29     1.0000 0.86118  0.23286  0.81206  Biso   1.000  Cu
  Cu30     1.0000 0.37168  0.13882  0.14540  Biso   1.000  Cu
  Cu31     1.0000 0.16758  0.37529  0.81104  Biso   1.000  Cu
  Cu32     1.0000 0.83242  0.62471  0.31104  Biso   1.000  Cu
  Cu33     1.0000 0.62471  0.79229  0.47771  Biso   1.000  Cu
  Cu34     1.0000 0.20771  0.83242  0.14437  Biso   1.000  Cu
  Cu35     1.0000 0.79229  0.16758  0.64437  Biso   1.000  Cu
  Cu36     1.0000 0.37529  0.20771  0.97771  Biso   1.000  Cu
  Cu37     1.0000 0.16371  0.30150  0.65045  Biso   1.000  Cu
  Cu38     1.0000 0.83629  0.69850  0.15045  Biso   1.000  Cu
  Cu39     1.0000 0.69850  0.86221  0.31712  Biso   1.000  Cu
  Cu40     1.0000 0.13779  0.83629  0.98378  Biso   1.000  Cu
  Cu41     1.0000 0.86221  0.16371  0.48378  Biso   1.000  Cu
  Cu42     1.0000 0.30150  0.13779  0.81712  Biso   1.000  Cu
  Cu43     1.0000 0.15311  0.25114  0.46379  Biso   1.000  Cu
  Cu44     1.0000 0.84689  0.74886  0.96379  Biso   1.000  Cu
  Cu45     1.0000 0.74886  0.90197  0.13046  Biso   1.000  Cu
  Cu46     1.0000 0.09803  0.84689  0.79712  Biso   1.000  Cu
  Cu47     1.0000 0.90197  0.15311  0.29712  Biso   1.000  Cu
  Cu48     1.0000 0.25114  0.09803  0.63046  Biso   1.000  Cu
  Ni1      1.0000 0.35966  0.51153  0.21121  Biso   1.000  Ni
  Ni2      1.0000 0.64034  0.48847  0.71121  Biso   1.000  Ni
  Ni3      1.0000 0.48847  0.84813  0.87788  Biso   1.000  Ni
  Ni4      1.0000 0.15187  0.64034  0.54454  Biso   1.000  Ni
  Ni5      1.0000 0.84813  0.35966  0.04454  Biso   1.000  Ni
  Ni6      1.0000 0.51153  0.15187  0.37788  Biso   1.000  Ni
  Ni7      1.0000 0.23329  0.49683  0.70689  Biso   1.000  Ni
  Ni8      1.0000 0.76671  0.50317  0.20689  Biso   1.000  Ni
  Ni9      1.0000 0.50317  0.73646  0.37356  Biso   1.000  Ni
  Ni10     1.0000 0.26354  0.76671  0.04022  Biso   1.000  Ni
  Ni11     1.0000 0.73646  0.23329  0.54022  Biso   1.000  Ni
  Ni12     1.0000 0.49683  0.26354  0.87356  Biso   1.000  Ni
  Ni13     1.0000 0.04248  0.33176  0.90290  Biso   1.000  Ni
  Ni14     1.0000 0.95752  0.66824  0.40290  Biso   1.000  Ni
  Ni15     1.0000 0.66824  0.71072  0.56957  Biso   1.000  Ni
  Ni16     1.0000 0.28928  0.95752  0.23623  Biso   1.000  Ni
  Ni17     1.0000 0.71072  0.04248  0.73623  Biso   1.000  Ni
  Ni18     1.0000 0.33176  0.28928  0.06957  Biso   1.000  Ni
  Ni19     1.0000 0.20769  0.18128  0.54029  Biso   1.000  Ni
  Ni20     1.0000 0.79231  0.81872  0.04029  Biso   1.000  Ni
  Ni21     1.0000 0.81872  0.02641  0.20696  Biso   1.000  Ni
  Ni22     1.0000 0.97359  0.79231  0.87362  Biso   1.000  Ni
  Ni23     1.0000 0.02641  0.20769  0.37362  Biso   1.000  Ni
  Ni24     1.0000 0.18128  0.97359  0.70696  Biso   1.000  Ni
  O1       1.0000 0.31210  0.58860  0.39280  Biso   1.000  O
  O2       1.0000 0.68790  0.41140  0.89280  Biso   1.000  O
  O3       1.0000 0.41140  0.72350  0.05947  Biso   1.000  O
  O4       1.0000 0.27650  0.68790  0.72613  Biso   1.000  O
  O5       1.0000 0.72350  0.31210  0.22613  Biso   1.000  O
  O6       1.0000 0.58860  0.27650  0.55947  Biso   1.000  O
  O7       1.0000 0.33827  0.66510  0.37840  Biso   1.000  O
  O8       1.0000 0.66173  0.33490  0.87840  Biso   1.000  O
  O9       1.0000 0.33490  0.67317  0.04507  Biso   1.000  O
  O10      1.0000 0.32683  0.66173  0.71173  Biso   1.000  O
  O11      1.0000 0.67317  0.33827  0.21173  Biso   1.000  O
  O12      1.0000 0.66510  0.32683  0.54507  Biso   1.000  O
  O13      1.0000 0.37431  0.67420  0.32590  Biso   1.000  O
  O14      1.0000 0.62569  0.32580  0.82590  Biso   1.000  O
  O15      1.0000 0.32580  0.70011  0.99257  Biso   1.000  O
  O16      1.0000 0.29989  0.62569  0.65923  Biso   1.000  O
  O17      1.0000 0.70011  0.37431  0.15923  Biso   1.000  O
  O18      1.0000 0.67420  0.29989  0.49257  Biso   1.000  O
  O19      1.0000 0.38050  0.59220  0.25680  Biso   1.000  O
  O20      1.0000 0.61950  0.40780  0.75680  Biso   1.000  O
  O21      1.0000 0.40780  0.78830  0.92347  Biso   1.000  O
  O22      1.0000 0.21170  0.61950  0.59013  Biso   1.000  O
  O23      1.0000 0.78830  0.38050  0.09013  Biso   1.000  O
  O24      1.0000 0.59220  0.21170  0.42347  Biso   1.000  O
  O25      1.0000 0.36090  0.53940  0.28510  Biso   1.000  O
  O26      1.0000 0.63910  0.46060  0.78510  Biso   1.000  O
  O27      1.0000 0.46060  0.82150  0.95177  Biso   1.000  O
  O28      1.0000 0.17850  0.63910  0.61843  Biso   1.000  O
  O29      1.0000 0.82150  0.36090  0.11843  Biso   1.000  O
  O30      1.0000 0.53940  0.17850  0.45177  Biso   1.000  O
  O31      1.0000 0.44120  0.66760  0.31500  Biso   1.000  O
  O32      1.0000 0.55880  0.33240  0.81500  Biso   1.000  O
  O33      1.0000 0.33240  0.77360  0.98167  Biso   1.000  O
  O34      1.0000 0.22640  0.55880  0.64833  Biso   1.000  O
  O35      1.0000 0.77360  0.44120  0.14833  Biso   1.000  O
  O36      1.0000 0.66760  0.22640  0.48167  Biso   1.000  O
  O37      1.0000 0.34700  0.62060  0.21630  Biso   1.000  O
  O38      1.0000 0.65300  0.37940  0.71630  Biso   1.000  O
  O39      1.0000 0.37940  0.72640  0.88297  Biso   1.000  O
  O40      1.0000 0.27360  0.65300  0.54963  Biso   1.000  O
  O41      1.0000 0.72640  0.34700  0.04963  Biso   1.000  O
  O42      1.0000 0.62060  0.27360  0.38297  Biso   1.000  O
  O43      1.0000 0.34020  0.64060  0.14050  Biso   1.000  O
  O44      1.0000 0.65980  0.35940  0.64050  Biso   1.000  O
  O45      1.0000 0.35940  0.69960  0.80717  Biso   1.000  O
  O46      1.0000 0.30040  0.65980  0.47383  Biso   1.000  O
  O47      1.0000 0.69960  0.34020  0.97383  Biso   1.000  O
  O48      1.0000 0.64060  0.30040  0.30717  Biso   1.000  O
  O49      1.0000 0.40920  0.68570  0.14150  Biso   1.000  O
  O50      1.0000 0.59080  0.31430  0.64150  Biso   1.000  O
  O51      1.0000 0.31430  0.72350  0.80817  Biso   1.000  O
  O52      1.0000 0.27650  0.59080  0.47483  Biso   1.000  O
  O53      1.0000 0.72350  0.40920  0.97483  Biso   1.000  O
  O54      1.0000 0.68570  0.27650  0.30817  Biso   1.000  O
  O55      1.0000 0.26660  0.33520  0.27760  Biso   1.000  O
  O56      1.0000 0.73340  0.66480  0.77760  Biso   1.000  O
  O57      1.0000 0.66480  0.93140  0.94427  Biso   1.000  O
  O58      1.0000 0.06860  0.73340  0.61093  Biso   1.000  O
  O59      1.0000 0.93140  0.26660  0.11093  Biso   1.000  O
  O60      1.0000 0.33520  0.06860  0.44427  Biso   1.000  O
  O61      1.0000 0.23290  0.36790  0.27110  Biso   1.000  O
  O62      1.0000 0.76710  0.63210  0.77110  Biso   1.000  O
  O63      1.0000 0.63210  0.86500  0.93777  Biso   1.000  O
  O64      1.0000 0.13500  0.76710  0.60443  Biso   1.000  O
  O65      1.0000 0.86500  0.23290  0.10443  Biso   1.000  O
  O66      1.0000 0.36790  0.13500  0.43777  Biso   1.000  O
  O67      1.0000 0.26760  0.39480  0.19290  Biso   1.000  O
  O68      1.0000 0.73240  0.60520  0.69290  Biso   1.000  O
  O69      1.0000 0.60520  0.87280  0.85957  Biso   1.000  O
  O70      1.0000 0.12720  0.73240  0.52623  Biso   1.000  O
  O71      1.0000 0.87280  0.26760  0.02623  Biso   1.000  O
  O72      1.0000 0.39480  0.12720  0.35957  Biso   1.000  O
  O73      1.0000 0.32960  0.35410  0.12100  Biso   1.000  O
  O74      1.0000 0.67040  0.64590  0.62100  Biso   1.000  O
  O75      1.0000 0.64590  0.97550  0.78767  Biso   1.000  O
  O76      1.0000 0.02450  0.67040  0.45433  Biso   1.000  O
  O77      1.0000 0.97550  0.32960  0.95433  Biso   1.000  O
  O78      1.0000 0.35410  0.02450  0.28767  Biso   1.000  O
  O79      1.0000 0.22400  0.28970  0.35310  Biso   1.000  O
  O80      1.0000 0.77600  0.71030  0.85310  Biso   1.000  O
  O81      1.0000 0.71030  0.93430  0.01977  Biso   1.000  O
  O82      1.0000 0.06570  0.77600  0.68643  Biso   1.000  O
  O83      1.0000 0.93430  0.22400  0.18643  Biso   1.000  O
  O84      1.0000 0.28970  0.06570  0.51977  Biso   1.000  O
  O85      1.0000 0.20050  0.34170  0.36030  Biso   1.000  O
  O86      1.0000 0.79950  0.65830  0.86030  Biso   1.000  O
  O87      1.0000 0.65830  0.85880  0.02697  Biso   1.000  O
  O88      1.0000 0.14120  0.79950  0.69363  Biso   1.000  O
  O89      1.0000 0.85880  0.20050  0.19363  Biso   1.000  O
  O90      1.0000 0.34170  0.14120  0.52697  Biso   1.000  O
  O91      1.0000 0.16280  0.30370  0.42320  Biso   1.000  O
  O92      1.0000 0.83720  0.69630  0.92320  Biso   1.000  O
  O93      1.0000 0.69630  0.85910  0.08987  Biso   1.000  O
  O94      1.0000 0.14090  0.83720  0.75653  Biso   1.000  O
  O95      1.0000 0.85910  0.16280  0.25653  Biso   1.000  O
  O96      1.0000 0.30370  0.14090  0.58987  Biso   1.000  O
  O97      1.0000 0.25800  0.33990  0.10330  Biso   1.000  O
  O98      1.0000 0.74200  0.66010  0.60330  Biso   1.000  O
  O99      1.0000 0.66010  0.91810  0.76997  Biso   1.000  O
  O100     1.0000 0.08190  0.74200  0.43663  Biso   1.000  O
  O101     1.0000 0.91810  0.25800  0.93663  Biso   1.000  O
  O102     1.0000 0.33990  0.08190  0.26997  Biso   1.000  O
  O103     1.0000 0.23050  0.33930  0.03050  Biso   1.000  O
  O104     1.0000 0.76950  0.66070  0.53050  Biso   1.000  O
  O105     1.0000 0.66070  0.89120  0.69717  Biso   1.000  O
  O106     1.0000 0.10880  0.76950  0.36383  Biso   1.000  O
  O107     1.0000 0.89120  0.23050  0.86383  Biso   1.000  O
  O108     1.0000 0.33930  0.10880  0.19717  Biso   1.000  O
  O109     1.0000 0.27740  0.40750  0.01310  Biso   1.000  O
  O110     1.0000 0.72260  0.59250  0.51310  Biso   1.000  O
  O111     1.0000 0.59250  0.86990  0.67977  Biso   1.000  O
  O112     1.0000 0.13010  0.72260  0.34643  Biso   1.000  O
  O113     1.0000 0.86990  0.27740  0.84643  Biso   1.000  O
  O114     1.0000 0.40750  0.13010  0.17977  Biso   1.000  O
  O115     1.0000 0.33910  0.43440  0.16990  Biso   1.000  O
  O116     1.0000 0.66090  0.56560  0.66990  Biso   1.000  O
  O117     1.0000 0.56560  0.90470  0.83657  Biso   1.000  O
  O118     1.0000 0.09530  0.66090  0.50323  Biso   1.000  O
  O119     1.0000 0.90470  0.33910  0.00323  Biso   1.000  O
  O120     1.0000 0.43440  0.09530  0.33657  Biso   1.000  O
  O121     1.0000 0.36160  0.49100  0.14260  Biso   1.000  O
  O122     1.0000 0.63840  0.50900  0.64260  Biso   1.000  O
  O123     1.0000 0.50900  0.87060  0.80927  Biso   1.000  O
  O124     1.0000 0.12940  0.63840  0.47593  Biso   1.000  O
  O125     1.0000 0.87060  0.36160  0.97593  Biso   1.000  O
  O126     1.0000 0.49100  0.12940  0.30927  Biso   1.000  O
  O127     1.0000 0.23183  0.40230  0.93080  Biso   1.000  O
  O128     1.0000 0.76817  0.59770  0.43080  Biso   1.000  O
  O129     1.0000 0.59770  0.82953  0.59747  Biso   1.000  O
  O130     1.0000 0.17047  0.76817  0.26413  Biso   1.000  O
  O131     1.0000 0.82953  0.23183  0.76413  Biso   1.000  O
  O132     1.0000 0.40230  0.17047  0.09747  Biso   1.000  O
  O133     1.0000 0.19590  0.33350  0.94210  Biso   1.000  O
  O134     1.0000 0.80410  0.66650  0.44210  Biso   1.000  O
  O135     1.0000 0.66650  0.86240  0.60877  Biso   1.000  O
  O136     1.0000 0.13760  0.80410  0.27543  Biso   1.000  O
  O137     1.0000 0.86240  0.19590  0.77543  Biso   1.000  O
  O138     1.0000 0.33350  0.13760  0.10877  Biso   1.000  O
  O139     1.0000 0.16351  0.33220  0.86880  Biso   1.000  O
  O140     1.0000 0.83649  0.66780  0.36880  Biso   1.000  O
  O141     1.0000 0.66780  0.83131  0.53547  Biso   1.000  O
  O142     1.0000 0.16869  0.83649  0.20213  Biso   1.000  O
  O143     1.0000 0.83131  0.16351  0.70213  Biso   1.000  O
  O144     1.0000 0.33220  0.16869  0.03547  Biso   1.000  O
  O145     1.0000 0.18890  0.42430  0.78000  Biso   1.000  O
  O146     1.0000 0.81110  0.57570  0.28000  Biso   1.000  O
  O147     1.0000 0.57570  0.76460  0.44667  Biso   1.000  O
  O148     1.0000 0.23540  0.81110  0.11333  Biso   1.000  O
  O149     1.0000 0.76460  0.18890  0.61333  Biso   1.000  O
  O150     1.0000 0.42430  0.23540  0.94667  Biso   1.000  O
  O151     1.0000 0.22830  0.47560  0.78480  Biso   1.000  O
  O152     1.0000 0.77170  0.52440  0.28480  Biso   1.000  O
  O153     1.0000 0.52440  0.75270  0.45147  Biso   1.000  O
  O154     1.0000 0.24730  0.77170  0.11813  Biso   1.000  O
  O155     1.0000 0.75270  0.22830  0.61813  Biso   1.000  O
  O156     1.0000 0.47560  0.24730  0.95147  Biso   1.000  O
  O157     1.0000 0.20550  0.36772  0.76570  Biso   1.000  O
  O158     1.0000 0.79450  0.63228  0.26570  Biso   1.000  O
  O159     1.0000 0.63228  0.83778  0.43237  Biso   1.000  O
  O160     1.0000 0.16222  0.79450  0.09903  Biso   1.000  O
  O161     1.0000 0.83778  0.20550  0.59903  Biso   1.000  O
  O162     1.0000 0.36772  0.16222  0.93237  Biso   1.000  O
  O163     1.0000 0.19820  0.33816  0.69740  Biso   1.000  O
  O164     1.0000 0.80180  0.66184  0.19740  Biso   1.000  O
  O165     1.0000 0.66184  0.86004  0.36407  Biso   1.000  O
  O166     1.0000 0.13996  0.80180  0.03073  Biso   1.000  O
  O167     1.0000 0.86004  0.19820  0.53073  Biso   1.000  O
  O168     1.0000 0.33816  0.13996  0.86407  Biso   1.000  O
  O169     1.0000 0.13110  0.31392  0.68800  Biso   1.000  O
  O170     1.0000 0.86890  0.68608  0.18800  Biso   1.000  O
  O171     1.0000 0.68608  0.81718  0.35467  Biso   1.000  O
  O172     1.0000 0.18282  0.86890  0.02133  Biso   1.000  O
  O173     1.0000 0.81718  0.13110  0.52133  Biso   1.000  O
  O174     1.0000 0.31392  0.18282  0.85467  Biso   1.000  O
  O175     1.0000 0.11490  0.36330  0.83970  Biso   1.000  O
  O176     1.0000 0.88510  0.63670  0.33970  Biso   1.000  O
  O177     1.0000 0.63670  0.75160  0.50637  Biso   1.000  O
  O178     1.0000 0.24840  0.88510  0.17303  Biso   1.000  O
  O179     1.0000 0.75160  0.11490  0.67303  Biso   1.000  O
  O180     1.0000 0.36330  0.24840  0.00637  Biso   1.000  O
  O181     1.0000 0.06100  0.32830  0.83350  Biso   1.000  O
  O182     1.0000 0.93900  0.67170  0.33350  Biso   1.000  O
  O183     1.0000 0.67170  0.73270  0.50017  Biso   1.000  O
  O184     1.0000 0.26730  0.93900  0.16683  Biso   1.000  O
  O185     1.0000 0.73270  0.06100  0.66683  Biso   1.000  O
  O186     1.0000 0.32830  0.26730  0.00017  Biso   1.000  O
  O187     1.0000 0.12895  0.27025  0.60260  Biso   1.000  O
  O188     1.0000 0.87105  0.72975  0.10260  Biso   1.000  O
  O189     1.0000 0.72975  0.85870  0.26927  Biso   1.000  O
  O190     1.0000 0.14130  0.87105  0.93593  Biso   1.000  O
  O191     1.0000 0.85870  0.12895  0.43593  Biso   1.000  O
  O192     1.0000 0.27025  0.14130  0.76927  Biso   1.000  O
  O193     1.0000 0.19350  0.30370  0.59840  Biso   1.000  O
  O194     1.0000 0.80650  0.69630  0.09840  Biso   1.000  O
  O195     1.0000 0.69630  0.88980  0.26507  Biso   1.000  O
  O196     1.0000 0.11020  0.80650  0.93173  Biso   1.000  O
  O197     1.0000 0.88980  0.19350  0.43173  Biso   1.000  O
  O198     1.0000 0.30370  0.11020  0.76507  Biso   1.000  O
  O199     1.0000 0.19480  0.28250  0.51630  Biso   1.000  O
  O200     1.0000 0.80520  0.71750  0.01630  Biso   1.000  O
  O201     1.0000 0.71750  0.91230  0.18297  Biso   1.000  O
  O202     1.0000 0.08770  0.80520  0.84963  Biso   1.000  O
  O203     1.0000 0.91230  0.19480  0.34963  Biso   1.000  O
  O204     1.0000 0.28250  0.08770  0.68297  Biso   1.000  O
  O205     1.0000 0.10360  0.23170  0.42420  Biso   1.000  O
  O206     1.0000 0.89640  0.76830  0.92420  Biso   1.000  O
  O207     1.0000 0.76830  0.87190  0.09087  Biso   1.000  O
  O208     1.0000 0.12810  0.89640  0.75753  Biso   1.000  O
  O209     1.0000 0.87190  0.10360  0.25753  Biso   1.000  O
  O210     1.0000 0.23170  0.12810  0.59087  Biso   1.000  O
  O211     1.0000 0.16550  0.21140  0.48620  Biso   1.000  O
  O212     1.0000 0.83450  0.78860  0.98620  Biso   1.000  O
  O213     1.0000 0.78860  0.95410  0.15287  Biso   1.000  O
  O214     1.0000 0.04590  0.83450  0.81953  Biso   1.000  O
  O215     1.0000 0.95410  0.16550  0.31953  Biso   1.000  O
  O216     1.0000 0.21140  0.04590  0.65287  Biso   1.000  O
  O217     1.0000 0.20460  0.19730  0.46710  Biso   1.000  O
  O218     1.0000 0.79540  0.80270  0.96710  Biso   1.000  O
  O219     1.0000 0.80270  0.00730  0.13377  Biso   1.000  O
  O220     1.0000 0.99270  0.79540  0.80043  Biso   1.000  O
  O221     1.0000 0.00730  0.20460  0.30043  Biso   1.000  O
  O222     1.0000 0.19730  0.99270  0.63377  Biso   1.000  O
  O223     1.0000 0.49180  0.72040  0.29600  Biso   1.000  O
  O224     1.0000 0.50820  0.27960  0.79600  Biso   1.000  O
  O225     1.0000 0.27960  0.77140  0.96267  Biso   1.000  O
  O226     1.0000 0.22860  0.50820  0.62933  Biso   1.000  O
  O227     1.0000 0.77140  0.49180  0.12933  Biso   1.000  O
  O228     1.0000 0.72040  0.22860  0.46267  Biso   1.000  O
  O229     1.0000 0.32480  0.29790  0.14780  Biso   1.000  O
  O230     1.0000 0.67520  0.70210  0.64780  Biso   1.000  O
  O231     1.0000 0.70210  0.02690  0.81447  Biso   1.000  O
  O232     1.0000 0.97310  0.67520  0.48113  Biso   1.000  O
  O233     1.0000 0.02690  0.32480  0.98113  Biso   1.000  O
  O234     1.0000 0.29790  0.97310  0.31447  Biso   1.000  O
  O235     1.0000 0.04990  0.21550  0.45030  Biso   1.000  O
  O236     1.0000 0.95010  0.78450  0.95030  Biso   1.000  O
  O237     1.0000 0.78450  0.83440  0.11697  Biso   1.000  O
  O238     1.0000 0.16560  0.95010  0.78363  Biso   1.000  O
  O239     1.0000 0.83440  0.04990  0.28363  Biso   1.000  O
  O240     1.0000 0.21550  0.16560  0.61697  Biso   1.000  O
  O241     1.0000 0.25410  0.61640  0.38530  Biso   1.000  O
  O242     1.0000 0.74590  0.38360  0.88530  Biso   1.000  O
  O243     1.0000 0.38360  0.63770  0.05197  Biso   1.000  O
  O244     1.0000 0.36230  0.74590  0.71863  Biso   1.000  O
  O245     1.0000 0.63770  0.25410  0.21863  Biso   1.000  O
  O246     1.0000 0.61640  0.36230  0.55197  Biso   1.000  O
  O247     1.0000 0.35880  0.66420  0.46270  Biso   1.000  O
  O248     1.0000 0.64120  0.33580  0.96270  Biso   1.000  O
  O249     1.0000 0.33580  0.69460  0.12937  Biso   1.000  O
  O250     1.0000 0.30540  0.64120  0.79603  Biso   1.000  O
  O251     1.0000 0.69460  0.35880  0.29603  Biso   1.000  O
  O252     1.0000 0.66420  0.30540  0.62937  Biso   1.000  O
  O253     1.0000 0.27430  0.37380  0.37880  Biso   1.000  O
  O254     1.0000 0.72570  0.62620  0.87880  Biso   1.000  O
  O255     1.0000 0.62620  0.90050  0.04547  Biso   1.000  O
  O256     1.0000 0.09950  0.72570  0.71213  Biso   1.000  O
  O257     1.0000 0.90050  0.27430  0.21213  Biso   1.000  O
  O258     1.0000 0.37380  0.09950  0.54547  Biso   1.000  O
  O259     1.0000 0.27670  0.36100  0.94460  Biso   1.000  O
  O260     1.0000 0.72330  0.63900  0.44460  Biso   1.000  O
  O261     1.0000 0.63900  0.91570  0.61127  Biso   1.000  O
  O262     1.0000 0.08430  0.72330  0.27793  Biso   1.000  O
  O263     1.0000 0.91570  0.27670  0.77793  Biso   1.000  O
  O264     1.0000 0.36100  0.08430  0.11127  Biso   1.000  O
  O265     1.0000 0.17150  0.26360  0.71280  Biso   1.000  O
  O266     1.0000 0.82850  0.73640  0.21280  Biso   1.000  O
  O267     1.0000 0.73640  0.90790  0.37947  Biso   1.000  O
  O268     1.0000 0.09210  0.82850  0.04613  Biso   1.000  O
  O269     1.0000 0.90790  0.17150  0.54613  Biso   1.000  O
  O270     1.0000 0.26360  0.09210  0.87947  Biso   1.000  O
  N1       1.0000 0.35590  0.60750  0.33170  Biso   1.000  N
  N2       1.0000 0.64410  0.39250  0.83170  Biso   1.000  N
  N3       1.0000 0.39250  0.74840  0.99837  Biso   1.000  N
  N4       1.0000 0.25160  0.64410  0.66503  Biso   1.000  N
  N5       1.0000 0.74840  0.35590  0.16503  Biso   1.000  N
  N6       1.0000 0.60750  0.25160  0.49837  Biso   1.000  N
  N7       1.0000 0.42080  0.66589  0.22430  Biso   1.000  N
  N8       1.0000 0.57920  0.33411  0.72430  Biso   1.000  N
  N9       1.0000 0.33411  0.75491  0.89097  Biso   1.000  N
  N10      1.0000 0.24509  0.57920  0.55763  Biso   1.000  N
  N11      1.0000 0.75491  0.42080  0.05763  Biso   1.000  N
  N12      1.0000 0.66589  0.24509  0.39097  Biso   1.000  N
  N13      1.0000 0.29820  0.35940  0.20680  Biso   1.000  N
  N14      1.0000 0.70180  0.64060  0.70680  Biso   1.000  N
  N15      1.0000 0.64060  0.93880  0.87347  Biso   1.000  N
  N16      1.0000 0.06120  0.70180  0.54013  Biso   1.000  N
  N17      1.0000 0.93880  0.29820  0.04013  Biso   1.000  N
  N18      1.0000 0.35940  0.06120  0.37347  Biso   1.000  N
  N19      1.0000 0.30640  0.40970  0.08670  Biso   1.000  N
  N20      1.0000 0.69360  0.59030  0.58670  Biso   1.000  N
  N21      1.0000 0.59030  0.89670  0.75337  Biso   1.000  N
  N22      1.0000 0.10330  0.69360  0.42003  Biso   1.000  N
  N23      1.0000 0.89670  0.30640  0.92003  Biso   1.000  N
  N24      1.0000 0.40970  0.10330  0.25337  Biso   1.000  N
  N25      1.0000 0.20130  0.40150  0.86110  Biso   1.000  N
  N26      1.0000 0.79870  0.59850  0.36110  Biso   1.000  N
  N27      1.0000 0.59850  0.79980  0.52777  Biso   1.000  N
  N28      1.0000 0.20020  0.79870  0.19443  Biso   1.000  N
  N29      1.0000 0.79980  0.20130  0.69443  Biso   1.000  N
  N30      1.0000 0.40150  0.20020  0.02777  Biso   1.000  N
  N31      1.0000 0.13740  0.34540  0.76180  Biso   1.000  N
  N32      1.0000 0.86260  0.65460  0.26180  Biso   1.000  N
  N33      1.0000 0.65460  0.79200  0.42847  Biso   1.000  N
  N34      1.0000 0.20800  0.86260  0.09513  Biso   1.000  N
  N35      1.0000 0.79200  0.13740  0.59513  Biso   1.000  N
  N36      1.0000 0.34540  0.20800  0.92847  Biso   1.000  N
  N37      1.0000 0.38270  0.48460  0.25130  Biso   1.000  N
  N38      1.0000 0.61730  0.51540  0.75130  Biso   1.000  N
  N39      1.0000 0.51540  0.89810  0.91797  Biso   1.000  N
  N40      1.0000 0.10190  0.61730  0.58463  Biso   1.000  N
  N41      1.0000 0.89810  0.38270  0.08463  Biso   1.000  N
  N42      1.0000 0.48460  0.10190  0.41797  Biso   1.000  N
  N43      1.0000 0.31250  0.46590  0.22510  Biso   1.000  N
  N44      1.0000 0.68750  0.53410  0.72510  Biso   1.000  N
  N45      1.0000 0.53410  0.84660  0.89177  Biso   1.000  N
  N46      1.0000 0.15340  0.68750  0.55843  Biso   1.000  N
  N47      1.0000 0.84660  0.31250  0.05843  Biso   1.000  N
  N48      1.0000 0.46590  0.15340  0.39177  Biso   1.000  N
  N49      1.0000 0.32610  0.53650  0.18020  Biso   1.000  N
  N50      1.0000 0.67390  0.46350  0.68020  Biso   1.000  N
  N51      1.0000 0.46350  0.78960  0.84687  Biso   1.000  N
  N52      1.0000 0.21040  0.67390  0.51353  Biso   1.000  N
  N53      1.0000 0.78960  0.32610  0.01353  Biso   1.000  N
  N54      1.0000 0.53650  0.21040  0.34687  Biso   1.000  N
  N55      1.0000 0.28930  0.54070  0.72750  Biso   1.000  N
  N56      1.0000 0.71070  0.45930  0.22750  Biso   1.000  N
  N57      1.0000 0.45930  0.74860  0.39417  Biso   1.000  N
  N58      1.0000 0.25140  0.71070  0.06083  Biso   1.000  N
  N59      1.0000 0.74860  0.28930  0.56083  Biso   1.000  N
  N60      1.0000 0.54070  0.25140  0.89417  Biso   1.000  N
  N61      1.0000 0.20910  0.52600  0.73090  Biso   1.000  N
  N62      1.0000 0.79090  0.47400  0.23090  Biso   1.000  N
  N63      1.0000 0.47400  0.68310  0.39757  Biso   1.000  N
  N64      1.0000 0.31690  0.79090  0.06423  Biso   1.000  N
  N65      1.0000 0.68310  0.20910  0.56423  Biso   1.000  N
  N66      1.0000 0.52600  0.31690  0.89757  Biso   1.000  N
  N67      1.0000 0.18200  0.45390  0.68850  Biso   1.000  N
  N68      1.0000 0.81800  0.54610  0.18850  Biso   1.000  N
  N69      1.0000 0.54610  0.72810  0.35517  Biso   1.000  N
  N70      1.0000 0.27190  0.81800  0.02183  Biso   1.000  N
  N71      1.0000 0.72810  0.18200  0.52183  Biso   1.000  N
  N72      1.0000 0.45390  0.27190  0.85517  Biso   1.000  N
  N73      1.0000 0.25800  0.46930  0.67910  Biso   1.000  N
  N74      1.0000 0.74200  0.53070  0.17910  Biso   1.000  N
  N75      1.0000 0.53070  0.78870  0.34577  Biso   1.000  N
  N76      1.0000 0.21130  0.74200  0.01243  Biso   1.000  N
  N77      1.0000 0.78870  0.25800  0.51243  Biso   1.000  N
  N78      1.0000 0.46930  0.21130  0.84577  Biso   1.000  N
  N79      1.0000 0.02540  0.36730  0.86260  Biso   1.000  N
  N80      1.0000 0.97460  0.63270  0.36260  Biso   1.000  N
  N81      1.0000 0.63270  0.65810  0.52927  Biso   1.000  N
  N82      1.0000 0.34190  0.97460  0.19593  Biso   1.000  N
  N83      1.0000 0.65810  0.02540  0.69593  Biso   1.000  N
  N84      1.0000 0.36730  0.34190  0.02927  Biso   1.000  N
  N85      1.0000 0.08980  0.37950  0.92940  Biso   1.000  N
  N86      1.0000 0.91020  0.62050  0.42940  Biso   1.000  N
  N87      1.0000 0.62050  0.71030  0.59607  Biso   1.000  N
  N88      1.0000 0.28970  0.91020  0.26273  Biso   1.000  N
  N89      1.0000 0.71030  0.08980  0.76273  Biso   1.000  N
  N90      1.0000 0.37950  0.28970  0.09607  Biso   1.000  N
  N91      1.0000 0.05980  0.30210  0.92970  Biso   1.000  N
  N92      1.0000 0.94020  0.69790  0.42970  Biso   1.000  N
  N93      1.0000 0.69790  0.75770  0.59637  Biso   1.000  N
  N94      1.0000 0.24230  0.94020  0.26303  Biso   1.000  N
  N95      1.0000 0.75770  0.05980  0.76303  Biso   1.000  N
  N96      1.0000 0.30210  0.24230  0.09637  Biso   1.000  N
  N97      1.0000 0.99530  0.28550  0.87930  Biso   1.000  N
  N98      1.0000 0.00470  0.71450  0.37930  Biso   1.000  N
  N99      1.0000 0.71450  0.70980  0.54597  Biso   1.000  N
  N100     1.0000 0.29020  0.00470  0.21263  Biso   1.000  N
  N101     1.0000 0.70980  0.99530  0.71263  Biso   1.000  N
  N102     1.0000 0.28550  0.29020  0.04597  Biso   1.000  N
  N103     1.0000 0.12400  0.24552  0.51980  Biso   1.000  N
  N104     1.0000 0.87600  0.75448  0.01980  Biso   1.000  N
  N105     1.0000 0.75448  0.87848  0.18647  Biso   1.000  N
  N106     1.0000 0.12152  0.87600  0.85313  Biso   1.000  N
  N107     1.0000 0.87848  0.12400  0.35313  Biso   1.000  N
  N108     1.0000 0.24552  0.12152  0.68647  Biso   1.000  N
  N109     1.0000 0.17810  0.25190  0.40600  Biso   1.000  N
  N110     1.0000 0.82190  0.74810  0.90600  Biso   1.000  N
  N111     1.0000 0.74810  0.92620  0.07267  Biso   1.000  N
  N112     1.0000 0.07380  0.82190  0.73933  Biso   1.000  N
  N113     1.0000 0.92620  0.17810  0.23933  Biso   1.000  N
  N114     1.0000 0.25190  0.07380  0.57267  Biso   1.000  N
  N115     1.0000 0.20200  0.12850  0.50090  Biso   1.000  N
  N116     1.0000 0.79800  0.87150  0.00090  Biso   1.000  N
  N117     1.0000 0.87150  0.07350  0.16757  Biso   1.000  N
  N118     1.0000 0.92650  0.79800  0.83423  Biso   1.000  N
  N119     1.0000 0.07350  0.20200  0.33423  Biso   1.000  N
  N120     1.0000 0.12850  0.92650  0.66757  Biso   1.000  N
  N121     1.0000 0.15120  0.15140  0.55780  Biso   1.000  N
  N122     1.0000 0.84880  0.84860  0.05780  Biso   1.000  N
  N123     1.0000 0.84860  0.99980  0.22447  Biso   1.000  N
  N124     1.0000 0.00020  0.84880  0.89113  Biso   1.000  N
  N125     1.0000 0.99980  0.15120  0.39113  Biso   1.000  N
  N126     1.0000 0.15140  0.00020  0.72447  Biso   1.000  N
  N127     1.0000 0.22380  0.23270  0.57320  Biso   1.000  N
  N128     1.0000 0.77620  0.76730  0.07320  Biso   1.000  N
  N129     1.0000 0.76730  0.99110  0.23987  Biso   1.000  N
  N130     1.0000 0.00890  0.77620  0.90653  Biso   1.000  N
  N131     1.0000 0.99110  0.22380  0.40653  Biso   1.000  N
  N132     1.0000 0.23270  0.00890  0.73987  Biso   1.000  N
  N133     1.0000 0.25740  0.19420  0.50770  Biso   1.000  N
  N134     1.0000 0.74260  0.80580  0.00770  Biso   1.000  N
  N135     1.0000 0.80580  0.06320  0.17437  Biso   1.000  N
  N136     1.0000 0.93680  0.74260  0.84103  Biso   1.000  N
  N137     1.0000 0.06320  0.25740  0.34103  Biso   1.000  N
  N138     1.0000 0.19420  0.93680  0.67437  Biso   1.000  N
  N139     1.0000 0.41270  0.55620  0.20010  Biso   1.000  N
  N140     1.0000 0.58730  0.44380  0.70010  Biso   1.000  N
  N141     1.0000 0.44380  0.85650  0.86677  Biso   1.000  N
  N142     1.0000 0.14350  0.58730  0.53343  Biso   1.000  N
  N143     1.0000 0.85650  0.41270  0.03343  Biso   1.000  N
  N144     1.0000 0.55620  0.14350  0.36677  Biso   1.000  N
  C1       1.0000 0.35150  0.65010  0.35290  Biso   1.000  C
  C2       1.0000 0.64850  0.34990  0.85290  Biso   1.000  C
  C3       1.0000 0.34990  0.70140  0.01957  Biso   1.000  C
  C4       1.0000 0.29860  0.64850  0.68623  Biso   1.000  C
  C5       1.0000 0.70140  0.35150  0.18623  Biso   1.000  C
  C6       1.0000 0.65010  0.29860  0.51957  Biso   1.000  C
  C7       1.0000 0.33603  0.61130  0.36360  Biso   1.000  C
  C8       1.0000 0.66397  0.38870  0.86360  Biso   1.000  C
  C9       1.0000 0.38870  0.72473  0.03027  Biso   1.000  C
  C10      1.0000 0.27527  0.66397  0.69693  Biso   1.000  C
  C11      1.0000 0.72473  0.33603  0.19693  Biso   1.000  C
  C12      1.0000 0.61130  0.27527  0.53027  Biso   1.000  C
  C13      1.0000 0.36450  0.57960  0.33960  Biso   1.000  C
  C14      1.0000 0.63550  0.42040  0.83960  Biso   1.000  C
  C15      1.0000 0.42040  0.78490  0.00627  Biso   1.000  C
  C16      1.0000 0.21510  0.63550  0.67293  Biso   1.000  C
  C17      1.0000 0.78490  0.36450  0.17293  Biso   1.000  C
  C18      1.0000 0.57960  0.21510  0.50627  Biso   1.000  C
  C19      1.0000 0.36960  0.56620  0.28830  Biso   1.000  C
  C20      1.0000 0.63040  0.43380  0.78830  Biso   1.000  C
  C21      1.0000 0.43380  0.80340  0.95497  Biso   1.000  C
  C22      1.0000 0.19660  0.63040  0.62163  Biso   1.000  C
  C23      1.0000 0.80340  0.36960  0.12163  Biso   1.000  C
  C24      1.0000 0.56620  0.19660  0.45497  Biso   1.000  C
  C25      1.0000 0.37490  0.55930  0.37630  Biso   1.000  C
  C26      1.0000 0.62510  0.44070  0.87630  Biso   1.000  C
  C27      1.0000 0.44070  0.81560  0.04297  Biso   1.000  C
  C28      1.0000 0.18440  0.62510  0.70963  Biso   1.000  C
  C29      1.0000 0.81560  0.37490  0.20963  Biso   1.000  C
  C30      1.0000 0.55930  0.18440  0.54297  Biso   1.000  C
  H1       1.0000 0.38940  0.55040  0.36050  Biso   1.000  H
  H2       1.0000 0.61060  0.44960  0.86050  Biso   1.000  H
  H3       1.0000 0.44960  0.83900  0.02717  Biso   1.000  H
  H4       1.0000 0.16100  0.61060  0.69383  Biso   1.000  H
  H5       1.0000 0.83900  0.38940  0.19383  Biso   1.000  H
  H6       1.0000 0.55040  0.16100  0.52717  Biso   1.000  H
  C31      1.0000 0.38750  0.57530  0.43060  Biso   1.000  C
  C32      1.0000 0.61250  0.42470  0.93060  Biso   1.000  C
  C33      1.0000 0.42470  0.81220  0.09727  Biso   1.000  C
  C34      1.0000 0.18780  0.61250  0.76393  Biso   1.000  C
  C35      1.0000 0.81220  0.38750  0.26393  Biso   1.000  C
  C36      1.0000 0.57530  0.18780  0.59727  Biso   1.000  C
  H7       1.0000 0.40360  0.60040  0.42770  Biso   1.000  H
  H8       1.0000 0.59640  0.39960  0.92770  Biso   1.000  H
  H9       1.0000 0.39960  0.80320  0.09437  Biso   1.000  H
  H10      1.0000 0.19680  0.59640  0.76103  Biso   1.000  H
  H11      1.0000 0.80320  0.40360  0.26103  Biso   1.000  H
  H12      1.0000 0.60040  0.19680  0.59437  Biso   1.000  H
  H13      1.0000 0.39940  0.56420  0.44680  Biso   1.000  H
  H14      1.0000 0.60060  0.43580  0.94680  Biso   1.000  H
  H15      1.0000 0.43580  0.83520  0.11347  Biso   1.000  H
  H16      1.0000 0.16480  0.60060  0.78013  Biso   1.000  H
  H17      1.0000 0.83520  0.39940  0.28013  Biso   1.000  H
  H18      1.0000 0.56420  0.16480  0.61347  Biso   1.000  H
  H19      1.0000 0.36730  0.57110  0.45100  Biso   1.000  H
  H20      1.0000 0.63270  0.42890  0.95100  Biso   1.000  H
  H21      1.0000 0.42890  0.79620  0.11767  Biso   1.000  H
  H22      1.0000 0.20380  0.63270  0.78433  Biso   1.000  H
  H23      1.0000 0.79620  0.36730  0.28433  Biso   1.000  H
  H24      1.0000 0.57110  0.20380  0.61767  Biso   1.000  H
  C37      1.0000 0.33560  0.53090  0.38360  Biso   1.000  C
  C38      1.0000 0.66440  0.46910  0.88360  Biso   1.000  C
  C39      1.0000 0.46910  0.80470  0.05027  Biso   1.000  C
  C40      1.0000 0.19530  0.66440  0.71693  Biso   1.000  C
  C41      1.0000 0.80470  0.33560  0.21693  Biso   1.000  C
  C42      1.0000 0.53090  0.19530  0.55027  Biso   1.000  C
  H25      1.0000 0.32320  0.54130  0.40000  Biso   1.000  H
  H26      1.0000 0.67680  0.45870  0.90000  Biso   1.000  H
  H27      1.0000 0.45870  0.78190  0.06667  Biso   1.000  H
  H28      1.0000 0.21810  0.67680  0.73333  Biso   1.000  H
  H29      1.0000 0.78190  0.32320  0.23333  Biso   1.000  H
  H30      1.0000 0.54130  0.21810  0.56667  Biso   1.000  H
  H31      1.0000 0.33410  0.51200  0.40470  Biso   1.000  H
  H32      1.0000 0.66590  0.48800  0.90470  Biso   1.000  H
  H33      1.0000 0.48800  0.82210  0.07137  Biso   1.000  H
  H34      1.0000 0.17790  0.66590  0.73803  Biso   1.000  H
  H35      1.0000 0.82210  0.33410  0.23803  Biso   1.000  H
  H36      1.0000 0.51200  0.17790  0.57137  Biso   1.000  H
  H37      1.0000 0.32510  0.52160  0.35050  Biso   1.000  H
  H38      1.0000 0.67490  0.47840  0.85050  Biso   1.000  H
  H39      1.0000 0.47840  0.80350  0.01717  Biso   1.000  H
  H40      1.0000 0.19650  0.67490  0.68383  Biso   1.000  H
  H41      1.0000 0.80350  0.32510  0.18383  Biso   1.000  H
  H42      1.0000 0.52160  0.19650  0.51717  Biso   1.000  H
  C43      1.0000 0.35890  0.64220  0.17870  Biso   1.000  C
  C44      1.0000 0.64110  0.35780  0.67870  Biso   1.000  C
  C45      1.0000 0.35780  0.71670  0.84537  Biso   1.000  C
  C46      1.0000 0.28330  0.64110  0.51203  Biso   1.000  C
  C47      1.0000 0.71670  0.35890  0.01203  Biso   1.000  C
  C48      1.0000 0.64220  0.28330  0.34537  Biso   1.000  C
  C49      1.0000 0.39800  0.66710  0.18170  Biso   1.000  C
  C50      1.0000 0.60200  0.33290  0.68170  Biso   1.000  C
  C51      1.0000 0.33290  0.73090  0.84837  Biso   1.000  C
  C52      1.0000 0.26910  0.60200  0.51503  Biso   1.000  C
  C53      1.0000 0.73090  0.39800  0.01503  Biso   1.000  C
  C54      1.0000 0.66710  0.26910  0.34837  Biso   1.000  C
  C55      1.0000 0.25490  0.37630  0.23370  Biso   1.000  C
  C56      1.0000 0.74510  0.62370  0.73370  Biso   1.000  C
  C57      1.0000 0.62370  0.87860  0.90037  Biso   1.000  C
  C58      1.0000 0.12140  0.74510  0.56703  Biso   1.000  C
  C59      1.0000 0.87860  0.25490  0.06703  Biso   1.000  C
  C60      1.0000 0.37630  0.12140  0.40037  Biso   1.000  C
  C61      1.0000 0.27470  0.35593  0.23910  Biso   1.000  C
  C62      1.0000 0.72530  0.64407  0.73910  Biso   1.000  C
  C63      1.0000 0.64407  0.91877  0.90577  Biso   1.000  C
  C64      1.0000 0.08123  0.72530  0.57243  Biso   1.000  C
  C65      1.0000 0.91877  0.27470  0.07243  Biso   1.000  C
  C66      1.0000 0.35593  0.08123  0.40577  Biso   1.000  C
  C67      1.0000 0.28800  0.32210  0.20160  Biso   1.000  C
  C68      1.0000 0.71200  0.67790  0.70160  Biso   1.000  C
  C69      1.0000 0.67790  0.96590  0.86827  Biso   1.000  C
  C70      1.0000 0.03410  0.71200  0.53493  Biso   1.000  C
  C71      1.0000 0.96590  0.28800  0.03493  Biso   1.000  C
  C72      1.0000 0.32210  0.03410  0.36827  Biso   1.000  C
  H43      1.0000 0.27060  0.31310  0.17340  Biso   1.000  H
  H44      1.0000 0.72940  0.68690  0.67340  Biso   1.000  H
  H45      1.0000 0.68690  0.95750  0.84007  Biso   1.000  H
  H46      1.0000 0.04250  0.72940  0.50673  Biso   1.000  H
  H47      1.0000 0.95750  0.27060  0.00673  Biso   1.000  H
  H48      1.0000 0.31310  0.04250  0.34007  Biso   1.000  H
  C73      1.0000 0.32310  0.33460  0.17610  Biso   1.000  C
  C74      1.0000 0.67690  0.66540  0.67610  Biso   1.000  C
  C75      1.0000 0.66540  0.98850  0.84277  Biso   1.000  C
  C76      1.0000 0.01150  0.67690  0.50943  Biso   1.000  C
  C77      1.0000 0.98850  0.32310  0.00943  Biso   1.000  C
  C78      1.0000 0.33460  0.01150  0.34277  Biso   1.000  C
  C79      1.0000 0.27020  0.29560  0.24520  Biso   1.000  C
  C80      1.0000 0.72980  0.70440  0.74520  Biso   1.000  C
  C81      1.0000 0.70440  0.97460  0.91187  Biso   1.000  C
  C82      1.0000 0.02540  0.72980  0.57853  Biso   1.000  C
  C83      1.0000 0.97460  0.27020  0.07853  Biso   1.000  C
  C84      1.0000 0.29560  0.02540  0.41187  Biso   1.000  C
  H49      1.0000 0.25370  0.30250  0.26000  Biso   1.000  H
  H50      1.0000 0.74630  0.69750  0.76000  Biso   1.000  H
  H51      1.0000 0.69750  0.95120  0.92667  Biso   1.000  H
  H52      1.0000 0.04880  0.74630  0.59333  Biso   1.000  H
  H53      1.0000 0.95120  0.25370  0.09333  Biso   1.000  H
  H54      1.0000 0.30250  0.04880  0.42667  Biso   1.000  H
  C85      1.0000 0.30030  0.30940  0.28400  Biso   1.000  C
  C86      1.0000 0.69970  0.69060  0.78400  Biso   1.000  C
  C87      1.0000 0.69060  0.99090  0.95067  Biso   1.000  C
  C88      1.0000 0.00910  0.69970  0.61733  Biso   1.000  C
  C89      1.0000 0.99090  0.30030  0.11733  Biso   1.000  C
  C90      1.0000 0.30940  0.00910  0.45067  Biso   1.000  C
  H55      1.0000 0.29220  0.29510  0.31470  Biso   1.000  H
  H56      1.0000 0.70780  0.70490  0.81470  Biso   1.000  H
  H57      1.0000 0.70490  0.99710  0.98137  Biso   1.000  H
  H58      1.0000 0.00290  0.70780  0.64803  Biso   1.000  H
  H59      1.0000 0.99710  0.29220  0.14803  Biso   1.000  H
  H60      1.0000 0.29510  0.00290  0.48137  Biso   1.000  H
  H61      1.0000 0.30770  0.33370  0.29240  Biso   1.000  H
  H62      1.0000 0.69230  0.66630  0.79240  Biso   1.000  H
  H63      1.0000 0.66630  0.97400  0.95907  Biso   1.000  H
  H64      1.0000 0.02600  0.69230  0.62573  Biso   1.000  H
  H65      1.0000 0.97400  0.30770  0.12573  Biso   1.000  H
  H66      1.0000 0.33370  0.02600  0.45907  Biso   1.000  H
  H67      1.0000 0.32000  0.30810  0.26960  Biso   1.000  H
  H68      1.0000 0.68000  0.69190  0.76960  Biso   1.000  H
  H69      1.0000 0.69190  0.01190  0.93627  Biso   1.000  H
  H70      1.0000 0.98810  0.68000  0.60293  Biso   1.000  H
  H71      1.0000 0.01190  0.32000  0.10293  Biso   1.000  H
  H72      1.0000 0.30810  0.98810  0.43627  Biso   1.000  H
  C91      1.0000 0.24990  0.25560  0.24810  Biso   1.000  C
  C92      1.0000 0.75010  0.74440  0.74810  Biso   1.000  C
  C93      1.0000 0.74440  0.99430  0.91477  Biso   1.000  C
  C94      1.0000 0.00570  0.75010  0.58143  Biso   1.000  C
  C95      1.0000 0.99430  0.24990  0.08143  Biso   1.000  C
  C96      1.0000 0.25560  0.00570  0.41477  Biso   1.000  C
  H73      1.0000 0.22480  0.24730  0.24880  Biso   1.000  H
  H74      1.0000 0.77520  0.75270  0.74880  Biso   1.000  H
  H75      1.0000 0.75270  0.97750  0.91547  Biso   1.000  H
  H76      1.0000 0.02250  0.77520  0.58213  Biso   1.000  H
  H77      1.0000 0.97750  0.22480  0.08213  Biso   1.000  H
  H78      1.0000 0.24730  0.02250  0.41547  Biso   1.000  H
  H79      1.0000 0.25650  0.24800  0.27900  Biso   1.000  H
  H80      1.0000 0.74350  0.75200  0.77900  Biso   1.000  H
  H81      1.0000 0.75200  0.00850  0.94567  Biso   1.000  H
  H82      1.0000 0.99150  0.74350  0.61233  Biso   1.000  H
  H83      1.0000 0.00850  0.25650  0.11233  Biso   1.000  H
  H84      1.0000 0.24800  0.99150  0.44567  Biso   1.000  H
  H85      1.0000 0.25550  0.24590  0.21860  Biso   1.000  H
  H86      1.0000 0.74450  0.75410  0.71860  Biso   1.000  H
  H87      1.0000 0.75410  0.00960  0.88527  Biso   1.000  H
  H88      1.0000 0.99040  0.74450  0.55193  Biso   1.000  H
  H89      1.0000 0.00960  0.25550  0.05193  Biso   1.000  H
  H90      1.0000 0.24590  0.99040  0.38527  Biso   1.000  H
  C97      1.0000 0.19990  0.28750  0.38400  Biso   1.000  C
  C98      1.0000 0.80010  0.71250  0.88400  Biso   1.000  C
  C99      1.0000 0.71250  0.91240  0.05067  Biso   1.000  C
  C100     1.0000 0.08760  0.80010  0.71733  Biso   1.000  C
  C101     1.0000 0.91240  0.19990  0.21733  Biso   1.000  C
  C102     1.0000 0.28750  0.08760  0.55067  Biso   1.000  C
  C103     1.0000 0.18707  0.31360  0.38890  Biso   1.000  C
  C104     1.0000 0.81293  0.68640  0.88890  Biso   1.000  C
  C105     1.0000 0.68640  0.87347  0.05557  Biso   1.000  C
  C106     1.0000 0.12653  0.81293  0.72223  Biso   1.000  C
  C107     1.0000 0.87347  0.18707  0.22223  Biso   1.000  C
  C108     1.0000 0.31360  0.12653  0.55557  Biso   1.000  C
  C109     1.0000 0.25540  0.35560  0.06320  Biso   1.000  C
  C110     1.0000 0.74460  0.64440  0.56320  Biso   1.000  C
  C111     1.0000 0.64440  0.89980  0.72987  Biso   1.000  C
  C112     1.0000 0.10020  0.74460  0.39653  Biso   1.000  C
  C113     1.0000 0.89980  0.25540  0.89653  Biso   1.000  C
  C114     1.0000 0.35560  0.10020  0.22987  Biso   1.000  C
  C115     1.0000 0.28165  0.39364  0.05380  Biso   1.000  C
  C116     1.0000 0.71835  0.60636  0.55380  Biso   1.000  C
  C117     1.0000 0.60636  0.88801  0.72047  Biso   1.000  C
  C118     1.0000 0.11199  0.71835  0.38713  Biso   1.000  C
  C119     1.0000 0.88801  0.28165  0.88713  Biso   1.000  C
  C120     1.0000 0.39364  0.11199  0.22047  Biso   1.000  C
  C121     1.0000 0.33380  0.44670  0.07690  Biso   1.000  C
  C122     1.0000 0.66620  0.55330  0.57690  Biso   1.000  C
  C123     1.0000 0.55330  0.88710  0.74357  Biso   1.000  C
  C124     1.0000 0.11290  0.66620  0.41023  Biso   1.000  C
  C125     1.0000 0.88710  0.33380  0.91023  Biso   1.000  C
  C126     1.0000 0.44670  0.11290  0.24357  Biso   1.000  C
  H91      1.0000 0.32280  0.46000  0.06350  Biso   1.000  H
  H92      1.0000 0.67720  0.54000  0.56350  Biso   1.000  H
  H93      1.0000 0.54000  0.86280  0.73017  Biso   1.000  H
  H94      1.0000 0.13720  0.67720  0.39683  Biso   1.000  H
  H95      1.0000 0.86280  0.32280  0.89683  Biso   1.000  H
  H96      1.0000 0.46000  0.13720  0.23017  Biso   1.000  H
  C127     1.0000 0.34150  0.45410  0.13340  Biso   1.000  C
  C128     1.0000 0.65850  0.54590  0.63340  Biso   1.000  C
  C129     1.0000 0.54590  0.88740  0.80007  Biso   1.000  C
  C130     1.0000 0.11260  0.65850  0.46673  Biso   1.000  C
  C131     1.0000 0.88740  0.34150  0.96673  Biso   1.000  C
  C132     1.0000 0.45410  0.11260  0.30007  Biso   1.000  C
  C133     1.0000 0.36330  0.45090  0.04100  Biso   1.000  C
  C134     1.0000 0.63670  0.54910  0.54100  Biso   1.000  C
  C135     1.0000 0.54910  0.91240  0.70767  Biso   1.000  C
  C136     1.0000 0.08760  0.63670  0.37433  Biso   1.000  C
  C137     1.0000 0.91240  0.36330  0.87433  Biso   1.000  C
  C138     1.0000 0.45090  0.08760  0.20767  Biso   1.000  C
  H97      1.0000 0.37950  0.44450  0.05800  Biso   1.000  H
  H98      1.0000 0.62050  0.55550  0.55800  Biso   1.000  H
  H99      1.0000 0.55550  0.93500  0.72467  Biso   1.000  H
  H100     1.0000 0.06500  0.62050  0.39133  Biso   1.000  H
  H101     1.0000 0.93500  0.37950  0.89133  Biso   1.000  H
  H102     1.0000 0.44450  0.06500  0.22467  Biso   1.000  H
  C139     1.0000 0.38010  0.49060  0.03390  Biso   1.000  C
  C140     1.0000 0.61990  0.50940  0.53390  Biso   1.000  C
  C141     1.0000 0.50940  0.88950  0.70057  Biso   1.000  C
  C142     1.0000 0.11050  0.61990  0.36723  Biso   1.000  C
  C143     1.0000 0.88950  0.38010  0.86723  Biso   1.000  C
  C144     1.0000 0.49060  0.11050  0.20057  Biso   1.000  C
  H103     1.0000 0.36720  0.49910  0.05380  Biso   1.000  H
  H104     1.0000 0.63280  0.50090  0.55380  Biso   1.000  H
  H105     1.0000 0.50090  0.86810  0.72047  Biso   1.000  H
  H106     1.0000 0.13190  0.63280  0.38713  Biso   1.000  H
  H107     1.0000 0.86810  0.36720  0.88713  Biso   1.000  H
  H108     1.0000 0.49910  0.13190  0.22047  Biso   1.000  H
  H109     1.0000 0.37940  0.49580  0.99810  Biso   1.000  H
  H110     1.0000 0.62060  0.50420  0.49810  Biso   1.000  H
  H111     1.0000 0.50420  0.88360  0.66477  Biso   1.000  H
  H112     1.0000 0.11640  0.62060  0.33143  Biso   1.000  H
  H113     1.0000 0.88360  0.37940  0.83143  Biso   1.000  H
  H114     1.0000 0.49580  0.11640  0.16477  Biso   1.000  H
  H115     1.0000 0.40440  0.50210  0.04540  Biso   1.000  H
  H116     1.0000 0.59560  0.49790  0.54540  Biso   1.000  H
  H117     1.0000 0.49790  0.90230  0.71207  Biso   1.000  H
  H118     1.0000 0.09770  0.59560  0.37873  Biso   1.000  H
  H119     1.0000 0.90230  0.40440  0.87873  Biso   1.000  H
  H120     1.0000 0.50210  0.09770  0.21207  Biso   1.000  H
  C145     1.0000 0.35720  0.43930  0.98270  Biso   1.000  C
  C146     1.0000 0.64280  0.56070  0.48270  Biso   1.000  C
  C147     1.0000 0.56070  0.91790  0.64937  Biso   1.000  C
  C148     1.0000 0.08210  0.64280  0.31603  Biso   1.000  C
  C149     1.0000 0.91790  0.35720  0.81603  Biso   1.000  C
  C150     1.0000 0.43930  0.08210  0.14937  Biso   1.000  C
  H121     1.0000 0.33370  0.43360  0.97250  Biso   1.000  H
  H122     1.0000 0.66630  0.56640  0.47250  Biso   1.000  H
  H123     1.0000 0.56640  0.90010  0.63917  Biso   1.000  H
  H124     1.0000 0.09990  0.66630  0.30583  Biso   1.000  H
  H125     1.0000 0.90010  0.33370  0.80583  Biso   1.000  H
  H126     1.0000 0.43360  0.09990  0.13917  Biso   1.000  H
  H127     1.0000 0.35980  0.41870  0.97820  Biso   1.000  H
  H128     1.0000 0.64020  0.58130  0.47820  Biso   1.000  H
  H129     1.0000 0.58130  0.94110  0.64487  Biso   1.000  H
  H130     1.0000 0.05890  0.64020  0.31153  Biso   1.000  H
  H131     1.0000 0.94110  0.35980  0.81153  Biso   1.000  H
  H132     1.0000 0.41870  0.05890  0.14487  Biso   1.000  H
  H133     1.0000 0.37440  0.45840  0.96170  Biso   1.000  H
  H134     1.0000 0.62560  0.54160  0.46170  Biso   1.000  H
  H135     1.0000 0.54160  0.91600  0.62837  Biso   1.000  H
  H136     1.0000 0.08400  0.62560  0.29503  Biso   1.000  H
  H137     1.0000 0.91600  0.37440  0.79503  Biso   1.000  H
  H138     1.0000 0.45840  0.08400  0.12837  Biso   1.000  H
  C151     1.0000 0.20760  0.38608  0.89690  Biso   1.000  C
  C152     1.0000 0.79240  0.61392  0.39690  Biso   1.000  C
  C153     1.0000 0.61392  0.82152  0.56357  Biso   1.000  C
  C154     1.0000 0.17848  0.79240  0.23023  Biso   1.000  C
  C155     1.0000 0.82152  0.20760  0.73023  Biso   1.000  C
  C156     1.0000 0.38608  0.17848  0.06357  Biso   1.000  C
  C157     1.0000 0.18754  0.34699  0.90420  Biso   1.000  C
  C158     1.0000 0.81246  0.65301  0.40420  Biso   1.000  C
  C159     1.0000 0.65301  0.84055  0.57087  Biso   1.000  C
  C160     1.0000 0.15945  0.81246  0.23753  Biso   1.000  C
  C161     1.0000 0.84055  0.18754  0.73753  Biso   1.000  C
  C162     1.0000 0.34699  0.15945  0.07087  Biso   1.000  C
  C163     1.0000 0.21880  0.44030  0.85770  Biso   1.000  C
  C164     1.0000 0.78120  0.55970  0.35770  Biso   1.000  C
  C165     1.0000 0.55970  0.77850  0.52437  Biso   1.000  C
  C166     1.0000 0.22150  0.78120  0.19103  Biso   1.000  C
  C167     1.0000 0.77850  0.21880  0.69103  Biso   1.000  C
  C168     1.0000 0.44030  0.22150  0.02437  Biso   1.000  C
  H139     1.0000 0.24450  0.45140  0.86340  Biso   1.000  H
  H140     1.0000 0.75550  0.54860  0.36340  Biso   1.000  H
  H141     1.0000 0.54860  0.79310  0.53007  Biso   1.000  H
  H142     1.0000 0.20690  0.75550  0.19673  Biso   1.000  H
  H143     1.0000 0.79310  0.24450  0.69673  Biso   1.000  H
  H144     1.0000 0.45140  0.20690  0.03007  Biso   1.000  H
  C169     1.0000 0.21030  0.44310  0.80290  Biso   1.000  C
  C170     1.0000 0.78970  0.55690  0.30290  Biso   1.000  C
  C171     1.0000 0.55690  0.76720  0.46957  Biso   1.000  C
  C172     1.0000 0.23280  0.78970  0.13623  Biso   1.000  C
  C173     1.0000 0.76720  0.21030  0.63623  Biso   1.000  C
  C174     1.0000 0.44310  0.23280  0.96957  Biso   1.000  C
  C175     1.0000 0.20140  0.45260  0.89720  Biso   1.000  C
  C176     1.0000 0.79860  0.54740  0.39720  Biso   1.000  C
  C177     1.0000 0.54740  0.74880  0.56387  Biso   1.000  C
  C178     1.0000 0.25120  0.79860  0.23053  Biso   1.000  C
  C179     1.0000 0.74880  0.20140  0.73053  Biso   1.000  C
  C180     1.0000 0.45260  0.25120  0.06387  Biso   1.000  C
  H145     1.0000 0.21760  0.47820  0.89230  Biso   1.000  H
  H146     1.0000 0.78240  0.52180  0.39230  Biso   1.000  H
  H147     1.0000 0.52180  0.73940  0.55897  Biso   1.000  H
  H148     1.0000 0.26060  0.78240  0.22563  Biso   1.000  H
  H149     1.0000 0.73940  0.21760  0.72563  Biso   1.000  H
  H150     1.0000 0.47820  0.26060  0.05897  Biso   1.000  H
  C181     1.0000 0.16750  0.45280  0.88390  Biso   1.000  C
  C182     1.0000 0.83250  0.54720  0.38390  Biso   1.000  C
  C183     1.0000 0.54720  0.71470  0.55057  Biso   1.000  C
  C184     1.0000 0.28530  0.83250  0.21723  Biso   1.000  C
  C185     1.0000 0.71470  0.16750  0.71723  Biso   1.000  C
  C186     1.0000 0.45280  0.28530  0.05057  Biso   1.000  C
  H151     1.0000 0.16130  0.44570  0.84870  Biso   1.000  H
  H152     1.0000 0.83870  0.55430  0.34870  Biso   1.000  H
  H153     1.0000 0.55430  0.71560  0.51537  Biso   1.000  H
  H154     1.0000 0.28440  0.83870  0.18203  Biso   1.000  H
  H155     1.0000 0.71560  0.16130  0.68203  Biso   1.000  H
  H156     1.0000 0.44570  0.28440  0.01537  Biso   1.000  H
  H157     1.0000 0.17120  0.47640  0.88860  Biso   1.000  H
  H158     1.0000 0.82880  0.52360  0.38860  Biso   1.000  H
  H159     1.0000 0.52360  0.69480  0.55527  Biso   1.000  H
  H160     1.0000 0.30520  0.82880  0.22193  Biso   1.000  H
  H161     1.0000 0.69480  0.17120  0.72193  Biso   1.000  H
  H162     1.0000 0.47640  0.30520  0.05527  Biso   1.000  H
  H163     1.0000 0.14860  0.43660  0.90610  Biso   1.000  H
  H164     1.0000 0.85140  0.56340  0.40610  Biso   1.000  H
  H165     1.0000 0.56340  0.71200  0.57277  Biso   1.000  H
  H166     1.0000 0.28800  0.85140  0.23943  Biso   1.000  H
  H167     1.0000 0.71200  0.14860  0.73943  Biso   1.000  H
  H168     1.0000 0.43660  0.28800  0.07277  Biso   1.000  H
  C187     1.0000 0.20140  0.45360  0.95640  Biso   1.000  C
  C188     1.0000 0.79860  0.54640  0.45640  Biso   1.000  C
  C189     1.0000 0.54640  0.74780  0.62307  Biso   1.000  C
  C190     1.0000 0.25220  0.79860  0.28973  Biso   1.000  C
  C191     1.0000 0.74780  0.20140  0.78973  Biso   1.000  C
  C192     1.0000 0.45360  0.25220  0.12307  Biso   1.000  C
  H169     1.0000 0.18670  0.42990  0.96950  Biso   1.000  H
  H170     1.0000 0.81330  0.57010  0.46950  Biso   1.000  H
  H171     1.0000 0.57010  0.75680  0.63617  Biso   1.000  H
  H172     1.0000 0.24320  0.81330  0.30283  Biso   1.000  H
  H173     1.0000 0.75680  0.18670  0.80283  Biso   1.000  H
  H174     1.0000 0.42990  0.24320  0.13617  Biso   1.000  H
  H175     1.0000 0.19220  0.46840  0.96790  Biso   1.000  H
  H176     1.0000 0.80780  0.53160  0.46790  Biso   1.000  H
  H177     1.0000 0.53160  0.72380  0.63457  Biso   1.000  H
  H178     1.0000 0.27620  0.80780  0.30123  Biso   1.000  H
  H179     1.0000 0.72380  0.19220  0.80123  Biso   1.000  H
  H180     1.0000 0.46840  0.27620  0.13457  Biso   1.000  H
  H181     1.0000 0.22530  0.46300  0.96890  Biso   1.000  H
  H182     1.0000 0.77470  0.53700  0.46890  Biso   1.000  H
  H183     1.0000 0.53700  0.76230  0.63557  Biso   1.000  H
  H184     1.0000 0.23770  0.77470  0.30223  Biso   1.000  H
  H185     1.0000 0.76230  0.22530  0.80223  Biso   1.000  H
  H186     1.0000 0.46300  0.23770  0.13557  Biso   1.000  H
  C193     1.0000 0.18630  0.34832  0.73180  Biso   1.000  C
  C194     1.0000 0.81370  0.65168  0.23180  Biso   1.000  C
  C195     1.0000 0.65168  0.83798  0.39847  Biso   1.000  C
  C196     1.0000 0.16202  0.81370  0.06513  Biso   1.000  C
  C197     1.0000 0.83798  0.18630  0.56513  Biso   1.000  C
  C198     1.0000 0.34832  0.16202  0.89847  Biso   1.000  C
  C199     1.0000 0.14750  0.33373  0.72500  Biso   1.000  C
  C200     1.0000 0.85250  0.66627  0.22500  Biso   1.000  C
  C201     1.0000 0.66627  0.81377  0.39167  Biso   1.000  C
  C202     1.0000 0.18623  0.85250  0.05833  Biso   1.000  C
  C203     1.0000 0.81377  0.14750  0.55833  Biso   1.000  C
  C204     1.0000 0.33373  0.18623  0.89167  Biso   1.000  C
  C205     1.0000 0.10040  0.32030  0.77090  Biso   1.000  C
  C206     1.0000 0.89960  0.67970  0.27090  Biso   1.000  C
  C207     1.0000 0.67970  0.78010  0.43757  Biso   1.000  C
  C208     1.0000 0.21990  0.89960  0.10423  Biso   1.000  C
  C209     1.0000 0.78010  0.10040  0.60423  Biso   1.000  C
  C210     1.0000 0.32030  0.21990  0.93757  Biso   1.000  C
  H187     1.0000 0.10520  0.30490  0.79290  Biso   1.000  H
  H188     1.0000 0.89480  0.69510  0.29290  Biso   1.000  H
  H189     1.0000 0.69510  0.80030  0.45957  Biso   1.000  H
  H190     1.0000 0.19970  0.89480  0.12623  Biso   1.000  H
  H191     1.0000 0.80030  0.10520  0.62623  Biso   1.000  H
  H192     1.0000 0.30490  0.19970  0.95957  Biso   1.000  H
  C211     1.0000 0.09750  0.34070  0.81480  Biso   1.000  C
  C212     1.0000 0.90250  0.65930  0.31480  Biso   1.000  C
  C213     1.0000 0.65930  0.75680  0.48147  Biso   1.000  C
  C214     1.0000 0.24320  0.90250  0.14813  Biso   1.000  C
  C215     1.0000 0.75680  0.09750  0.64813  Biso   1.000  C
  C216     1.0000 0.34070  0.24320  0.98147  Biso   1.000  C
  C217     1.0000 0.06490  0.29050  0.75260  Biso   1.000  C
  C218     1.0000 0.93510  0.70950  0.25260  Biso   1.000  C
  C219     1.0000 0.70950  0.77440  0.41927  Biso   1.000  C
  C220     1.0000 0.22560  0.93510  0.08593  Biso   1.000  C
  C221     1.0000 0.77440  0.06490  0.58593  Biso   1.000  C
  C222     1.0000 0.29050  0.22560  0.91927  Biso   1.000  C
  H193     1.0000 0.05480  0.26930  0.77470  Biso   1.000  H
  H194     1.0000 0.94520  0.73070  0.27470  Biso   1.000  H
  H195     1.0000 0.73070  0.78550  0.44137  Biso   1.000  H
  H196     1.0000 0.21450  0.94520  0.10803  Biso   1.000  H
  H197     1.0000 0.78550  0.05480  0.60803  Biso   1.000  H
  H198     1.0000 0.26930  0.21450  0.94137  Biso   1.000  H
  C223     1.0000 0.04680  0.31280  0.75840  Biso   1.000  C
  C224     1.0000 0.95320  0.68720  0.25840  Biso   1.000  C
  C225     1.0000 0.68720  0.73400  0.42507  Biso   1.000  C
  C226     1.0000 0.26600  0.95320  0.09173  Biso   1.000  C
  C227     1.0000 0.73400  0.04680  0.59173  Biso   1.000  C
  C228     1.0000 0.31280  0.26600  0.92507  Biso   1.000  C
  H199     1.0000 0.03260  0.30570  0.78920  Biso   1.000  H
  H200     1.0000 0.96740  0.69430  0.28920  Biso   1.000  H
  H201     1.0000 0.69430  0.72690  0.45587  Biso   1.000  H
  H202     1.0000 0.27310  0.96740  0.12253  Biso   1.000  H
  H203     1.0000 0.72690  0.03260  0.62253  Biso   1.000  H
  H204     1.0000 0.30570  0.27310  0.95587  Biso   1.000  H
  H205     1.0000 0.03190  0.30910  0.72910  Biso   1.000  H
  H206     1.0000 0.96810  0.69090  0.22910  Biso   1.000  H
  H207     1.0000 0.69090  0.72280  0.39577  Biso   1.000  H
  H208     1.0000 0.27720  0.96810  0.06243  Biso   1.000  H
  H209     1.0000 0.72280  0.03190  0.56243  Biso   1.000  H
  H210     1.0000 0.30910  0.27720  0.89577  Biso   1.000  H
  H211     1.0000 0.06460  0.33750  0.76070  Biso   1.000  H
  H212     1.0000 0.93540  0.66250  0.26070  Biso   1.000  H
  H213     1.0000 0.66250  0.72710  0.42737  Biso   1.000  H
  H214     1.0000 0.27290  0.93540  0.09403  Biso   1.000  H
  H215     1.0000 0.72710  0.06460  0.59403  Biso   1.000  H
  H216     1.0000 0.33750  0.27290  0.92737  Biso   1.000  H
  C229     1.0000 0.05720  0.28240  0.69640  Biso   1.000  C
  C230     1.0000 0.94280  0.71760  0.19640  Biso   1.000  C
  C231     1.0000 0.71760  0.77480  0.36307  Biso   1.000  C
  C232     1.0000 0.22520  0.94280  0.02973  Biso   1.000  C
  C233     1.0000 0.77480  0.05720  0.52973  Biso   1.000  C
  C234     1.0000 0.28240  0.22520  0.86307  Biso   1.000  C
  H217     1.0000 0.07910  0.29330  0.67740  Biso   1.000  H
  H218     1.0000 0.92090  0.70670  0.17740  Biso   1.000  H
  H219     1.0000 0.70670  0.78580  0.34407  Biso   1.000  H
  H220     1.0000 0.21420  0.92090  0.01073  Biso   1.000  H
  H221     1.0000 0.78580  0.07910  0.51073  Biso   1.000  H
  H222     1.0000 0.29330  0.21420  0.84407  Biso   1.000  H
  H223     1.0000 0.04240  0.29160  0.68440  Biso   1.000  H
  H224     1.0000 0.95760  0.70840  0.18440  Biso   1.000  H
  H225     1.0000 0.70840  0.75080  0.35107  Biso   1.000  H
  H226     1.0000 0.24920  0.95760  0.01773  Biso   1.000  H
  H227     1.0000 0.75080  0.04240  0.51773  Biso   1.000  H
  H228     1.0000 0.29160  0.24920  0.85107  Biso   1.000  H
  H229     1.0000 0.04500  0.25710  0.69120  Biso   1.000  H
  H230     1.0000 0.95500  0.74290  0.19120  Biso   1.000  H
  H231     1.0000 0.74290  0.78790  0.35787  Biso   1.000  H
  H232     1.0000 0.21210  0.95500  0.02453  Biso   1.000  H
  H233     1.0000 0.78790  0.04500  0.52453  Biso   1.000  H
  H234     1.0000 0.25710  0.21210  0.85787  Biso   1.000  H
  C235     1.0000 0.14027  0.26528  0.56130  Biso   1.000  C
  C236     1.0000 0.85973  0.73472  0.06130  Biso   1.000  C
  C237     1.0000 0.73472  0.87499  0.22797  Biso   1.000  C
  C238     1.0000 0.12501  0.85973  0.89463  Biso   1.000  C
  C239     1.0000 0.87499  0.14027  0.39463  Biso   1.000  C
  C240     1.0000 0.26528  0.12501  0.72797  Biso   1.000  C
  C241     1.0000 0.18010  0.28540  0.55690  Biso   1.000  C
  C242     1.0000 0.81990  0.71460  0.05690  Biso   1.000  C
  C243     1.0000 0.71460  0.89470  0.22357  Biso   1.000  C
  C244     1.0000 0.10530  0.81990  0.89023  Biso   1.000  C
  C245     1.0000 0.89470  0.18010  0.39023  Biso   1.000  C
  C246     1.0000 0.28540  0.10530  0.72357  Biso   1.000  C
  C247     1.0000 0.19830  0.23430  0.40460  Biso   1.000  C
  C248     1.0000 0.80170  0.76570  0.90460  Biso   1.000  C
  C249     1.0000 0.76570  0.96400  0.07127  Biso   1.000  C
  C250     1.0000 0.03600  0.80170  0.73793  Biso   1.000  C
  C251     1.0000 0.96400  0.19830  0.23793  Biso   1.000  C
  C252     1.0000 0.23430  0.03600  0.57127  Biso   1.000  C
  H235     1.0000 0.22380  0.24910  0.39760  Biso   1.000  H
  H236     1.0000 0.77620  0.75090  0.89760  Biso   1.000  H
  H237     1.0000 0.75090  0.97470  0.06427  Biso   1.000  H
  H238     1.0000 0.02530  0.77620  0.73093  Biso   1.000  H
  H239     1.0000 0.97470  0.22380  0.23093  Biso   1.000  H
  H240     1.0000 0.24910  0.02530  0.56427  Biso   1.000  H
  C253     1.0000 0.18820  0.21770  0.45700  Biso   1.000  C
  C254     1.0000 0.81180  0.78230  0.95700  Biso   1.000  C
  C255     1.0000 0.78230  0.97050  0.12367  Biso   1.000  C
  C256     1.0000 0.02950  0.81180  0.79033  Biso   1.000  C
  C257     1.0000 0.97050  0.18820  0.29033  Biso   1.000  C
  C258     1.0000 0.21770  0.02950  0.62367  Biso   1.000  C
  C259     1.0000 0.17690  0.20530  0.36620  Biso   1.000  C
  C260     1.0000 0.82310  0.79470  0.86620  Biso   1.000  C
  C261     1.0000 0.79470  0.97160  0.03287  Biso   1.000  C
  C262     1.0000 0.02840  0.82310  0.69953  Biso   1.000  C
  C263     1.0000 0.97160  0.17690  0.19953  Biso   1.000  C
  C264     1.0000 0.20530  0.02840  0.53287  Biso   1.000  C
  H241     1.0000 0.19610  0.20040  0.35850  Biso   1.000  H
  H242     1.0000 0.80390  0.79960  0.85850  Biso   1.000  H
  H243     1.0000 0.79960  0.99570  0.02517  Biso   1.000  H
  H244     1.0000 0.00430  0.80390  0.69183  Biso   1.000  H
  H245     1.0000 0.99570  0.19610  0.19183  Biso   1.000  H
  H246     1.0000 0.20040  0.00430  0.52517  Biso   1.000  H
  C265     1.0000 0.15330  0.16950  0.39080  Biso   1.000  C
  C266     1.0000 0.84670  0.83050  0.89080  Biso   1.000  C
  C267     1.0000 0.83050  0.98380  0.05747  Biso   1.000  C
  C268     1.0000 0.01620  0.84670  0.72413  Biso   1.000  C
  C269     1.0000 0.98380  0.15330  0.22413  Biso   1.000  C
  C270     1.0000 0.16950  0.01620  0.55747  Biso   1.000  C
  H247     1.0000 0.13040  0.16700  0.39820  Biso   1.000  H
  H248     1.0000 0.86960  0.83300  0.89820  Biso   1.000  H
  H249     1.0000 0.83300  0.96340  0.06487  Biso   1.000  H
  H250     1.0000 0.03660  0.86960  0.73153  Biso   1.000  H
  H251     1.0000 0.96340  0.13040  0.23153  Biso   1.000  H
  H252     1.0000 0.16700  0.03660  0.56487  Biso   1.000  H
  H253     1.0000 0.16400  0.16780  0.42230  Biso   1.000  H
  H254     1.0000 0.83600  0.83220  0.92230  Biso   1.000  H
  H255     1.0000 0.83220  0.99620  0.08897  Biso   1.000  H
  H256     1.0000 0.00380  0.83600  0.75563  Biso   1.000  H
  H257     1.0000 0.99620  0.16400  0.25563  Biso   1.000  H
  H258     1.0000 0.16780  0.00380  0.58897  Biso   1.000  H
  H259     1.0000 0.15040  0.15100  0.36760  Biso   1.000  H
  H260     1.0000 0.84960  0.84900  0.86760  Biso   1.000  H
  H261     1.0000 0.84900  0.99940  0.03427  Biso   1.000  H
  H262     1.0000 0.00060  0.84960  0.70093  Biso   1.000  H
  H263     1.0000 0.99940  0.15040  0.20093  Biso   1.000  H
  H264     1.0000 0.15100  0.00060  0.53427  Biso   1.000  H
  C271     1.0000 0.17330  0.21470  0.31030  Biso   1.000  C
  C272     1.0000 0.82670  0.78530  0.81030  Biso   1.000  C
  C273     1.0000 0.78530  0.95860  0.97697  Biso   1.000  C
  C274     1.0000 0.04140  0.82670  0.64363  Biso   1.000  C
  C275     1.0000 0.95860  0.17330  0.14363  Biso   1.000  C
  C276     1.0000 0.21470  0.04140  0.47697  Biso   1.000  C
  H265     1.0000 0.17750  0.20000  0.28720  Biso   1.000  H
  H266     1.0000 0.82250  0.80000  0.78720  Biso   1.000  H
  H267     1.0000 0.80000  0.97750  0.95387  Biso   1.000  H
  H268     1.0000 0.02250  0.82250  0.62053  Biso   1.000  H
  H269     1.0000 0.97750  0.17750  0.12053  Biso   1.000  H
  H270     1.0000 0.20000  0.02250  0.45387  Biso   1.000  H
  H271     1.0000 0.19040  0.23930  0.30400  Biso   1.000  H
  H272     1.0000 0.80960  0.76070  0.80400  Biso   1.000  H
  H273     1.0000 0.76070  0.95110  0.97067  Biso   1.000  H
  H274     1.0000 0.04890  0.80960  0.63733  Biso   1.000  H
  H275     1.0000 0.95110  0.19040  0.13733  Biso   1.000  H
  H276     1.0000 0.23930  0.04890  0.47067  Biso   1.000  H
  H277     1.0000 0.14970  0.21090  0.30490  Biso   1.000  H
  H278     1.0000 0.85030  0.78910  0.80490  Biso   1.000  H
  H279     1.0000 0.78910  0.93880  0.97157  Biso   1.000  H
  H280     1.0000 0.06120  0.85030  0.63823  Biso   1.000  H
  H281     1.0000 0.93880  0.14970  0.13823  Biso   1.000  H
  H282     1.0000 0.21090  0.06120  0.47157  Biso   1.000  H
  C277     1.0000 0.07650  0.22510  0.45900  Biso   1.000  C
  C278     1.0000 0.92350  0.77490  0.95900  Biso   1.000  C
  C279     1.0000 0.77490  0.85140  0.12567  Biso   1.000  C
  C280     1.0000 0.14860  0.92350  0.79233  Biso   1.000  C
  C281     1.0000 0.85140  0.07650  0.29233  Biso   1.000  C
  C282     1.0000 0.22510  0.14860  0.62567  Biso   1.000  C
  C283     1.0000 0.08390  0.22800  0.51600  Biso   1.000  C
  C284     1.0000 0.91610  0.77200  0.01600  Biso   1.000  C
  C285     1.0000 0.77200  0.85590  0.18267  Biso   1.000  C
  C286     1.0000 0.14410  0.91610  0.84933  Biso   1.000  C
  C287     1.0000 0.85590  0.08390  0.34933  Biso   1.000  C
  C288     1.0000 0.22800  0.14410  0.68267  Biso   1.000  C
  C289     1.0000 0.07060  0.19340  0.54590  Biso   1.000  C
  C290     1.0000 0.92940  0.80660  0.04590  Biso   1.000  C
  C291     1.0000 0.80660  0.87720  0.21257  Biso   1.000  C
  C292     1.0000 0.12280  0.92940  0.87923  Biso   1.000  C
  C293     1.0000 0.87720  0.07060  0.37923  Biso   1.000  C
  C294     1.0000 0.19340  0.12280  0.71257  Biso   1.000  C
  H283     1.0000 0.07610  0.17470  0.53700  Biso   1.000  H
  H284     1.0000 0.92390  0.82530  0.03700  Biso   1.000  H
  H285     1.0000 0.82530  0.90140  0.20367  Biso   1.000  H
  H286     1.0000 0.09860  0.92390  0.87033  Biso   1.000  H
  H287     1.0000 0.90140  0.07610  0.37033  Biso   1.000  H
  H288     1.0000 0.17470  0.09860  0.70367  Biso   1.000  H
  C295     1.0000 0.03340  0.18720  0.55360  Biso   1.000  C
  C296     1.0000 0.96660  0.81280  0.05360  Biso   1.000  C
  C297     1.0000 0.81280  0.84620  0.22027  Biso   1.000  C
  C298     1.0000 0.15380  0.96660  0.88693  Biso   1.000  C
  C299     1.0000 0.84620  0.03340  0.38693  Biso   1.000  C
  C300     1.0000 0.18720  0.15380  0.72027  Biso   1.000  C
  H289     1.0000 0.02370  0.18860  0.52090  Biso   1.000  H
  H290     1.0000 0.97630  0.81140  0.02090  Biso   1.000  H
  H291     1.0000 0.81140  0.83510  0.18757  Biso   1.000  H
  H292     1.0000 0.16490  0.97630  0.85423  Biso   1.000  H
  H293     1.0000 0.83510  0.02370  0.35423  Biso   1.000  H
  H294     1.0000 0.18860  0.16490  0.68757  Biso   1.000  H
  H295     1.0000 0.03420  0.20500  0.57640  Biso   1.000  H
  H296     1.0000 0.96580  0.79500  0.07640  Biso   1.000  H
  H297     1.0000 0.79500  0.82920  0.24307  Biso   1.000  H
  H298     1.0000 0.17080  0.96580  0.90973  Biso   1.000  H
  H299     1.0000 0.82920  0.03420  0.40973  Biso   1.000  H
  H300     1.0000 0.20500  0.17080  0.74307  Biso   1.000  H
  H301     1.0000 0.01860  0.16400  0.56830  Biso   1.000  H
  H302     1.0000 0.98140  0.83600  0.06830  Biso   1.000  H
  H303     1.0000 0.83600  0.85460  0.23497  Biso   1.000  H
  H304     1.0000 0.14540  0.98140  0.90163  Biso   1.000  H
  H305     1.0000 0.85460  0.01860  0.40163  Biso   1.000  H
  H306     1.0000 0.16400  0.14540  0.73497  Biso   1.000  H
  C301     1.0000 0.08330  0.21580  0.59500  Biso   1.000  C
  C302     1.0000 0.91670  0.78420  0.09500  Biso   1.000  C
  C303     1.0000 0.78420  0.86750  0.26167  Biso   1.000  C
  C304     1.0000 0.13250  0.91670  0.92833  Biso   1.000  C
  C305     1.0000 0.86750  0.08330  0.42833  Biso   1.000  C
  C306     1.0000 0.21580  0.13250  0.76167  Biso   1.000  C
  H307     1.0000 0.10790  0.22330  0.60080  Biso   1.000  H
  H308     1.0000 0.89210  0.77670  0.10080  Biso   1.000  H
  H309     1.0000 0.77670  0.88460  0.26747  Biso   1.000  H
  H310     1.0000 0.11540  0.89210  0.93413  Biso   1.000  H
  H311     1.0000 0.88460  0.10790  0.43413  Biso   1.000  H
  H312     1.0000 0.22330  0.11540  0.76747  Biso   1.000  H
  H313     1.0000 0.06940  0.20180  0.62380  Biso   1.000  H
  H314     1.0000 0.93060  0.79820  0.12380  Biso   1.000  H
  H315     1.0000 0.79820  0.86760  0.29047  Biso   1.000  H
  H316     1.0000 0.13240  0.93060  0.95713  Biso   1.000  H
  H317     1.0000 0.86760  0.06940  0.45713  Biso   1.000  H
  H318     1.0000 0.20180  0.13240  0.79047  Biso   1.000  H
  H319     1.0000 0.08060  0.23630  0.59130  Biso   1.000  H
  H320     1.0000 0.91940  0.76370  0.09130  Biso   1.000  H
  H321     1.0000 0.76370  0.84430  0.25797  Biso   1.000  H
  H322     1.0000 0.15570  0.91940  0.92463  Biso   1.000  H
  H323     1.0000 0.84430  0.08060  0.42463  Biso   1.000  H
  H324     1.0000 0.23630  0.15570  0.75797  Biso   1.000  H
  C307     1.0000 0.33850  0.55280  0.12920  Biso   1.000  C
  C308     1.0000 0.66150  0.44720  0.62920  Biso   1.000  C
  C309     1.0000 0.44720  0.78570  0.79587  Biso   1.000  C
  C310     1.0000 0.21430  0.66150  0.46253  Biso   1.000  C
  C311     1.0000 0.78570  0.33850  0.96253  Biso   1.000  C
  C312     1.0000 0.55280  0.21430  0.29587  Biso   1.000  C
  H325     1.0000 0.32530  0.56420  0.11800  Biso   1.000  H
  H326     1.0000 0.67470  0.43580  0.61800  Biso   1.000  H
  H327     1.0000 0.43580  0.76110  0.78467  Biso   1.000  H
  H328     1.0000 0.23890  0.67470  0.45133  Biso   1.000  H
  H329     1.0000 0.76110  0.32530  0.95133  Biso   1.000  H
  H330     1.0000 0.56420  0.23890  0.28467  Biso   1.000  H
  H331     1.0000 0.33520  0.53490  0.10400  Biso   1.000  H
  H332     1.0000 0.66480  0.46510  0.60400  Biso   1.000  H
  H333     1.0000 0.46510  0.80030  0.77067  Biso   1.000  H
  H334     1.0000 0.19970  0.66480  0.43733  Biso   1.000  H
  H335     1.0000 0.80030  0.33520  0.93733  Biso   1.000  H
  H336     1.0000 0.53490  0.19970  0.27067  Biso   1.000  H
  C313     1.0000 0.37850  0.58070  0.13470  Biso   1.000  C
  C314     1.0000 0.62150  0.41930  0.63470  Biso   1.000  C
  C315     1.0000 0.41930  0.79780  0.80137  Biso   1.000  C
  C316     1.0000 0.20220  0.62150  0.46803  Biso   1.000  C
  C317     1.0000 0.79780  0.37850  0.96803  Biso   1.000  C
  C318     1.0000 0.58070  0.20220  0.30137  Biso   1.000  C
  H337     1.0000 0.37940  0.60350  0.13490  Biso   1.000  H
  H338     1.0000 0.62060  0.39650  0.63490  Biso   1.000  H
  H339     1.0000 0.39650  0.77590  0.80157  Biso   1.000  H
  H340     1.0000 0.22410  0.62060  0.46823  Biso   1.000  H
  H341     1.0000 0.77590  0.37940  0.96823  Biso   1.000  H
  H342     1.0000 0.60350  0.22410  0.30157  Biso   1.000  H
  H343     1.0000 0.38900  0.57970  0.10210  Biso   1.000  H
  H344     1.0000 0.61100  0.42030  0.60210  Biso   1.000  H
  H345     1.0000 0.42030  0.80930  0.76877  Biso   1.000  H
  H346     1.0000 0.19070  0.61100  0.43543  Biso   1.000  H
  H347     1.0000 0.80930  0.38900  0.93543  Biso   1.000  H
  H348     1.0000 0.57970  0.19070  0.26877  Biso   1.000  H
  C319     1.0000 0.29880  0.51980  0.72450  Biso   1.000  C
  C320     1.0000 0.70120  0.48020  0.22450  Biso   1.000  C
  C321     1.0000 0.48020  0.77900  0.39117  Biso   1.000  C
  C322     1.0000 0.22100  0.70120  0.05783  Biso   1.000  C
  C323     1.0000 0.77900  0.29880  0.55783  Biso   1.000  C
  C324     1.0000 0.51980  0.22100  0.89117  Biso   1.000  C
  H349     1.0000 0.28980  0.50660  0.75640  Biso   1.000  H
  H350     1.0000 0.71020  0.49340  0.25640  Biso   1.000  H
  H351     1.0000 0.49340  0.78320  0.42307  Biso   1.000  H
  H352     1.0000 0.21680  0.71020  0.08973  Biso   1.000  H
  H353     1.0000 0.78320  0.28980  0.58973  Biso   1.000  H
  H354     1.0000 0.50660  0.21680  0.92307  Biso   1.000  H
  H355     1.0000 0.32420  0.53440  0.72980  Biso   1.000  H
  H356     1.0000 0.67580  0.46560  0.22980  Biso   1.000  H
  H357     1.0000 0.46560  0.78980  0.39647  Biso   1.000  H
  H358     1.0000 0.21020  0.67580  0.06313  Biso   1.000  H
  H359     1.0000 0.78980  0.32420  0.56313  Biso   1.000  H
  H360     1.0000 0.53440  0.21020  0.89647  Biso   1.000  H
  C325     1.0000 0.29200  0.55790  0.77120  Biso   1.000  C
  C326     1.0000 0.70800  0.44210  0.27120  Biso   1.000  C
  C327     1.0000 0.44210  0.73410  0.43787  Biso   1.000  C
  C328     1.0000 0.26590  0.70800  0.10453  Biso   1.000  C
  C329     1.0000 0.73410  0.29200  0.60453  Biso   1.000  C
  C330     1.0000 0.55790  0.26590  0.93787  Biso   1.000  C
  H361     1.0000 0.31690  0.57340  0.78010  Biso   1.000  H
  H362     1.0000 0.68310  0.42660  0.28010  Biso   1.000  H
  H363     1.0000 0.42660  0.74350  0.44677  Biso   1.000  H
  H364     1.0000 0.25650  0.68310  0.11343  Biso   1.000  H
  H365     1.0000 0.74350  0.31690  0.61343  Biso   1.000  H
  H366     1.0000 0.57340  0.25650  0.94677  Biso   1.000  H
  H367     1.0000 0.28050  0.54120  0.79920  Biso   1.000  H
  H368     1.0000 0.71950  0.45880  0.29920  Biso   1.000  H
  H369     1.0000 0.45880  0.73930  0.46587  Biso   1.000  H
  H370     1.0000 0.26070  0.71950  0.13253  Biso   1.000  H
  H371     1.0000 0.73930  0.28050  0.63253  Biso   1.000  H
  H372     1.0000 0.54120  0.26070  0.96587  Biso   1.000  H
  C331     1.0000 0.27340  0.58030  0.76190  Biso   1.000  C
  C332     1.0000 0.72660  0.41970  0.26190  Biso   1.000  C
  C333     1.0000 0.41970  0.69310  0.42857  Biso   1.000  C
  C334     1.0000 0.30690  0.72660  0.09523  Biso   1.000  C
  C335     1.0000 0.69310  0.27340  0.59523  Biso   1.000  C
  C336     1.0000 0.58030  0.30690  0.92857  Biso   1.000  C
  H373     1.0000 0.28120  0.59360  0.72990  Biso   1.000  H
  H374     1.0000 0.71880  0.40640  0.22990  Biso   1.000  H
  H375     1.0000 0.40640  0.68760  0.39657  Biso   1.000  H
  H376     1.0000 0.31240  0.71880  0.06323  Biso   1.000  H
  H377     1.0000 0.68760  0.28120  0.56323  Biso   1.000  H
  H378     1.0000 0.59360  0.31240  0.89657  Biso   1.000  H
  H379     1.0000 0.27770  0.59660  0.79020  Biso   1.000  H
  H380     1.0000 0.72230  0.40340  0.29020  Biso   1.000  H
  H381     1.0000 0.40340  0.68110  0.45687  Biso   1.000  H
  H382     1.0000 0.31890  0.72230  0.12353  Biso   1.000  H
  H383     1.0000 0.68110  0.27770  0.62353  Biso   1.000  H
  H384     1.0000 0.59660  0.31890  0.95687  Biso   1.000  H
  C337     1.0000 0.23030  0.54790  0.75890  Biso   1.000  C
  C338     1.0000 0.76970  0.45210  0.25890  Biso   1.000  C
  C339     1.0000 0.45210  0.68240  0.42557  Biso   1.000  C
  C340     1.0000 0.31760  0.76970  0.09223  Biso   1.000  C
  C341     1.0000 0.68240  0.23030  0.59223  Biso   1.000  C
  C342     1.0000 0.54790  0.31760  0.92557  Biso   1.000  C
  H385     1.0000 0.22830  0.53380  0.78900  Biso   1.000  H
  H386     1.0000 0.77170  0.46620  0.28900  Biso   1.000  H
  H387     1.0000 0.46620  0.69450  0.45567  Biso   1.000  H
  H388     1.0000 0.30550  0.77170  0.12233  Biso   1.000  H
  H389     1.0000 0.69450  0.22830  0.62233  Biso   1.000  H
  H390     1.0000 0.53380  0.30550  0.95567  Biso   1.000  H
  H391     1.0000 0.21830  0.56080  0.76870  Biso   1.000  H
  H392     1.0000 0.78170  0.43920  0.26870  Biso   1.000  H
  H393     1.0000 0.43920  0.65750  0.43537  Biso   1.000  H
  H394     1.0000 0.34250  0.78170  0.10203  Biso   1.000  H
  H395     1.0000 0.65750  0.21830  0.60203  Biso   1.000  H
  H396     1.0000 0.56080  0.34250  0.93537  Biso   1.000  H
  C343     1.0000 0.17460  0.50700  0.74170  Biso   1.000  C
  C344     1.0000 0.82540  0.49300  0.24170  Biso   1.000  C
  C345     1.0000 0.49300  0.66760  0.40837  Biso   1.000  C
  C346     1.0000 0.33240  0.82540  0.07503  Biso   1.000  C
  C347     1.0000 0.66760  0.17460  0.57503  Biso   1.000  C
  C348     1.0000 0.50700  0.33240  0.90837  Biso   1.000  C
  H397     1.0000 0.16240  0.52010  0.73460  Biso   1.000  H
  H398     1.0000 0.83760  0.47990  0.23460  Biso   1.000  H
  H399     1.0000 0.47990  0.64230  0.40127  Biso   1.000  H
  H400     1.0000 0.35770  0.83760  0.06793  Biso   1.000  H
  H401     1.0000 0.64230  0.16240  0.56793  Biso   1.000  H
  H402     1.0000 0.52010  0.35770  0.90127  Biso   1.000  H
  H403     1.0000 0.17050  0.49900  0.77730  Biso   1.000  H
  H404     1.0000 0.82950  0.50100  0.27730  Biso   1.000  H
  H405     1.0000 0.50100  0.67150  0.44397  Biso   1.000  H
  H406     1.0000 0.32850  0.82950  0.11063  Biso   1.000  H
  H407     1.0000 0.67150  0.17050  0.61063  Biso   1.000  H
  H408     1.0000 0.49900  0.32850  0.94397  Biso   1.000  H
  C349     1.0000 0.16160  0.47120  0.69870  Biso   1.000  C
  C350     1.0000 0.83840  0.52880  0.19870  Biso   1.000  C
  C351     1.0000 0.52880  0.69040  0.36537  Biso   1.000  C
  C352     1.0000 0.30960  0.83840  0.03203  Biso   1.000  C
  C353     1.0000 0.69040  0.16160  0.53203  Biso   1.000  C
  C354     1.0000 0.47120  0.30960  0.86537  Biso   1.000  C
  H409     1.0000 0.13830  0.45270  0.71010  Biso   1.000  H
  H410     1.0000 0.86170  0.54730  0.21010  Biso   1.000  H
  H411     1.0000 0.54730  0.68560  0.37677  Biso   1.000  H
  H412     1.0000 0.31440  0.86170  0.04343  Biso   1.000  H
  H413     1.0000 0.68560  0.13830  0.54343  Biso   1.000  H
  H414     1.0000 0.45270  0.31440  0.87677  Biso   1.000  H
  H415     1.0000 0.15800  0.47940  0.66560  Biso   1.000  H
  H416     1.0000 0.84200  0.52060  0.16560  Biso   1.000  H
  H417     1.0000 0.52060  0.67860  0.33227  Biso   1.000  H
  H418     1.0000 0.32140  0.84200  0.99893  Biso   1.000  H
  H419     1.0000 0.67860  0.15800  0.49893  Biso   1.000  H
  H420     1.0000 0.47940  0.32140  0.83227  Biso   1.000  H
  C355     1.0000 0.18250  0.44330  0.64570  Biso   1.000  C
  C356     1.0000 0.81750  0.55670  0.14570  Biso   1.000  C
  C357     1.0000 0.55670  0.73920  0.31237  Biso   1.000  C
  C358     1.0000 0.26080  0.81750  0.97903  Biso   1.000  C
  C359     1.0000 0.73920  0.18250  0.47903  Biso   1.000  C
  C360     1.0000 0.44330  0.26080  0.81237  Biso   1.000  C
  H421     1.0000 0.19700  0.46330  0.62330  Biso   1.000  H
  H422     1.0000 0.80300  0.53670  0.12330  Biso   1.000  H
  H423     1.0000 0.53670  0.73370  0.28997  Biso   1.000  H
  H424     1.0000 0.26630  0.80300  0.95663  Biso   1.000  H
  H425     1.0000 0.73370  0.19700  0.45663  Biso   1.000  H
  H426     1.0000 0.46330  0.26630  0.78997  Biso   1.000  H
  H427     1.0000 0.15850  0.43080  0.63180  Biso   1.000  H
  H428     1.0000 0.84150  0.56920  0.13180  Biso   1.000  H
  H429     1.0000 0.56920  0.72770  0.29847  Biso   1.000  H
  H430     1.0000 0.27230  0.84150  0.96513  Biso   1.000  H
  H431     1.0000 0.72770  0.15850  0.46513  Biso   1.000  H
  H432     1.0000 0.43080  0.27230  0.79847  Biso   1.000  H
  C361     1.0000 0.19660  0.42000  0.64710  Biso   1.000  C
  C362     1.0000 0.80340  0.58000  0.14710  Biso   1.000  C
  C363     1.0000 0.58000  0.77660  0.31377  Biso   1.000  C
  C364     1.0000 0.22340  0.80340  0.98043  Biso   1.000  C
  C365     1.0000 0.77660  0.19660  0.48043  Biso   1.000  C
  C366     1.0000 0.42000  0.22340  0.81377  Biso   1.000  C
  H433     1.0000 0.18610  0.40250  0.61980  Biso   1.000  H
  H434     1.0000 0.81390  0.59750  0.11980  Biso   1.000  H
  H435     1.0000 0.59750  0.78360  0.28647  Biso   1.000  H
  H436     1.0000 0.21640  0.81390  0.95313  Biso   1.000  H
  H437     1.0000 0.78360  0.18610  0.45313  Biso   1.000  H
  H438     1.0000 0.40250  0.21640  0.78647  Biso   1.000  H
  H439     1.0000 0.19080  0.40740  0.67980  Biso   1.000  H
  H440     1.0000 0.80920  0.59260  0.17980  Biso   1.000  H
  H441     1.0000 0.59260  0.78340  0.34647  Biso   1.000  H
  H442     1.0000 0.21660  0.80920  0.01313  Biso   1.000  H
  H443     1.0000 0.78340  0.19080  0.51313  Biso   1.000  H
  H444     1.0000 0.40740  0.21660  0.84647  Biso   1.000  H
  C367     1.0000 0.24000  0.44260  0.63980  Biso   1.000  C
  C368     1.0000 0.76000  0.55740  0.13980  Biso   1.000  C
  C369     1.0000 0.55740  0.79740  0.30647  Biso   1.000  C
  C370     1.0000 0.20260  0.76000  0.97313  Biso   1.000  C
  C371     1.0000 0.79740  0.24000  0.47313  Biso   1.000  C
  C372     1.0000 0.44260  0.20260  0.80647  Biso   1.000  C
  H445     1.0000 0.24900  0.42620  0.64030  Biso   1.000  H
  H446     1.0000 0.75100  0.57380  0.14030  Biso   1.000  H
  H447     1.0000 0.57380  0.82280  0.30697  Biso   1.000  H
  H448     1.0000 0.17720  0.75100  0.97363  Biso   1.000  H
  H449     1.0000 0.82280  0.24900  0.47363  Biso   1.000  H
  H450     1.0000 0.42620  0.17720  0.80697  Biso   1.000  H
  H451     1.0000 0.24550  0.45410  0.60630  Biso   1.000  H
  H452     1.0000 0.75450  0.54590  0.10630  Biso   1.000  H
  H453     1.0000 0.54590  0.79140  0.27297  Biso   1.000  H
  H454     1.0000 0.20860  0.75450  0.93963  Biso   1.000  H
  H455     1.0000 0.79140  0.24550  0.43963  Biso   1.000  H
  H456     1.0000 0.45410  0.20860  0.77297  Biso   1.000  H
  C373     1.0000 0.10200  0.37300  0.98080  Biso   1.000  C
  C374     1.0000 0.89800  0.62700  0.48080  Biso   1.000  C
  C375     1.0000 0.62700  0.72900  0.64747  Biso   1.000  C
  C376     1.0000 0.27100  0.89800  0.31413  Biso   1.000  C
  C377     1.0000 0.72900  0.10200  0.81413  Biso   1.000  C
  C378     1.0000 0.37300  0.27100  0.14747  Biso   1.000  C
  H457     1.0000 0.12150  0.39540  0.99320  Biso   1.000  H
  H458     1.0000 0.87850  0.60460  0.49320  Biso   1.000  H
  H459     1.0000 0.60460  0.72610  0.65987  Biso   1.000  H
  H460     1.0000 0.27390  0.87850  0.32653  Biso   1.000  H
  H461     1.0000 0.72610  0.12150  0.82653  Biso   1.000  H
  H462     1.0000 0.39540  0.27390  0.15987  Biso   1.000  H
  H463     1.0000 0.08260  0.36530  0.00520  Biso   1.000  H
  H464     1.0000 0.91740  0.63470  0.50520  Biso   1.000  H
  H465     1.0000 0.63470  0.71730  0.67187  Biso   1.000  H
  H466     1.0000 0.28270  0.91740  0.33853  Biso   1.000  H
  H467     1.0000 0.71730  0.08260  0.83853  Biso   1.000  H
  H468     1.0000 0.36530  0.28270  0.17187  Biso   1.000  H
  C379     1.0000 0.11320  0.34800  0.98050  Biso   1.000  C
  C380     1.0000 0.88680  0.65200  0.48050  Biso   1.000  C
  C381     1.0000 0.65200  0.76520  0.64717  Biso   1.000  C
  C382     1.0000 0.23480  0.88680  0.31383  Biso   1.000  C
  C383     1.0000 0.76520  0.11320  0.81383  Biso   1.000  C
  C384     1.0000 0.34800  0.23480  0.14717  Biso   1.000  C
  H469     1.0000 0.12910  0.35260  0.95170  Biso   1.000  H
  H470     1.0000 0.87090  0.64740  0.45170  Biso   1.000  H
  H471     1.0000 0.64740  0.77650  0.61837  Biso   1.000  H
  H472     1.0000 0.22350  0.87090  0.28503  Biso   1.000  H
  H473     1.0000 0.77650  0.12910  0.78503  Biso   1.000  H
  H474     1.0000 0.35260  0.22350  0.11837  Biso   1.000  H
  H475     1.0000 0.12610  0.35010  0.01210  Biso   1.000  H
  H476     1.0000 0.87390  0.64990  0.51210  Biso   1.000  H
  H477     1.0000 0.64990  0.77600  0.67877  Biso   1.000  H
  H478     1.0000 0.22400  0.87390  0.34543  Biso   1.000  H
  H479     1.0000 0.77600  0.12610  0.84543  Biso   1.000  H
  H480     1.0000 0.35010  0.22400  0.17877  Biso   1.000  H
  C385     1.0000 0.08440  0.31410  0.97660  Biso   1.000  C
  C386     1.0000 0.91560  0.68590  0.47660  Biso   1.000  C
  C387     1.0000 0.68590  0.77030  0.64327  Biso   1.000  C
  C388     1.0000 0.22970  0.91560  0.30993  Biso   1.000  C
  C389     1.0000 0.77030  0.08440  0.80993  Biso   1.000  C
  C390     1.0000 0.31410  0.22970  0.14327  Biso   1.000  C
  H481     1.0000 0.06950  0.31040  0.00650  Biso   1.000  H
  H482     1.0000 0.93050  0.68960  0.50650  Biso   1.000  H
  H483     1.0000 0.68960  0.75910  0.67317  Biso   1.000  H
  H484     1.0000 0.24090  0.93050  0.33983  Biso   1.000  H
  H485     1.0000 0.75910  0.06950  0.83983  Biso   1.000  H
  H486     1.0000 0.31040  0.24090  0.17317  Biso   1.000  H
  H487     1.0000 0.09350  0.29790  0.97990  Biso   1.000  H
  H488     1.0000 0.90650  0.70210  0.47990  Biso   1.000  H
  H489     1.0000 0.70210  0.79560  0.64657  Biso   1.000  H
  H490     1.0000 0.20440  0.90650  0.31323  Biso   1.000  H
  H491     1.0000 0.79560  0.09350  0.81323  Biso   1.000  H
  H492     1.0000 0.29790  0.20440  0.14657  Biso   1.000  H
  C391     1.0000 0.02350  0.26060  0.93760  Biso   1.000  C
  C392     1.0000 0.97650  0.73940  0.43760  Biso   1.000  C
  C393     1.0000 0.73940  0.76290  0.60427  Biso   1.000  C
  C394     1.0000 0.23710  0.97650  0.27093  Biso   1.000  C
  C395     1.0000 0.76290  0.02350  0.77093  Biso   1.000  C
  C396     1.0000 0.26060  0.23710  0.10427  Biso   1.000  C
  H493     1.0000 0.03030  0.24250  0.94010  Biso   1.000  H
  H494     1.0000 0.96970  0.75750  0.44010  Biso   1.000  H
  H495     1.0000 0.75750  0.78780  0.60677  Biso   1.000  H
  H496     1.0000 0.21220  0.96970  0.27343  Biso   1.000  H
  H497     1.0000 0.78780  0.03030  0.77343  Biso   1.000  H
  H498     1.0000 0.24250  0.21220  0.10677  Biso   1.000  H
  H499     1.0000 0.00980  0.25950  0.96770  Biso   1.000  H
  H500     1.0000 0.99020  0.74050  0.46770  Biso   1.000  H
  H501     1.0000 0.74050  0.75030  0.63437  Biso   1.000  H
  H502     1.0000 0.24970  0.99020  0.30103  Biso   1.000  H
  H503     1.0000 0.75030  0.00980  0.80103  Biso   1.000  H
  H504     1.0000 0.25950  0.24970  0.13437  Biso   1.000  H
  C397     1.0000 0.00350  0.25730  0.88780  Biso   1.000  C
  C398     1.0000 0.99650  0.74270  0.38780  Biso   1.000  C
  C399     1.0000 0.74270  0.74620  0.55447  Biso   1.000  C
  C400     1.0000 0.25380  0.99650  0.22113  Biso   1.000  C
  C401     1.0000 0.74620  0.00350  0.72113  Biso   1.000  C
  C402     1.0000 0.25730  0.25380  0.05447  Biso   1.000  C
  H505     1.0000 0.01760  0.25690  0.85900  Biso   1.000  H
  H506     1.0000 0.98240  0.74310  0.35900  Biso   1.000  H
  H507     1.0000 0.74310  0.76070  0.52567  Biso   1.000  H
  H508     1.0000 0.23930  0.98240  0.19233  Biso   1.000  H
  H509     1.0000 0.76070  0.01760  0.69233  Biso   1.000  H
  H510     1.0000 0.25690  0.23930  0.02567  Biso   1.000  H
  H511     1.0000 0.98140  0.23470  0.88810  Biso   1.000  H
  H512     1.0000 0.01860  0.76530  0.38810  Biso   1.000  H
  H513     1.0000 0.76530  0.74670  0.55477  Biso   1.000  H
  H514     1.0000 0.25330  0.01860  0.22143  Biso   1.000  H
  H515     1.0000 0.74670  0.98140  0.72143  Biso   1.000  H
  H516     1.0000 0.23470  0.25330  0.05477  Biso   1.000  H
  C403     1.0000 0.98180  0.28320  0.83200  Biso   1.000  C
  C404     1.0000 0.01820  0.71680  0.33200  Biso   1.000  C
  C405     1.0000 0.71680  0.69860  0.49867  Biso   1.000  C
  C406     1.0000 0.30140  0.01820  0.16533  Biso   1.000  C
  C407     1.0000 0.69860  0.98180  0.66533  Biso   1.000  C
  C408     1.0000 0.28320  0.30140  0.99867  Biso   1.000  C
  H517     1.0000 0.96050  0.26040  0.82680  Biso   1.000  H
  H518     1.0000 0.03950  0.73960  0.32680  Biso   1.000  H
  H519     1.0000 0.73960  0.70010  0.49347  Biso   1.000  H
  H520     1.0000 0.29990  0.03950  0.16013  Biso   1.000  H
  H521     1.0000 0.70010  0.96050  0.66013  Biso   1.000  H
  H522     1.0000 0.26040  0.29990  0.99347  Biso   1.000  H
  H523     1.0000 0.99910  0.28660  0.80560  Biso   1.000  H
  H524     1.0000 0.00090  0.71340  0.30560  Biso   1.000  H
  H525     1.0000 0.71340  0.71250  0.47227  Biso   1.000  H
  H526     1.0000 0.28750  0.00090  0.13893  Biso   1.000  H
  H527     1.0000 0.71250  0.99910  0.63893  Biso   1.000  H
  H528     1.0000 0.28660  0.28750  0.97227  Biso   1.000  H
  C409     1.0000 0.97330  0.31430  0.83160  Biso   1.000  C
  C410     1.0000 0.02670  0.68570  0.33160  Biso   1.000  C
  C411     1.0000 0.68570  0.65900  0.49827  Biso   1.000  C
  C412     1.0000 0.34100  0.02670  0.16493  Biso   1.000  C
  C413     1.0000 0.65900  0.97330  0.66493  Biso   1.000  C
  C414     1.0000 0.31430  0.34100  0.99827  Biso   1.000  C
  H529     1.0000 0.95780  0.31050  0.86080  Biso   1.000  H
  H530     1.0000 0.04220  0.68950  0.36080  Biso   1.000  H
  H531     1.0000 0.68950  0.64730  0.52747  Biso   1.000  H
  H532     1.0000 0.35270  0.04220  0.19413  Biso   1.000  H
  H533     1.0000 0.64730  0.95780  0.69413  Biso   1.000  H
  H534     1.0000 0.31050  0.35270  0.02747  Biso   1.000  H
  H535     1.0000 0.95930  0.31130  0.80080  Biso   1.000  H
  H536     1.0000 0.04070  0.68870  0.30080  Biso   1.000  H
  H537     1.0000 0.68870  0.64800  0.46747  Biso   1.000  H
  H538     1.0000 0.35200  0.04070  0.13413  Biso   1.000  H
  H539     1.0000 0.64800  0.95930  0.63413  Biso   1.000  H
  H540     1.0000 0.31130  0.35200  0.96747  Biso   1.000  H
  C415     1.0000 0.00370  0.35470  0.83320  Biso   1.000  C
  C416     1.0000 0.99630  0.64530  0.33320  Biso   1.000  C
  C417     1.0000 0.64530  0.64900  0.49987  Biso   1.000  C
  C418     1.0000 0.35100  0.99630  0.16653  Biso   1.000  C
  C419     1.0000 0.64900  0.00370  0.66653  Biso   1.000  C
  C420     1.0000 0.35470  0.35100  0.99987  Biso   1.000  C
  H541     1.0000 0.01560  0.35940  0.80000  Biso   1.000  H
  H542     1.0000 0.98440  0.64060  0.30000  Biso   1.000  H
  H543     1.0000 0.64060  0.65620  0.46667  Biso   1.000  H
  H544     1.0000 0.34380  0.98440  0.13333  Biso   1.000  H
  H545     1.0000 0.65620  0.01560  0.63333  Biso   1.000  H
  H546     1.0000 0.35940  0.34380  0.96667  Biso   1.000  H
  H547     1.0000 0.99160  0.36840  0.83370  Biso   1.000  H
  H548     1.0000 0.00840  0.63160  0.33370  Biso   1.000  H
  H549     1.0000 0.63160  0.62320  0.50037  Biso   1.000  H
  H550     1.0000 0.37680  0.00840  0.16703  Biso   1.000  H
  H551     1.0000 0.62320  0.99160  0.66703  Biso   1.000  H
  H552     1.0000 0.36840  0.37680  0.00037  Biso   1.000  H
  C421     1.0000 0.04950  0.39810  0.88700  Biso   1.000  C
  C422     1.0000 0.95050  0.60190  0.38700  Biso   1.000  C
  C423     1.0000 0.60190  0.65140  0.55367  Biso   1.000  C
  C424     1.0000 0.34860  0.95050  0.22033  Biso   1.000  C
  C425     1.0000 0.65140  0.04950  0.72033  Biso   1.000  C
  C426     1.0000 0.39810  0.34860  0.05367  Biso   1.000  C
  H553     1.0000 0.03470  0.40550  0.90470  Biso   1.000  H
  H554     1.0000 0.96530  0.59450  0.40470  Biso   1.000  H
  H555     1.0000 0.59450  0.62920  0.57137  Biso   1.000  H
  H556     1.0000 0.37080  0.96530  0.23803  Biso   1.000  H
  H557     1.0000 0.62920  0.03470  0.73803  Biso   1.000  H
  H558     1.0000 0.40550  0.37080  0.07137  Biso   1.000  H
  H559     1.0000 0.06040  0.41480  0.85890  Biso   1.000  H
  H560     1.0000 0.93960  0.58520  0.35890  Biso   1.000  H
  H561     1.0000 0.58520  0.64560  0.52557  Biso   1.000  H
  H562     1.0000 0.35440  0.93960  0.19223  Biso   1.000  H
  H563     1.0000 0.64560  0.06040  0.69223  Biso   1.000  H
  H564     1.0000 0.41480  0.35440  0.02557  Biso   1.000  H
  C427     1.0000 0.07950  0.40810  0.92340  Biso   1.000  C
  C428     1.0000 0.92050  0.59190  0.42340  Biso   1.000  C
  C429     1.0000 0.59190  0.67140  0.59007  Biso   1.000  C
  C430     1.0000 0.32860  0.92050  0.25673  Biso   1.000  C
  C431     1.0000 0.67140  0.07950  0.75673  Biso   1.000  C
  C432     1.0000 0.40810  0.32860  0.09007  Biso   1.000  C
  H565     1.0000 0.07290  0.41300  0.95690  Biso   1.000  H
  H566     1.0000 0.92710  0.58700  0.45690  Biso   1.000  H
  H567     1.0000 0.58700  0.65990  0.62357  Biso   1.000  H
  H568     1.0000 0.34010  0.92710  0.29023  Biso   1.000  H
  H569     1.0000 0.65990  0.07290  0.79023  Biso   1.000  H
  H570     1.0000 0.41300  0.34010  0.12357  Biso   1.000  H
  H571     1.0000 0.10000  0.42990  0.91120  Biso   1.000  H
  H572     1.0000 0.90000  0.57010  0.41120  Biso   1.000  H
  H573     1.0000 0.57010  0.67010  0.57787  Biso   1.000  H
  H574     1.0000 0.32990  0.90000  0.24453  Biso   1.000  H
  H575     1.0000 0.67010  0.10000  0.74453  Biso   1.000  H
  H576     1.0000 0.42990  0.32990  0.07787  Biso   1.000  H
  C433     1.0000 0.16480  0.12270  0.50140  Biso   1.000  C
  C434     1.0000 0.83520  0.87730  0.00140  Biso   1.000  C
  C435     1.0000 0.87730  0.04210  0.16807  Biso   1.000  C
  C436     1.0000 0.95790  0.83520  0.83473  Biso   1.000  C
  C437     1.0000 0.04210  0.16480  0.33473  Biso   1.000  C
  C438     1.0000 0.12270  0.95790  0.66807  Biso   1.000  C
  H577     1.0000 0.16860  0.14370  0.48290  Biso   1.000  H
  H578     1.0000 0.83140  0.85630  0.98290  Biso   1.000  H
  H579     1.0000 0.85630  0.02490  0.14957  Biso   1.000  H
  H580     1.0000 0.97510  0.83140  0.81623  Biso   1.000  H
  H581     1.0000 0.02490  0.16860  0.31623  Biso   1.000  H
  H582     1.0000 0.14370  0.97510  0.64957  Biso   1.000  H
  H583     1.0000 0.15380  0.10370  0.47620  Biso   1.000  H
  H584     1.0000 0.84620  0.89630  0.97620  Biso   1.000  H
  H585     1.0000 0.89630  0.05010  0.14287  Biso   1.000  H
  H586     1.0000 0.94990  0.84620  0.80953  Biso   1.000  H
  H587     1.0000 0.05010  0.15380  0.30953  Biso   1.000  H
  H588     1.0000 0.10370  0.94990  0.64287  Biso   1.000  H
  C439     1.0000 0.13180  0.11510  0.53400  Biso   1.000  C
  C440     1.0000 0.86820  0.88490  0.03400  Biso   1.000  C
  C441     1.0000 0.88490  0.01670  0.20067  Biso   1.000  C
  C442     1.0000 0.98330  0.86820  0.86733  Biso   1.000  C
  C443     1.0000 0.01670  0.13180  0.36733  Biso   1.000  C
  C444     1.0000 0.11510  0.98330  0.70067  Biso   1.000  C
  H589     1.0000 0.11150  0.11120  0.51320  Biso   1.000  H
  H590     1.0000 0.88850  0.88880  0.01320  Biso   1.000  H
  H591     1.0000 0.88880  0.00030  0.17987  Biso   1.000  H
  H592     1.0000 0.99970  0.88850  0.84653  Biso   1.000  H
  H593     1.0000 0.00030  0.11150  0.34653  Biso   1.000  H
  H594     1.0000 0.11120  0.99970  0.67987  Biso   1.000  H
  H595     1.0000 0.12490  0.09600  0.55870  Biso   1.000  H
  H596     1.0000 0.87510  0.90400  0.05870  Biso   1.000  H
  H597     1.0000 0.90400  0.02890  0.22537  Biso   1.000  H
  H598     1.0000 0.97110  0.87510  0.89203  Biso   1.000  H
  H599     1.0000 0.02890  0.12490  0.39203  Biso   1.000  H
  H600     1.0000 0.09600  0.97110  0.72537  Biso   1.000  H
  C445     1.0000 0.22140  0.13020  0.47920  Biso   1.000  C
  C446     1.0000 0.77860  0.86980  0.97920  Biso   1.000  C
  C447     1.0000 0.86980  0.09120  0.14587  Biso   1.000  C
  C448     1.0000 0.90880  0.77860  0.81253  Biso   1.000  C
  C449     1.0000 0.09120  0.22140  0.31253  Biso   1.000  C
  C450     1.0000 0.13020  0.90880  0.64587  Biso   1.000  C
  H601     1.0000 0.21340  0.12770  0.44370  Biso   1.000  H
  H602     1.0000 0.78660  0.87230  0.94370  Biso   1.000  H
  H603     1.0000 0.87230  0.08570  0.11037  Biso   1.000  H
  H604     1.0000 0.91430  0.78660  0.77703  Biso   1.000  H
  H605     1.0000 0.08570  0.21340  0.27703  Biso   1.000  H
  H606     1.0000 0.12770  0.91430  0.61037  Biso   1.000  H
  H607     1.0000 0.22360  0.10950  0.48690  Biso   1.000  H
  H608     1.0000 0.77640  0.89050  0.98690  Biso   1.000  H
  H609     1.0000 0.89050  0.11410  0.15357  Biso   1.000  H
  H610     1.0000 0.88590  0.77640  0.82023  Biso   1.000  H
  H611     1.0000 0.11410  0.22360  0.32023  Biso   1.000  H
  H612     1.0000 0.10950  0.88590  0.65357  Biso   1.000  H
  C451     1.0000 0.25910  0.16270  0.48090  Biso   1.000  C
  C452     1.0000 0.74090  0.83730  0.98090  Biso   1.000  C
  C453     1.0000 0.83730  0.09640  0.14757  Biso   1.000  C
  C454     1.0000 0.90360  0.74090  0.81423  Biso   1.000  C
  C455     1.0000 0.09640  0.25910  0.31423  Biso   1.000  C
  C456     1.0000 0.16270  0.90360  0.64757  Biso   1.000  C
  H613     1.0000 0.26850  0.16940  0.44620  Biso   1.000  H
  H614     1.0000 0.73150  0.83060  0.94620  Biso   1.000  H
  H615     1.0000 0.83060  0.09910  0.11287  Biso   1.000  H
  H616     1.0000 0.90090  0.73150  0.77953  Biso   1.000  H
  H617     1.0000 0.09910  0.26850  0.27953  Biso   1.000  H
  H618     1.0000 0.16940  0.90090  0.61287  Biso   1.000  H
  H619     1.0000 0.27480  0.15690  0.50020  Biso   1.000  H
  H620     1.0000 0.72520  0.84310  0.00020  Biso   1.000  H
  H621     1.0000 0.84310  0.11790  0.16687  Biso   1.000  H
  H622     1.0000 0.88210  0.72520  0.83353  Biso   1.000  H
  H623     1.0000 0.11790  0.27480  0.33353  Biso   1.000  H
  H624     1.0000 0.15690  0.88210  0.66687  Biso   1.000  H
  C457     1.0000 0.28449  0.20900  0.54670  Biso   1.000  C
  C458     1.0000 0.71551  0.79100  0.04670  Biso   1.000  C
  C459     1.0000 0.79100  0.07549  0.21337  Biso   1.000  C
  C460     1.0000 0.92451  0.71551  0.88003  Biso   1.000  C
  C461     1.0000 0.07549  0.28449  0.38003  Biso   1.000  C
  C462     1.0000 0.20900  0.92451  0.71337  Biso   1.000  C
  H625     1.0000 0.30710  0.21160  0.53580  Biso   1.000  H
  H626     1.0000 0.69290  0.78840  0.03580  Biso   1.000  H
  H627     1.0000 0.78840  0.09550  0.20247  Biso   1.000  H
  H628     1.0000 0.90450  0.69290  0.86913  Biso   1.000  H
  H629     1.0000 0.09550  0.30710  0.36913  Biso   1.000  H
  H630     1.0000 0.21160  0.90450  0.70247  Biso   1.000  H
  H631     1.0000 0.27710  0.19680  0.57960  Biso   1.000  H
  H632     1.0000 0.72290  0.80320  0.07960  Biso   1.000  H
  H633     1.0000 0.80320  0.08030  0.24627  Biso   1.000  H
  H634     1.0000 0.91970  0.72290  0.91293  Biso   1.000  H
  H635     1.0000 0.08030  0.27710  0.41293  Biso   1.000  H
  H636     1.0000 0.19680  0.91970  0.74627  Biso   1.000  H
  C463     1.0000 0.28320  0.24510  0.54420  Biso   1.000  C
  C464     1.0000 0.71680  0.75490  0.04420  Biso   1.000  C
  C465     1.0000 0.75490  0.03810  0.21087  Biso   1.000  C
  C466     1.0000 0.96190  0.71680  0.87753  Biso   1.000  C
  C467     1.0000 0.03810  0.28320  0.37753  Biso   1.000  C
  C468     1.0000 0.24510  0.96190  0.71087  Biso   1.000  C
  H637     1.0000 0.27820  0.24880  0.50890  Biso   1.000  H
  H638     1.0000 0.72180  0.75120  0.00890  Biso   1.000  H
  H639     1.0000 0.75120  0.02940  0.17557  Biso   1.000  H
  H640     1.0000 0.97060  0.72180  0.84223  Biso   1.000  H
  H641     1.0000 0.02940  0.27820  0.34223  Biso   1.000  H
  H642     1.0000 0.24880  0.97060  0.67557  Biso   1.000  H
  H643     1.0000 0.30650  0.26470  0.55320  Biso   1.000  H
  H644     1.0000 0.69350  0.73530  0.05320  Biso   1.000  H
  H645     1.0000 0.73530  0.04180  0.21987  Biso   1.000  H
  H646     1.0000 0.95820  0.69350  0.88653  Biso   1.000  H
  H647     1.0000 0.04180  0.30650  0.38653  Biso   1.000  H
  H648     1.0000 0.26470  0.95820  0.71987  Biso   1.000  H
  C469     1.0000 0.25400  0.24620  0.58150  Biso   1.000  C
  C470     1.0000 0.74600  0.75380  0.08150  Biso   1.000  C
  C471     1.0000 0.75380  0.00780  0.24817  Biso   1.000  C
  C472     1.0000 0.99220  0.74600  0.91483  Biso   1.000  C
  C473     1.0000 0.00780  0.25400  0.41483  Biso   1.000  C
  C474     1.0000 0.24620  0.99220  0.74817  Biso   1.000  C
  H649     1.0000 0.25620  0.23700  0.61450  Biso   1.000  H
  H650     1.0000 0.74380  0.76300  0.11450  Biso   1.000  H
  H651     1.0000 0.76300  0.01920  0.28117  Biso   1.000  H
  H652     1.0000 0.98080  0.74380  0.94783  Biso   1.000  H
  H653     1.0000 0.01920  0.25620  0.44783  Biso   1.000  H
  H654     1.0000 0.23700  0.98080  0.78117  Biso   1.000  H
  H655     1.0000 0.26190  0.27120  0.58690  Biso   1.000  H
  H656     1.0000 0.73810  0.72880  0.08690  Biso   1.000  H
  H657     1.0000 0.72880  0.99070  0.25357  Biso   1.000  H
  H658     1.0000 0.00930  0.73810  0.92023  Biso   1.000  H
  H659     1.0000 0.99070  0.26190  0.42023  Biso   1.000  H
  H660     1.0000 0.27120  0.00930  0.75357  Biso   1.000  H
  C475     1.0000 0.15290  0.17930  0.60040  Biso   1.000  C
  C476     1.0000 0.84710  0.82070  0.10040  Biso   1.000  C
  C477     1.0000 0.82070  0.97360  0.26707  Biso   1.000  C
  C478     1.0000 0.02640  0.84710  0.93373  Biso   1.000  C
  C479     1.0000 0.97360  0.15290  0.43373  Biso   1.000  C
  C480     1.0000 0.17930  0.02640  0.76707  Biso   1.000  C
  H661     1.0000 0.14680  0.16760  0.63370  Biso   1.000  H
  H662     1.0000 0.85320  0.83240  0.13370  Biso   1.000  H
  H663     1.0000 0.83240  0.97920  0.30037  Biso   1.000  H
  H664     1.0000 0.02080  0.85320  0.96703  Biso   1.000  H
  H665     1.0000 0.97920  0.14680  0.46703  Biso   1.000  H
  H666     1.0000 0.16760  0.02080  0.80037  Biso   1.000  H
  H667     1.0000 0.13500  0.18580  0.59200  Biso   1.000  H
  H668     1.0000 0.86500  0.81420  0.09200  Biso   1.000  H
  H669     1.0000 0.81420  0.94920  0.25867  Biso   1.000  H
  H670     1.0000 0.05080  0.86500  0.92533  Biso   1.000  H
  H671     1.0000 0.94920  0.13500  0.42533  Biso   1.000  H
  H672     1.0000 0.18580  0.05080  0.75867  Biso   1.000  H
  C481     1.0000 0.19200  0.21620  0.60520  Biso   1.000  C
  C482     1.0000 0.80800  0.78380  0.10520  Biso   1.000  C
  C483     1.0000 0.78380  0.97580  0.27187  Biso   1.000  C
  C484     1.0000 0.02420  0.80800  0.93853  Biso   1.000  C
  C485     1.0000 0.97580  0.19200  0.43853  Biso   1.000  C
  C486     1.0000 0.21620  0.02420  0.77187  Biso   1.000  C
  H673     1.0000 0.18590  0.23470  0.60910  Biso   1.000  H
  H674     1.0000 0.81410  0.76530  0.10910  Biso   1.000  H
  H675     1.0000 0.76530  0.95120  0.27577  Biso   1.000  H
  H676     1.0000 0.04880  0.81410  0.94243  Biso   1.000  H
  H677     1.0000 0.95120  0.18590  0.44243  Biso   1.000  H
  H678     1.0000 0.23470  0.04880  0.77577  Biso   1.000  H
  H679     1.0000 0.20080  0.21410  0.63870  Biso   1.000  H
  H680     1.0000 0.79920  0.78590  0.13870  Biso   1.000  H
  H681     1.0000 0.78590  0.98670  0.30537  Biso   1.000  H
  H682     1.0000 0.01330  0.79920  0.97203  Biso   1.000  H
  H683     1.0000 0.98670  0.20080  0.47203  Biso   1.000  H
  H684     1.0000 0.21410  0.01330  0.80537  Biso   1.000  H
  C487     1.0000 0.29670  0.49090  0.68770  Biso   1.000  C
  C488     1.0000 0.70330  0.50910  0.18770  Biso   1.000  C
  C489     1.0000 0.50910  0.80580  0.35437  Biso   1.000  C
  C490     1.0000 0.19420  0.70330  0.02103  Biso   1.000  C
  C491     1.0000 0.80580  0.29670  0.52103  Biso   1.000  C
  C492     1.0000 0.49090  0.19420  0.85437  Biso   1.000  C
  H685     1.0000 0.30930  0.50120  0.65570  Biso   1.000  H
  H686     1.0000 0.69070  0.49880  0.15570  Biso   1.000  H
  H687     1.0000 0.49880  0.80810  0.32237  Biso   1.000  H
  H688     1.0000 0.19190  0.69070  0.98903  Biso   1.000  H
  H689     1.0000 0.80810  0.30930  0.48903  Biso   1.000  H
  H690     1.0000 0.50120  0.19190  0.82237  Biso   1.000  H
  H691     1.0000 0.30610  0.47710  0.70360  Biso   1.000  H
  H692     1.0000 0.69390  0.52290  0.20360  Biso   1.000  H
  H693     1.0000 0.52290  0.82900  0.37027  Biso   1.000  H
  H694     1.0000 0.17100  0.69390  0.03693  Biso   1.000  H
  H695     1.0000 0.82900  0.30610  0.53693  Biso   1.000  H
  H696     1.0000 0.47710  0.17100  0.87027  Biso   1.000  H
  C493     1.0000 0.31590  0.44260  0.26150  Biso   1.000  C
  C494     1.0000 0.68410  0.55740  0.76150  Biso   1.000  C
  C495     1.0000 0.55740  0.87330  0.92817  Biso   1.000  C
  C496     1.0000 0.12670  0.68410  0.59483  Biso   1.000  C
  C497     1.0000 0.87330  0.31590  0.09483  Biso   1.000  C
  C498     1.0000 0.44260  0.12670  0.42817  Biso   1.000  C
  H697     1.0000 0.33030  0.43310  0.24770  Biso   1.000  H
  H698     1.0000 0.66970  0.56690  0.74770  Biso   1.000  H
  H699     1.0000 0.56690  0.89720  0.91437  Biso   1.000  H
  H700     1.0000 0.10280  0.66970  0.58103  Biso   1.000  H
  H701     1.0000 0.89720  0.33030  0.08103  Biso   1.000  H
  H702     1.0000 0.43310  0.10280  0.41437  Biso   1.000  H
  H703     1.0000 0.29290  0.42310  0.27200  Biso   1.000  H
  H704     1.0000 0.70710  0.57690  0.77200  Biso   1.000  H
  H705     1.0000 0.57690  0.86980  0.93867  Biso   1.000  H
  H706     1.0000 0.13020  0.70710  0.60533  Biso   1.000  H
  H707     1.0000 0.86980  0.29290  0.10533  Biso   1.000  H
  H708     1.0000 0.42310  0.13020  0.43867  Biso   1.000  H
  C499     1.0000 0.46040  0.69309  0.28030  Biso   1.000  C
  C500     1.0000 0.53960  0.30691  0.78030  Biso   1.000  C
  C501     1.0000 0.30691  0.76731  0.94697  Biso   1.000  C
  C502     1.0000 0.23269  0.53960  0.61363  Biso   1.000  C
  C503     1.0000 0.76731  0.46040  0.11363  Biso   1.000  C
  C504     1.0000 0.69309  0.23269  0.44697  Biso   1.000  C
  C505     1.0000 0.45804  0.70220  0.22320  Biso   1.000  C
  C506     1.0000 0.54196  0.29780  0.72320  Biso   1.000  C
  C507     1.0000 0.29780  0.75584  0.88987  Biso   1.000  C
  C508     1.0000 0.24416  0.54196  0.55653  Biso   1.000  C
  C509     1.0000 0.75584  0.45804  0.05653  Biso   1.000  C
  C510     1.0000 0.70220  0.24416  0.38987  Biso   1.000  C
  H709     1.0000 0.46210  0.72510  0.21030  Biso   1.000  H
  H710     1.0000 0.53790  0.27490  0.71030  Biso   1.000  H
  H711     1.0000 0.27490  0.73700  0.87697  Biso   1.000  H
  H712     1.0000 0.26300  0.53790  0.54363  Biso   1.000  H
  H713     1.0000 0.73700  0.46210  0.04363  Biso   1.000  H
  H714     1.0000 0.72510  0.26300  0.37697  Biso   1.000  H
  C511     1.0000 0.47930  0.68280  0.20640  Biso   1.000  C
  C512     1.0000 0.52070  0.31720  0.70640  Biso   1.000  C
  C513     1.0000 0.31720  0.79650  0.87307  Biso   1.000  C
  C514     1.0000 0.20350  0.52070  0.53973  Biso   1.000  C
  C515     1.0000 0.79650  0.47930  0.03973  Biso   1.000  C
  C516     1.0000 0.68280  0.20350  0.37307  Biso   1.000  C
  H715     1.0000 0.49740  0.69610  0.23270  Biso   1.000  H
  H716     1.0000 0.50260  0.30390  0.73270  Biso   1.000  H
  H717     1.0000 0.30390  0.80130  0.89937  Biso   1.000  H
  H718     1.0000 0.19870  0.50260  0.56603  Biso   1.000  H
  H719     1.0000 0.80130  0.49740  0.06603  Biso   1.000  H
  H720     1.0000 0.69610  0.19870  0.39937  Biso   1.000  H
  C517     1.0000 0.51190  0.69860  0.15910  Biso   1.000  C
  C518     1.0000 0.48810  0.30140  0.65910  Biso   1.000  C
  C519     1.0000 0.30140  0.81330  0.82577  Biso   1.000  C
  C520     1.0000 0.18670  0.48810  0.49243  Biso   1.000  C
  C521     1.0000 0.81330  0.51190  0.99243  Biso   1.000  C
  C522     1.0000 0.69860  0.18670  0.32577  Biso   1.000  C
  H721     1.0000 0.51980  0.72320  0.15240  Biso   1.000  H
  H722     1.0000 0.48020  0.27680  0.65240  Biso   1.000  H
  H723     1.0000 0.27680  0.79660  0.81907  Biso   1.000  H
  H724     1.0000 0.20340  0.48020  0.48573  Biso   1.000  H
  H725     1.0000 0.79660  0.51980  0.98573  Biso   1.000  H
  H726     1.0000 0.72320  0.20340  0.31907  Biso   1.000  H
  H727     1.0000 0.50240  0.68510  0.12810  Biso   1.000  H
  H728     1.0000 0.49760  0.31490  0.62810  Biso   1.000  H
  H729     1.0000 0.31490  0.81730  0.79477  Biso   1.000  H
  H730     1.0000 0.18270  0.49760  0.46143  Biso   1.000  H
  H731     1.0000 0.81730  0.50240  0.96143  Biso   1.000  H
  H732     1.0000 0.68510  0.18270  0.29477  Biso   1.000  H
  H733     1.0000 0.53170  0.69640  0.17070  Biso   1.000  H
  H734     1.0000 0.46830  0.30360  0.67070  Biso   1.000  H
  H735     1.0000 0.30360  0.83530  0.83737  Biso   1.000  H
  H736     1.0000 0.16470  0.46830  0.50403  Biso   1.000  H
  H737     1.0000 0.83530  0.53170  0.00403  Biso   1.000  H
  H738     1.0000 0.69640  0.16470  0.33737  Biso   1.000  H
  C523     1.0000 0.47910  0.64840  0.22180  Biso   1.000  C
  C524     1.0000 0.52090  0.35160  0.72180  Biso   1.000  C
  C525     1.0000 0.35160  0.83070  0.88847  Biso   1.000  C
  C526     1.0000 0.16930  0.52090  0.55513  Biso   1.000  C
  C527     1.0000 0.83070  0.47910  0.05513  Biso   1.000  C
  C528     1.0000 0.64840  0.16930  0.38847  Biso   1.000  C
  H739     1.0000 0.46260  0.63710  0.24950  Biso   1.000  H
  H740     1.0000 0.53740  0.36290  0.74950  Biso   1.000  H
  H741     1.0000 0.36290  0.82550  0.91617  Biso   1.000  H
  H742     1.0000 0.17450  0.53740  0.58283  Biso   1.000  H
  H743     1.0000 0.82550  0.46260  0.08283  Biso   1.000  H
  H744     1.0000 0.63710  0.17450  0.41617  Biso   1.000  H
  H745     1.0000 0.50260  0.65420  0.23260  Biso   1.000  H
  H746     1.0000 0.49740  0.34580  0.73260  Biso   1.000  H
  H747     1.0000 0.34580  0.84840  0.89927  Biso   1.000  H
  H748     1.0000 0.15160  0.49740  0.56593  Biso   1.000  H
  H749     1.0000 0.84840  0.50260  0.06593  Biso   1.000  H
  H750     1.0000 0.65420  0.15160  0.39927  Biso   1.000  H
  H751     1.0000 0.47210  0.63270  0.19270  Biso   1.000  H
  H752     1.0000 0.52790  0.36730  0.69270  Biso   1.000  H
  H753     1.0000 0.36730  0.83940  0.85937  Biso   1.000  H
  H754     1.0000 0.16060  0.52790  0.52603  Biso   1.000  H
  H755     1.0000 0.83940  0.47210  0.02603  Biso   1.000  H
  H756     1.0000 0.63270  0.16060  0.35937  Biso   1.000  H
  C529     1.0000 0.33410  0.46770  0.30450  Biso   1.000  C
  C530     1.0000 0.66590  0.53230  0.80450  Biso   1.000  C
  C531     1.0000 0.53230  0.86640  0.97117  Biso   1.000  C
  C532     1.0000 0.13360  0.66590  0.63783  Biso   1.000  C
  C533     1.0000 0.86640  0.33410  0.13783  Biso   1.000  C
  C534     1.0000 0.46770  0.13360  0.47117  Biso   1.000  C
  H757     1.0000 0.32900  0.48700  0.30210  Biso   1.000  H
  H758     1.0000 0.67100  0.51300  0.80210  Biso   1.000  H
  H759     1.0000 0.51300  0.84200  0.96877  Biso   1.000  H
  H760     1.0000 0.15800  0.67100  0.63543  Biso   1.000  H
  H761     1.0000 0.84200  0.32900  0.13543  Biso   1.000  H
  H762     1.0000 0.48700  0.15800  0.46877  Biso   1.000  H
  H763     1.0000 0.32430  0.45550  0.33680  Biso   1.000  H
  H764     1.0000 0.67570  0.54450  0.83680  Biso   1.000  H
  H765     1.0000 0.54450  0.86880  0.00347  Biso   1.000  H
  H766     1.0000 0.13120  0.67570  0.67013  Biso   1.000  H
  H767     1.0000 0.86880  0.32430  0.17013  Biso   1.000  H
  H768     1.0000 0.45550  0.13120  0.50347  Biso   1.000  H
  C535     1.0000 0.37300  0.48300  0.30570  Biso   1.000  C
  C536     1.0000 0.62700  0.51700  0.80570  Biso   1.000  C
  C537     1.0000 0.51700  0.89000  0.97237  Biso   1.000  C
  C538     1.0000 0.11000  0.62700  0.63903  Biso   1.000  C
  C539     1.0000 0.89000  0.37300  0.13903  Biso   1.000  C
  C540     1.0000 0.48300  0.11000  0.47237  Biso   1.000  C
  H769     1.0000 0.38460  0.50660  0.32090  Biso   1.000  H
  H770     1.0000 0.61540  0.49340  0.82090  Biso   1.000  H
  H771     1.0000 0.49340  0.87800  0.98757  Biso   1.000  H
  H772     1.0000 0.12200  0.61540  0.65423  Biso   1.000  H
  H773     1.0000 0.87800  0.38460  0.15423  Biso   1.000  H
  H774     1.0000 0.50660  0.12200  0.48757  Biso   1.000  H
  H775     1.0000 0.37940  0.46800  0.32510  Biso   1.000  H
  H776     1.0000 0.62060  0.53200  0.82510  Biso   1.000  H
  H777     1.0000 0.53200  0.91140  0.99177  Biso   1.000  H
  H778     1.0000 0.08860  0.62060  0.65843  Biso   1.000  H
  H779     1.0000 0.91140  0.37940  0.15843  Biso   1.000  H
  H780     1.0000 0.46800  0.08860  0.49177  Biso   1.000  H
  C541     1.0000 0.43485  0.53660  0.19000  Biso   1.000  C
  C542     1.0000 0.56515  0.46340  0.69000  Biso   1.000  C
  C543     1.0000 0.46340  0.89825  0.85667  Biso   1.000  C
  C544     1.0000 0.10175  0.56515  0.52333  Biso   1.000  C
  C545     1.0000 0.89825  0.43485  0.02333  Biso   1.000  C
  C546     1.0000 0.53660  0.10175  0.35667  Biso   1.000  C
  H781     1.0000 0.45890  0.55170  0.20270  Biso   1.000  H
  H782     1.0000 0.54110  0.44830  0.70270  Biso   1.000  H
  H783     1.0000 0.44830  0.90720  0.86937  Biso   1.000  H
  H784     1.0000 0.09280  0.54110  0.53603  Biso   1.000  H
  H785     1.0000 0.90720  0.45890  0.03603  Biso   1.000  H
  H786     1.0000 0.55170  0.09280  0.36937  Biso   1.000  H
  H787     1.0000 0.43630  0.53400  0.15310  Biso   1.000  H
  H788     1.0000 0.56370  0.46600  0.65310  Biso   1.000  H
  H789     1.0000 0.46600  0.90230  0.81977  Biso   1.000  H
  H790     1.0000 0.09770  0.56370  0.48643  Biso   1.000  H
  H791     1.0000 0.90230  0.43630  0.98643  Biso   1.000  H
  H792     1.0000 0.53400  0.09770  0.31977  Biso   1.000  H
  C547     1.0000 0.28188  0.47060  0.21760  Biso   1.000  C
  C548     1.0000 0.71812  0.52940  0.71760  Biso   1.000  C
  C549     1.0000 0.52940  0.81128  0.88427  Biso   1.000  C
  C550     1.0000 0.18872  0.71812  0.55093  Biso   1.000  C
  C551     1.0000 0.81128  0.28188  0.05093  Biso   1.000  C
  C552     1.0000 0.47060  0.18872  0.38427  Biso   1.000  C
  H793     1.0000 0.27350  0.47340  0.25100  Biso   1.000  H
  H794     1.0000 0.72650  0.52660  0.75100  Biso   1.000  H
  H795     1.0000 0.52660  0.80010  0.91767  Biso   1.000  H
  H796     1.0000 0.19990  0.72650  0.58433  Biso   1.000  H
  H797     1.0000 0.80010  0.27350  0.08433  Biso   1.000  H
  H798     1.0000 0.47340  0.19990  0.41767  Biso   1.000  H
  H799     1.0000 0.26290  0.44940  0.20160  Biso   1.000  H
  H800     1.0000 0.73710  0.55060  0.70160  Biso   1.000  H
  H801     1.0000 0.55060  0.81350  0.86827  Biso   1.000  H
  H802     1.0000 0.18650  0.73710  0.53493  Biso   1.000  H
  H803     1.0000 0.81350  0.26290  0.03493  Biso   1.000  H
  H804     1.0000 0.44940  0.18650  0.36827  Biso   1.000  H
  C553     1.0000 0.29030  0.50300  0.18400  Biso   1.000  C
  C554     1.0000 0.70970  0.49700  0.68400  Biso   1.000  C
  C555     1.0000 0.49700  0.78730  0.85067  Biso   1.000  C
  C556     1.0000 0.21270  0.70970  0.51733  Biso   1.000  C
  C557     1.0000 0.78730  0.29030  0.01733  Biso   1.000  C
  C558     1.0000 0.50300  0.21270  0.35067  Biso   1.000  C
  H805     1.0000 0.28390  0.49400  0.14900  Biso   1.000  H
  H806     1.0000 0.71610  0.50600  0.64900  Biso   1.000  H
  H807     1.0000 0.50600  0.78990  0.81567  Biso   1.000  H
  H808     1.0000 0.21010  0.71610  0.48233  Biso   1.000  H
  H809     1.0000 0.78990  0.28390  0.98233  Biso   1.000  H
  H810     1.0000 0.49400  0.21010  0.31567  Biso   1.000  H
  H811     1.0000 0.27360  0.51050  0.19430  Biso   1.000  H
  H812     1.0000 0.72640  0.48950  0.69430  Biso   1.000  H
  H813     1.0000 0.48950  0.76310  0.86097  Biso   1.000  H
  H814     1.0000 0.23690  0.72640  0.52763  Biso   1.000  H
  H815     1.0000 0.76310  0.27360  0.02763  Biso   1.000  H
  H816     1.0000 0.51050  0.23690  0.36097  Biso   1.000  H
  C559     1.0000 0.41800  0.49600  0.21780  Biso   1.000  C
  C560     1.0000 0.58200  0.50400  0.71780  Biso   1.000  C
  C561     1.0000 0.50400  0.92200  0.88447  Biso   1.000  C
  C562     1.0000 0.07800  0.58200  0.55113  Biso   1.000  C
  C563     1.0000 0.92200  0.41800  0.05113  Biso   1.000  C
  C564     1.0000 0.49600  0.07800  0.38447  Biso   1.000  C
  H817     1.0000 0.41250  0.47840  0.19100  Biso   1.000  H
  H818     1.0000 0.58750  0.52160  0.69100  Biso   1.000  H
  H819     1.0000 0.52160  0.93410  0.85767  Biso   1.000  H
  H820     1.0000 0.06590  0.58750  0.52433  Biso   1.000  H
  H821     1.0000 0.93410  0.41250  0.02433  Biso   1.000  H
  H822     1.0000 0.47840  0.06590  0.35767  Biso   1.000  H
  H823     1.0000 0.43600  0.49600  0.23990  Biso   1.000  H
  H824     1.0000 0.56400  0.50400  0.73990  Biso   1.000  H
  H825     1.0000 0.50400  0.94000  0.90657  Biso   1.000  H
  H826     1.0000 0.06000  0.56400  0.57323  Biso   1.000  H
  H827     1.0000 0.94000  0.43600  0.07323  Biso   1.000  H
  H828     1.0000 0.49600  0.06000  0.40657  Biso   1.000  H
  C565     1.0000 0.40720  0.58484  0.17730  Biso   1.000  C
  C566     1.0000 0.59280  0.41516  0.67730  Biso   1.000  C
  C567     1.0000 0.41516  0.82236  0.84397  Biso   1.000  C
  C568     1.0000 0.17764  0.59280  0.51063  Biso   1.000  C
  C569     1.0000 0.82236  0.40720  0.01063  Biso   1.000  C
  C570     1.0000 0.58484  0.17764  0.34397  Biso   1.000  C
  H829     1.0000 0.43010  0.60220  0.16330  Biso   1.000  H
  H830     1.0000 0.56990  0.39780  0.66330  Biso   1.000  H
  H831     1.0000 0.39780  0.82790  0.82997  Biso   1.000  H
  H832     1.0000 0.17210  0.56990  0.49663  Biso   1.000  H
  H833     1.0000 0.82790  0.43010  0.99663  Biso   1.000  H
  H834     1.0000 0.60220  0.17210  0.32997  Biso   1.000  H
  H835     1.0000 0.40310  0.59630  0.20660  Biso   1.000  H
  H836     1.0000 0.59690  0.40370  0.70660  Biso   1.000  H
  H837     1.0000 0.40370  0.80680  0.87327  Biso   1.000  H
  H838     1.0000 0.19320  0.59690  0.53993  Biso   1.000  H
  H839     1.0000 0.80680  0.40310  0.03993  Biso   1.000  H
  H840     1.0000 0.59630  0.19320  0.37327  Biso   1.000  H
