data_image0
_cell_length_a       23.8801
_cell_length_b       16.8339
_cell_length_c       18.389
_cell_angle_alpha    90
_cell_angle_beta     111.979
_cell_angle_gamma    90

_symmetry_space_group_name_H-M    "P 1"
_symmetry_int_tables_number       1

loop_
  _symmetry_equiv_pos_as_xyz
  'x, y, z'

loop_
  _atom_site_label
  _atom_site_occupancy
  _atom_site_fract_x
  _atom_site_fract_y
  _atom_site_fract_z
  _atom_site_thermal_displace_type
  _atom_site_B_iso_or_equiv
  _atom_site_type_symbol
  Cu1      1.0000 0.73676  0.82217  0.19503  Biso   1.000  Cu
  Cu2      1.0000 0.73676  0.67783  0.69503  Biso   1.000  Cu
  Cu3      1.0000 0.26324  0.17783  0.80497  Biso   1.000  Cu
  Cu4      1.0000 0.26324  0.32217  0.30497  Biso   1.000  Cu
  Cu5      1.0000 0.76293  0.71719  0.30788  Biso   1.000  Cu
  Cu6      1.0000 0.76293  0.78281  0.80788  Biso   1.000  Cu
  Cu7      1.0000 0.23707  0.28281  0.69212  Biso   1.000  Cu
  Cu8      1.0000 0.23707  0.21719  0.19212  Biso   1.000  Cu
  O1       1.0000 0.39660  0.55530  0.94580  Biso   1.000  O
  O2       1.0000 0.39660  0.94470  0.44580  Biso   1.000  O
  O3       1.0000 0.60340  0.44470  0.05420  Biso   1.000  O
  O4       1.0000 0.60340  0.05530  0.55420  Biso   1.000  O
  O5       1.0000 0.66110  0.76270  0.14650  Biso   1.000  O
  O6       1.0000 0.66110  0.73730  0.64650  Biso   1.000  O
  O7       1.0000 0.33890  0.23730  0.85350  Biso   1.000  O
  O8       1.0000 0.33890  0.26270  0.35350  Biso   1.000  O
  O9       1.0000 0.68160  0.67550  0.24520  Biso   1.000  O
  O10      1.0000 0.68160  0.82450  0.74520  Biso   1.000  O
  O11      1.0000 0.31840  0.32450  0.75480  Biso   1.000  O
  O12      1.0000 0.31840  0.17550  0.25480  Biso   1.000  O
  O13      1.0000 0.27380  0.28940  0.13850  Biso   1.000  O
  O14      1.0000 0.27380  0.21060  0.63850  Biso   1.000  O
  O15      1.0000 0.72620  0.71060  0.86150  Biso   1.000  O
  O16      1.0000 0.72620  0.78940  0.36150  Biso   1.000  O
  O17      1.0000 0.29840  0.37830  0.23730  Biso   1.000  O
  O18      1.0000 0.29840  0.12170  0.73730  Biso   1.000  O
  O19      1.0000 0.70160  0.62170  0.76270  Biso   1.000  O
  O20      1.0000 0.70160  0.87830  0.26270  Biso   1.000  O
  O21      1.0000 0.11230  0.96640  0.54780  Biso   1.000  O
  O22      1.0000 0.11230  0.53360  0.04780  Biso   1.000  O
  O23      1.0000 0.88770  0.03360  0.45220  Biso   1.000  O
  O24      1.0000 0.88770  0.46640  0.95220  Biso   1.000  O
  O25      1.0000 0.83890  0.77890  0.35150  Biso   1.000  O
  O26      1.0000 0.83890  0.72110  0.85150  Biso   1.000  O
  O27      1.0000 0.16110  0.22110  0.64850  Biso   1.000  O
  O28      1.0000 0.16110  0.27890  0.14850  Biso   1.000  O
  O29      1.0000 0.81650  0.86750  0.25450  Biso   1.000  O
  O30      1.0000 0.81650  0.63250  0.75450  Biso   1.000  O
  O31      1.0000 0.18350  0.13250  0.74550  Biso   1.000  O
  O32      1.0000 0.18350  0.36750  0.24550  Biso   1.000  O
  O33      1.0000 0.22580  0.24660  0.35580  Biso   1.000  O
  O34      1.0000 0.22580  0.25340  0.85580  Biso   1.000  O
  O35      1.0000 0.77420  0.75340  0.64420  Biso   1.000  O
  O36      1.0000 0.77420  0.74660  0.14420  Biso   1.000  O
  O37      1.0000 0.20300  0.15850  0.25740  Biso   1.000  O
  O38      1.0000 0.20300  0.34150  0.75740  Biso   1.000  O
  O39      1.0000 0.79700  0.84150  0.74260  Biso   1.000  O
  O40      1.0000 0.79700  0.65850  0.24260  Biso   1.000  O
  C1       1.0000 0.42020  0.54670  0.01720  Biso   1.000  C
  C2       1.0000 0.42020  0.95330  0.51720  Biso   1.000  C
  C3       1.0000 0.57980  0.45330  0.98280  Biso   1.000  C
  C4       1.0000 0.57980  0.04670  0.48280  Biso   1.000  C
  C5       1.0000 0.47940  0.58490  0.06160  Biso   1.000  C
  C6       1.0000 0.47940  0.91510  0.56160  Biso   1.000  C
  C7       1.0000 0.52060  0.41510  0.93840  Biso   1.000  C
  C8       1.0000 0.52060  0.08490  0.43840  Biso   1.000  C
  C9       1.0000 0.49680  0.64950  0.02740  Biso   1.000  C
  C10      1.0000 0.49680  0.85050  0.52740  Biso   1.000  C
  C11      1.0000 0.50320  0.35050  0.97260  Biso   1.000  C
  C12      1.0000 0.50320  0.14950  0.47260  Biso   1.000  C
  H1       1.0000 0.47060  0.66740  0.97720  Biso   1.000  H
  H2       1.0000 0.47060  0.83260  0.47720  Biso   1.000  H
  H3       1.0000 0.52940  0.33260  0.02280  Biso   1.000  H
  H4       1.0000 0.52940  0.16740  0.52280  Biso   1.000  H
  C13      1.0000 0.55110  0.68800  0.06470  Biso   1.000  C
  C14      1.0000 0.55110  0.81200  0.56470  Biso   1.000  C
  C15      1.0000 0.44890  0.31200  0.93530  Biso   1.000  C
  C16      1.0000 0.44890  0.18800  0.43530  Biso   1.000  C
  H5       1.0000 0.56210  0.73210  0.04060  Biso   1.000  H
  H6       1.0000 0.56210  0.76790  0.54060  Biso   1.000  H
  H7       1.0000 0.43790  0.26790  0.95940  Biso   1.000  H
  H8       1.0000 0.43790  0.23210  0.45940  Biso   1.000  H
  C17      1.0000 0.58970  0.66100  0.13840  Biso   1.000  C
  C18      1.0000 0.58970  0.83900  0.63840  Biso   1.000  C
  C19      1.0000 0.41030  0.33900  0.86160  Biso   1.000  C
  C20      1.0000 0.41030  0.16100  0.36160  Biso   1.000  C
  C21      1.0000 0.57300  0.59650  0.17130  Biso   1.000  C
  C22      1.0000 0.57300  0.90350  0.67130  Biso   1.000  C
  C23      1.0000 0.42700  0.40350  0.82870  Biso   1.000  C
  C24      1.0000 0.42700  0.09650  0.32870  Biso   1.000  C
  H9       1.0000 0.59960  0.57680  0.22050  Biso   1.000  H
  H10      1.0000 0.59960  0.92320  0.72050  Biso   1.000  H
  H11      1.0000 0.40040  0.42320  0.77950  Biso   1.000  H
  H12      1.0000 0.40040  0.07680  0.27950  Biso   1.000  H
  C25      1.0000 0.51750  0.55950  0.13330  Biso   1.000  C
  C26      1.0000 0.51750  0.94050  0.63330  Biso   1.000  C
  C27      1.0000 0.48250  0.44050  0.86670  Biso   1.000  C
  C28      1.0000 0.48250  0.05950  0.36670  Biso   1.000  C
  H13      1.0000 0.50610  0.51610  0.15780  Biso   1.000  H
  H14      1.0000 0.50610  0.98390  0.65780  Biso   1.000  H
  H15      1.0000 0.49390  0.48390  0.84220  Biso   1.000  H
  H16      1.0000 0.49390  0.01610  0.34220  Biso   1.000  H
  C29      1.0000 0.64860  0.70270  0.17950  Biso   1.000  C
  C30      1.0000 0.64860  0.79730  0.67950  Biso   1.000  C
  C31      1.0000 0.35140  0.29730  0.82050  Biso   1.000  C
  C32      1.0000 0.35140  0.20270  0.32050  Biso   1.000  C
  C33      1.0000 0.38970  0.49650  0.05800  Biso   1.000  C
  C34      1.0000 0.38970  0.00350  0.55800  Biso   1.000  C
  C35      1.0000 0.61030  0.50350  0.94200  Biso   1.000  C
  C36      1.0000 0.61030  0.99650  0.44200  Biso   1.000  C
  C37      1.0000 0.35870  0.42870  0.02240  Biso   1.000  C
  C38      1.0000 0.35870  0.07130  0.52240  Biso   1.000  C
  C39      1.0000 0.64130  0.57130  0.97760  Biso   1.000  C
  C40      1.0000 0.64130  0.92870  0.47760  Biso   1.000  C
  H17      1.0000 0.35780  0.41390  0.97210  Biso   1.000  H
  H18      1.0000 0.35780  0.08610  0.47210  Biso   1.000  H
  H19      1.0000 0.64220  0.58610  0.02790  Biso   1.000  H
  H20      1.0000 0.64220  0.91390  0.52790  Biso   1.000  H
  C41      1.0000 0.32910  0.38230  0.05860  Biso   1.000  C
  C42      1.0000 0.32910  0.11770  0.55860  Biso   1.000  C
  C43      1.0000 0.67090  0.61770  0.94140  Biso   1.000  C
  C44      1.0000 0.67090  0.88230  0.44140  Biso   1.000  C
  H21      1.0000 0.30860  0.33560  0.03360  Biso   1.000  H
  H22      1.0000 0.30860  0.16440  0.53360  Biso   1.000  H
  H23      1.0000 0.69140  0.66440  0.96640  Biso   1.000  H
  H24      1.0000 0.69140  0.83560  0.46640  Biso   1.000  H
  C45      1.0000 0.32940  0.40400  0.13160  Biso   1.000  C
  C46      1.0000 0.32940  0.09600  0.63160  Biso   1.000  C
  C47      1.0000 0.67060  0.59600  0.86840  Biso   1.000  C
  C48      1.0000 0.67060  0.90400  0.36840  Biso   1.000  C
  C49      1.0000 0.35890  0.47220  0.16760  Biso   1.000  C
  C50      1.0000 0.35890  0.02780  0.66760  Biso   1.000  C
  C51      1.0000 0.64110  0.52780  0.83240  Biso   1.000  C
  C52      1.0000 0.64110  0.97220  0.33240  Biso   1.000  C
  H25      1.0000 0.35840  0.48780  0.21700  Biso   1.000  H
  H26      1.0000 0.35840  0.01220  0.71700  Biso   1.000  H
  H27      1.0000 0.64160  0.51220  0.78300  Biso   1.000  H
  H28      1.0000 0.64160  0.98780  0.28300  Biso   1.000  H
  C53      1.0000 0.38940  0.51850  0.13110  Biso   1.000  C
  C54      1.0000 0.38940  0.98150  0.63110  Biso   1.000  C
  C55      1.0000 0.61060  0.48150  0.86890  Biso   1.000  C
  C56      1.0000 0.61060  0.01850  0.36890  Biso   1.000  C
  H29      1.0000 0.41000  0.56510  0.15610  Biso   1.000  H
  H30      1.0000 0.41000  0.93490  0.65610  Biso   1.000  H
  H31      1.0000 0.59000  0.43490  0.84390  Biso   1.000  H
  H32      1.0000 0.59000  0.06510  0.34390  Biso   1.000  H
  C57      1.0000 0.29820  0.35290  0.17170  Biso   1.000  C
  C58      1.0000 0.29820  0.14710  0.67170  Biso   1.000  C
  C59      1.0000 0.70180  0.64710  0.82830  Biso   1.000  C
  C60      1.0000 0.70180  0.85290  0.32830  Biso   1.000  C
  C61      1.0000 0.08600  0.97940  0.47700  Biso   1.000  C
  C62      1.0000 0.08600  0.52060  0.97700  Biso   1.000  C
  C63      1.0000 0.91400  0.02060  0.52300  Biso   1.000  C
  C64      1.0000 0.91400  0.47940  0.02300  Biso   1.000  C
  C65      1.0000 0.02570  0.94350  0.43410  Biso   1.000  C
  C66      1.0000 0.02570  0.55650  0.93410  Biso   1.000  C
  C67      1.0000 0.97430  0.05650  0.56590  Biso   1.000  C
  C68      1.0000 0.97430  0.44350  0.06590  Biso   1.000  C
  C69      1.0000 0.00790  0.87710  0.46520  Biso   1.000  C
  C70      1.0000 0.00790  0.62290  0.96520  Biso   1.000  C
  C71      1.0000 0.99210  0.12290  0.53480  Biso   1.000  C
  C72      1.0000 0.99210  0.37710  0.03480  Biso   1.000  C
  H33      1.0000 0.03530  0.85470  0.51260  Biso   1.000  H
  H34      1.0000 0.03530  0.64530  0.01260  Biso   1.000  H
  H35      1.0000 0.96470  0.14530  0.48740  Biso   1.000  H
  H36      1.0000 0.96470  0.35470  0.98740  Biso   1.000  H
  C73      1.0000 0.95210  0.84280  0.42960  Biso   1.000  C
  C74      1.0000 0.95210  0.65720  0.92960  Biso   1.000  C
  C75      1.0000 0.04790  0.15720  0.57040  Biso   1.000  C
  C76      1.0000 0.04790  0.34280  0.07040  Biso   1.000  C
  H37      1.0000 0.94060  0.79840  0.45260  Biso   1.000  H
  H38      1.0000 0.94060  0.70160  0.95260  Biso   1.000  H
  H39      1.0000 0.05940  0.20160  0.54740  Biso   1.000  H
  H40      1.0000 0.05940  0.29840  0.04740  Biso   1.000  H
  C77      1.0000 0.91210  0.87480  0.35820  Biso   1.000  C
  C78      1.0000 0.91210  0.62520  0.85820  Biso   1.000  C
  C79      1.0000 0.08790  0.12520  0.64180  Biso   1.000  C
  C80      1.0000 0.08790  0.37480  0.14180  Biso   1.000  C
  C81      1.0000 0.92900  0.94070  0.32660  Biso   1.000  C
  C82      1.0000 0.92900  0.55930  0.82660  Biso   1.000  C
  C83      1.0000 0.07100  0.05930  0.67340  Biso   1.000  C
  C84      1.0000 0.07100  0.44070  0.17340  Biso   1.000  C
  H41      1.0000 0.90170  0.96270  0.27890  Biso   1.000  H
  H42      1.0000 0.90170  0.53730  0.77890  Biso   1.000  H
  H43      1.0000 0.09830  0.03730  0.72110  Biso   1.000  H
  H44      1.0000 0.09830  0.46270  0.22110  Biso   1.000  H
  C85      1.0000 0.98490  0.97510  0.36340  Biso   1.000  C
  C86      1.0000 0.98490  0.52490  0.86340  Biso   1.000  C
  C87      1.0000 0.01510  0.02490  0.63660  Biso   1.000  C
  C88      1.0000 0.01510  0.47510  0.13660  Biso   1.000  C
  H45      1.0000 0.99600  0.02030  0.34080  Biso   1.000  H
  H46      1.0000 0.99600  0.47970  0.84080  Biso   1.000  H
  H47      1.0000 0.00400  0.97970  0.65920  Biso   1.000  H
  H48      1.0000 0.00400  0.52030  0.15920  Biso   1.000  H
  C89      1.0000 0.85070  0.83770  0.31770  Biso   1.000  C
  C90      1.0000 0.85070  0.66230  0.81770  Biso   1.000  C
  C91      1.0000 0.14930  0.16230  0.68230  Biso   1.000  C
  C92      1.0000 0.14930  0.33770  0.18230  Biso   1.000  C
  C93      1.0000 0.11520  0.03170  0.43480  Biso   1.000  C
  C94      1.0000 0.11520  0.46830  0.93480  Biso   1.000  C
  C95      1.0000 0.88480  0.96830  0.56520  Biso   1.000  C
  C96      1.0000 0.88480  0.53170  0.06520  Biso   1.000  C
  C97      1.0000 0.15120  0.09580  0.47730  Biso   1.000  C
  C98      1.0000 0.15120  0.40420  0.97730  Biso   1.000  C
  C99      1.0000 0.84880  0.90420  0.52270  Biso   1.000  C
  C100     1.0000 0.84880  0.59580  0.02270  Biso   1.000  C
  H49      1.0000 0.15620  0.10530  0.53030  Biso   1.000  H
  H50      1.0000 0.15620  0.39470  0.03030  Biso   1.000  H
  H51      1.0000 0.84380  0.89470  0.46970  Biso   1.000  H
  H52      1.0000 0.84380  0.60530  0.96970  Biso   1.000  H
  C101     1.0000 0.17870  0.14400  0.44010  Biso   1.000  C
  C102     1.0000 0.17870  0.35600  0.94010  Biso   1.000  C
  C103     1.0000 0.82130  0.85600  0.55990  Biso   1.000  C
  C104     1.0000 0.82130  0.64400  0.05990  Biso   1.000  C
  H53      1.0000 0.20110  0.18880  0.46710  Biso   1.000  H
  H54      1.0000 0.20110  0.31120  0.96710  Biso   1.000  H
  H55      1.0000 0.79890  0.81120  0.53290  Biso   1.000  H
  H56      1.0000 0.79890  0.68880  0.03290  Biso   1.000  H
  C105     1.0000 0.17440  0.12830  0.36210  Biso   1.000  C
  C106     1.0000 0.17440  0.37170  0.86210  Biso   1.000  C
  C107     1.0000 0.82560  0.87170  0.63790  Biso   1.000  C
  C108     1.0000 0.82560  0.62830  0.13790  Biso   1.000  C
  C109     1.0000 0.14050  0.06400  0.32360  Biso   1.000  C
  C110     1.0000 0.14050  0.43600  0.82360  Biso   1.000  C
  C111     1.0000 0.85950  0.93600  0.67640  Biso   1.000  C
  C112     1.0000 0.85950  0.56400  0.17640  Biso   1.000  C
  H57      1.0000 0.13720  0.05250  0.27160  Biso   1.000  H
  H58      1.0000 0.13720  0.44750  0.77160  Biso   1.000  H
  H59      1.0000 0.86280  0.94750  0.72840  Biso   1.000  H
  H60      1.0000 0.86280  0.55250  0.22840  Biso   1.000  H
  C113     1.0000 0.11120  0.01590  0.35900  Biso   1.000  C
  C114     1.0000 0.11120  0.48410  0.85900  Biso   1.000  C
  C115     1.0000 0.88880  0.98410  0.64100  Biso   1.000  C
  C116     1.0000 0.88880  0.51590  0.14100  Biso   1.000  C
  H61      1.0000 0.08820  0.97180  0.33130  Biso   1.000  H
  H62      1.0000 0.08820  0.52820  0.83130  Biso   1.000  H
  H63      1.0000 0.91180  0.02820  0.66870  Biso   1.000  H
  H64      1.0000 0.91180  0.47180  0.16870  Biso   1.000  H
  C117     1.0000 0.20390  0.18160  0.32220  Biso   1.000  C
  C118     1.0000 0.20390  0.31840  0.82220  Biso   1.000  C
  C119     1.0000 0.79610  0.81840  0.67780  Biso   1.000  C
  C120     1.0000 0.79610  0.68160  0.17780  Biso   1.000  C
  O41      1.0000 0.71480  0.90900  0.10180  Biso   1.000  O
  O42      1.0000 0.71480  0.59100  0.60180  Biso   1.000  O
  O43      1.0000 0.28520  0.09100  0.89820  Biso   1.000  O
  O44      1.0000 0.28520  0.40900  0.39820  Biso   1.000  O
  O45      1.0000 0.79110  0.63020  0.39900  Biso   1.000  O
  O46      1.0000 0.79110  0.86980  0.89900  Biso   1.000  O
  O47      1.0000 0.20890  0.36980  0.60100  Biso   1.000  O
  O48      1.0000 0.20890  0.13020  0.10100  Biso   1.000  O
  O49      1.0000 0.54790  0.17180  0.05810  Biso   1.000  O
  O50      1.0000 0.54790  0.32820  0.55810  Biso   1.000  O
  O51      1.0000 0.45210  0.82820  0.94190  Biso   1.000  O
  O52      1.0000 0.45210  0.67180  0.44190  Biso   1.000  O
  O53      1.0000 0.97020  0.02030  0.82700  Biso   1.000  O
  O54      1.0000 0.97020  0.47970  0.32700  Biso   1.000  O
  O55      1.0000 0.02980  0.97970  0.17300  Biso   1.000  O
  O56      1.0000 0.02980  0.52030  0.67300  Biso   1.000  O
  O57      1.0000 0.26160  0.83020  0.09700  Biso   1.000  O
  O58      1.0000 0.26160  0.66980  0.59700  Biso   1.000  O
  O59      1.0000 0.73840  0.16980  0.90300  Biso   1.000  O
  O60      1.0000 0.73840  0.33020  0.40300  Biso   1.000  O
  O61      1.0000 0.99160  0.76760  0.07600  Biso   1.000  O
  O62      1.0000 0.99160  0.73240  0.57600  Biso   1.000  O
  O63      1.0000 0.00840  0.23240  0.92400  Biso   1.000  O
  O64      1.0000 0.00840  0.26760  0.42400  Biso   1.000  O
  O65      1.0000 0.51960  0.50960  0.30780  Biso   1.000  O
  O66      1.0000 0.51960  0.99040  0.80780  Biso   1.000  O
  O67      1.0000 0.48040  0.49040  0.69220  Biso   1.000  O
  O68      1.0000 0.48040  0.00960  0.19220  Biso   1.000  O
  O69      1.0000 0.19820  0.86130  0.33300  Biso   1.000  O
  O70      1.0000 0.19820  0.63870  0.83300  Biso   1.000  O
  O71      1.0000 0.80180  0.13870  0.66700  Biso   1.000  O
  O72      1.0000 0.80180  0.36130  0.16700  Biso   1.000  O
  O73      1.0000 0.40260  0.69010  0.21420  Biso   1.000  O
  O74      1.0000 0.40260  0.80990  0.71420  Biso   1.000  O
  O75      1.0000 0.59740  0.30990  0.78580  Biso   1.000  O
  O76      1.0000 0.59740  0.19010  0.28580  Biso   1.000  O
  O77      1.0000 0.13730  0.60410  0.32740  Biso   1.000  O
  O78      1.0000 0.13730  0.89590  0.82740  Biso   1.000  O
  O79      1.0000 0.86270  0.39590  0.67260  Biso   1.000  O
  O80      1.0000 0.86270  0.10410  0.17260  Biso   1.000  O
  N1       1.0000 0.67170  0.92390  0.97020  Biso   1.000  N
  N2       1.0000 0.67170  0.57610  0.47020  Biso   1.000  N
  N3       1.0000 0.32830  0.07610  0.02980  Biso   1.000  N
  N4       1.0000 0.32830  0.42390  0.52980  Biso   1.000  N
  N5       1.0000 0.84130  0.60000  0.52680  Biso   1.000  N
  N6       1.0000 0.84130  0.90000  0.02680  Biso   1.000  N
  N7       1.0000 0.15870  0.40000  0.47320  Biso   1.000  N
  N8       1.0000 0.15870  0.10000  0.97320  Biso   1.000  N
  N9       1.0000 0.63980  0.20610  0.05750  Biso   1.000  N
  N10      1.0000 0.63980  0.29390  0.55750  Biso   1.000  N
  N11      1.0000 0.36020  0.79390  0.94250  Biso   1.000  N
  N12      1.0000 0.36020  0.70610  0.44250  Biso   1.000  N
  N13      1.0000 0.99870  0.91370  0.90540  Biso   1.000  N
  N14      1.0000 0.99870  0.58630  0.40540  Biso   1.000  N
  N15      1.0000 0.00130  0.08630  0.09460  Biso   1.000  N
  N16      1.0000 0.00130  0.41370  0.59460  Biso   1.000  N
  N17      1.0000 0.23140  0.70680  0.04310  Biso   1.000  N
  N18      1.0000 0.23140  0.79320  0.54310  Biso   1.000  N
  N19      1.0000 0.76860  0.29320  0.95690  Biso   1.000  N
  N20      1.0000 0.76860  0.20680  0.45690  Biso   1.000  N
  N21      1.0000 0.01770  0.76410  0.20730  Biso   1.000  N
  N22      1.0000 0.01770  0.73590  0.70730  Biso   1.000  N
  N23      1.0000 0.98230  0.23590  0.79270  Biso   1.000  N
  N24      1.0000 0.98230  0.26410  0.29270  Biso   1.000  N
  N25      1.0000 0.46560  0.45180  0.37120  Biso   1.000  N
  N26      1.0000 0.46560  0.04820  0.87120  Biso   1.000  N
  N27      1.0000 0.53440  0.54820  0.62880  Biso   1.000  N
  N28      1.0000 0.53440  0.95180  0.12880  Biso   1.000  N
  N29      1.0000 0.23470  0.93250  0.25480  Biso   1.000  N
  N30      1.0000 0.23470  0.56750  0.75480  Biso   1.000  N
  N31      1.0000 0.76530  0.06750  0.74520  Biso   1.000  N
  N32      1.0000 0.76530  0.43250  0.24520  Biso   1.000  N
  N33      1.0000 0.46480  0.78710  0.28430  Biso   1.000  N
  N34      1.0000 0.46480  0.71290  0.78430  Biso   1.000  N
  N35      1.0000 0.53520  0.21290  0.71570  Biso   1.000  N
  N36      1.0000 0.53520  0.28710  0.21570  Biso   1.000  N
  N37      1.0000 0.19070  0.60160  0.24910  Biso   1.000  N
  N38      1.0000 0.19070  0.89840  0.74910  Biso   1.000  N
  N39      1.0000 0.80930  0.39840  0.75090  Biso   1.000  N
  N40      1.0000 0.80930  0.10160  0.25090  Biso   1.000  N
  C121     1.0000 0.69600  0.88120  0.03390  Biso   1.000  C
  C122     1.0000 0.69600  0.61880  0.53390  Biso   1.000  C
  C123     1.0000 0.30400  0.11880  0.96610  Biso   1.000  C
  C124     1.0000 0.30400  0.38120  0.46610  Biso   1.000  C
  H65      1.0000 0.69950  0.82560  0.02810  Biso   1.000  H
  H66      1.0000 0.69950  0.67440  0.52810  Biso   1.000  H
  H67      1.0000 0.30050  0.17440  0.97190  Biso   1.000  H
  H68      1.0000 0.30050  0.32560  0.47190  Biso   1.000  H
  C125     1.0000 0.65260  0.88910  0.89280  Biso   1.000  C
  C126     1.0000 0.65260  0.61090  0.39280  Biso   1.000  C
  C127     1.0000 0.34740  0.11090  0.10720  Biso   1.000  C
  C128     1.0000 0.34740  0.38910  0.60720  Biso   1.000  C
  H69      1.0000 0.66000  0.83170  0.89740  Biso   1.000  H
  H70      1.0000 0.66000  0.66830  0.39740  Biso   1.000  H
  H71      1.0000 0.34000  0.16830  0.10260  Biso   1.000  H
  H72      1.0000 0.34000  0.33170  0.60260  Biso   1.000  H
  H73      1.0000 0.67550  0.91300  0.86380  Biso   1.000  H
  H74      1.0000 0.67550  0.58700  0.36380  Biso   1.000  H
  H75      1.0000 0.32450  0.08700  0.13620  Biso   1.000  H
  H76      1.0000 0.32450  0.41300  0.63620  Biso   1.000  H
  H77      1.0000 0.60940  0.89900  0.86460  Biso   1.000  H
  H78      1.0000 0.60940  0.60100  0.36460  Biso   1.000  H
  H79      1.0000 0.39060  0.10100  0.13540  Biso   1.000  H
  H80      1.0000 0.39060  0.39900  0.63540  Biso   1.000  H
  C129     1.0000 0.66370  0.00990  0.97380  Biso   1.000  C
  C130     1.0000 0.66370  0.49010  0.47380  Biso   1.000  C
  C131     1.0000 0.33630  0.99010  0.02620  Biso   1.000  C
  C132     1.0000 0.33630  0.50990  0.52620  Biso   1.000  C
  H81      1.0000 0.67740  0.02680  0.02870  Biso   1.000  H
  H82      1.0000 0.67740  0.47320  0.52870  Biso   1.000  H
  H83      1.0000 0.32260  0.97320  0.97130  Biso   1.000  H
  H84      1.0000 0.32260  0.52680  0.47130  Biso   1.000  H
  H85      1.0000 0.62090  0.02330  0.94710  Biso   1.000  H
  H86      1.0000 0.62090  0.47670  0.44710  Biso   1.000  H
  H87      1.0000 0.37910  0.97670  0.05290  Biso   1.000  H
  H88      1.0000 0.37910  0.52330  0.55290  Biso   1.000  H
  H89      1.0000 0.68740  0.03730  0.94800  Biso   1.000  H
  H90      1.0000 0.68740  0.46270  0.44800  Biso   1.000  H
  H91      1.0000 0.31260  0.96270  0.05200  Biso   1.000  H
  H92      1.0000 0.31260  0.53730  0.55200  Biso   1.000  H
  C133     1.0000 0.82280  0.64900  0.46680  Biso   1.000  C
  C134     1.0000 0.82280  0.85100  0.96680  Biso   1.000  C
  C135     1.0000 0.17720  0.35100  0.53320  Biso   1.000  C
  C136     1.0000 0.17720  0.14900  0.03320  Biso   1.000  C
  H93      1.0000 0.83480  0.70300  0.47630  Biso   1.000  H
  H94      1.0000 0.83480  0.79700  0.97630  Biso   1.000  H
  H95      1.0000 0.16520  0.29700  0.52370  Biso   1.000  H
  H96      1.0000 0.16520  0.20300  0.02370  Biso   1.000  H
  C137     1.0000 0.87670  0.62700  0.60480  Biso   1.000  C
  C138     1.0000 0.87670  0.87300  0.10480  Biso   1.000  C
  C139     1.0000 0.12330  0.37300  0.39520  Biso   1.000  C
  C140     1.0000 0.12330  0.12700  0.89520  Biso   1.000  C
  H97      1.0000 0.88340  0.68440  0.60390  Biso   1.000  H
  H98      1.0000 0.88340  0.81560  0.10390  Biso   1.000  H
  H99      1.0000 0.11660  0.31560  0.39610  Biso   1.000  H
  H100     1.0000 0.11660  0.18440  0.89610  Biso   1.000  H
  H101     1.0000 0.91560  0.59950  0.62410  Biso   1.000  H
  H102     1.0000 0.91560  0.90050  0.12410  Biso   1.000  H
  H103     1.0000 0.08440  0.40050  0.37590  Biso   1.000  H
  H104     1.0000 0.08440  0.09950  0.87590  Biso   1.000  H
  H105     1.0000 0.85500  0.61560  0.63960  Biso   1.000  H
  H106     1.0000 0.85500  0.88440  0.13960  Biso   1.000  H
  H107     1.0000 0.14500  0.38440  0.36040  Biso   1.000  H
  H108     1.0000 0.14500  0.11560  0.86040  Biso   1.000  H
  C141     1.0000 0.82620  0.51550  0.51340  Biso   1.000  C
  C142     1.0000 0.82620  0.98450  0.01340  Biso   1.000  C
  C143     1.0000 0.17380  0.48450  0.48660  Biso   1.000  C
  C144     1.0000 0.17380  0.01550  0.98660  Biso   1.000  C
  H109     1.0000 0.80240  0.50660  0.45770  Biso   1.000  H
  H110     1.0000 0.80240  0.99340  0.95770  Biso   1.000  H
  H111     1.0000 0.19760  0.49340  0.54230  Biso   1.000  H
  H112     1.0000 0.19760  0.00660  0.04230  Biso   1.000  H
  H113     1.0000 0.80280  0.49910  0.54470  Biso   1.000  H
  H114     1.0000 0.80280  0.00090  0.04470  Biso   1.000  H
  H115     1.0000 0.19720  0.50090  0.45530  Biso   1.000  H
  H116     1.0000 0.19720  0.99910  0.95530  Biso   1.000  H
  H117     1.0000 0.86350  0.48420  0.52900  Biso   1.000  H
  H118     1.0000 0.86350  0.01580  0.02900  Biso   1.000  H
  H119     1.0000 0.13650  0.51580  0.47100  Biso   1.000  H
  H120     1.0000 0.13650  0.98420  0.97100  Biso   1.000  H
  C145     1.0000 0.59990  0.18300  0.09050  Biso   1.000  C
  C146     1.0000 0.59990  0.31700  0.59050  Biso   1.000  C
  C147     1.0000 0.40010  0.81700  0.90950  Biso   1.000  C
  C148     1.0000 0.40010  0.68300  0.40950  Biso   1.000  C
  H121     1.0000 0.61600  0.17510  0.14570  Biso   1.000  H
  H122     1.0000 0.61600  0.32490  0.64570  Biso   1.000  H
  H123     1.0000 0.38400  0.82490  0.85430  Biso   1.000  H
  H124     1.0000 0.38400  0.67510  0.35430  Biso   1.000  H
  C149     1.0000 0.61560  0.21850  0.97080  Biso   1.000  C
  C150     1.0000 0.61560  0.28150  0.47080  Biso   1.000  C
  C151     1.0000 0.38440  0.78150  0.02920  Biso   1.000  C
  C152     1.0000 0.38440  0.71850  0.52920  Biso   1.000  C
  H125     1.0000 0.57170  0.21210  0.94990  Biso   1.000  H
  H126     1.0000 0.57170  0.28790  0.44990  Biso   1.000  H
  H127     1.0000 0.42830  0.78790  0.05010  Biso   1.000  H
  H128     1.0000 0.42830  0.71210  0.55010  Biso   1.000  H
  H129     1.0000 0.63360  0.17950  0.94650  Biso   1.000  H
  H130     1.0000 0.63360  0.32050  0.44650  Biso   1.000  H
  H131     1.0000 0.36640  0.82050  0.05350  Biso   1.000  H
  H132     1.0000 0.36640  0.67950  0.55350  Biso   1.000  H
  H133     1.0000 0.62580  0.27230  0.95930  Biso   1.000  H
  H134     1.0000 0.62580  0.22770  0.45930  Biso   1.000  H
  H135     1.0000 0.37420  0.72770  0.04070  Biso   1.000  H
  H136     1.0000 0.37420  0.77230  0.54070  Biso   1.000  H
  C153     1.0000 0.70070  0.21410  0.08750  Biso   1.000  C
  C154     1.0000 0.70070  0.28590  0.58750  Biso   1.000  C
  C155     1.0000 0.29930  0.78590  0.91250  Biso   1.000  C
  C156     1.0000 0.29930  0.71410  0.41250  Biso   1.000  C
  H137     1.0000 0.71590  0.20650  0.14450  Biso   1.000  H
  H138     1.0000 0.71590  0.29350  0.64450  Biso   1.000  H
  H139     1.0000 0.28410  0.79350  0.85550  Biso   1.000  H
  H140     1.0000 0.28410  0.70650  0.35550  Biso   1.000  H
  H141     1.0000 0.71150  0.26740  0.07570  Biso   1.000  H
  H142     1.0000 0.71150  0.23260  0.57570  Biso   1.000  H
  H143     1.0000 0.28850  0.73260  0.92430  Biso   1.000  H
  H144     1.0000 0.28850  0.76740  0.42430  Biso   1.000  H
  H145     1.0000 0.71870  0.17420  0.06410  Biso   1.000  H
  H146     1.0000 0.71870  0.32580  0.56410  Biso   1.000  H
  H147     1.0000 0.28130  0.82580  0.93590  Biso   1.000  H
  H148     1.0000 0.28130  0.67420  0.43590  Biso   1.000  H
  C157     1.0000 0.00470  0.96660  0.85620  Biso   1.000  C
  C158     1.0000 0.00470  0.53340  0.35620  Biso   1.000  C
  C159     1.0000 0.99530  0.03340  0.14380  Biso   1.000  C
  C160     1.0000 0.99530  0.46660  0.64380  Biso   1.000  C
  H149     1.0000 0.03920  0.96220  0.84250  Biso   1.000  H
  H150     1.0000 0.03920  0.53780  0.34250  Biso   1.000  H
  H151     1.0000 0.96080  0.03780  0.15750  Biso   1.000  H
  H152     1.0000 0.96080  0.46220  0.65750  Biso   1.000  H
  C161     1.0000 0.04390  0.85080  0.94020  Biso   1.000  C
  C162     1.0000 0.04390  0.64920  0.44020  Biso   1.000  C
  C163     1.0000 0.95610  0.14920  0.05980  Biso   1.000  C
  C164     1.0000 0.95610  0.35080  0.55980  Biso   1.000  C
  H153     1.0000 0.07690  0.85620  0.92110  Biso   1.000  H
  H154     1.0000 0.07690  0.64380  0.42110  Biso   1.000  H
  H155     1.0000 0.92310  0.14380  0.07890  Biso   1.000  H
  H156     1.0000 0.92310  0.35620  0.57890  Biso   1.000  H
  H157     1.0000 0.02480  0.79860  0.92510  Biso   1.000  H
  H158     1.0000 0.02480  0.70140  0.42510  Biso   1.000  H
  H159     1.0000 0.97520  0.20140  0.07490  Biso   1.000  H
  H160     1.0000 0.97520  0.29860  0.57490  Biso   1.000  H
  H161     1.0000 0.05990  0.85570  0.99740  Biso   1.000  H
  H162     1.0000 0.05990  0.64430  0.49740  Biso   1.000  H
  H163     1.0000 0.94010  0.14430  0.00260  Biso   1.000  H
  H164     1.0000 0.94010  0.35570  0.50260  Biso   1.000  H
  C165     1.0000 0.94890  0.91450  0.92780  Biso   1.000  C
  C166     1.0000 0.94890  0.58550  0.42780  Biso   1.000  C
  C167     1.0000 0.05110  0.08550  0.07220  Biso   1.000  C
  C168     1.0000 0.05110  0.41450  0.57220  Biso   1.000  C
  H165     1.0000 0.92200  0.95840  0.90150  Biso   1.000  H
  H166     1.0000 0.92200  0.54160  0.40150  Biso   1.000  H
  H167     1.0000 0.07800  0.04160  0.09850  Biso   1.000  H
  H168     1.0000 0.07800  0.45840  0.59850  Biso   1.000  H
  H169     1.0000 0.96270  0.92150  0.98480  Biso   1.000  H
  H170     1.0000 0.96270  0.57850  0.48480  Biso   1.000  H
  H171     1.0000 0.03730  0.07850  0.01520  Biso   1.000  H
  H172     1.0000 0.03730  0.42150  0.51520  Biso   1.000  H
  H173     1.0000 0.92700  0.86410  0.91300  Biso   1.000  H
  H174     1.0000 0.92700  0.63590  0.41300  Biso   1.000  H
  H175     1.0000 0.07300  0.13590  0.08700  Biso   1.000  H
  H176     1.0000 0.07300  0.36410  0.58700  Biso   1.000  H
  C169     1.0000 0.26760  0.75770  0.09430  Biso   1.000  C
  C170     1.0000 0.26760  0.74230  0.59430  Biso   1.000  C
  C171     1.0000 0.73240  0.24230  0.90570  Biso   1.000  C
  C172     1.0000 0.73240  0.25770  0.40570  Biso   1.000  C
  H177     1.0000 0.30230  0.73560  0.13370  Biso   1.000  H
  H178     1.0000 0.30230  0.76440  0.63370  Biso   1.000  H
  H179     1.0000 0.69770  0.26440  0.86630  Biso   1.000  H
  H180     1.0000 0.69770  0.23560  0.36630  Biso   1.000  H
  C173     1.0000 0.24470  0.62500  0.03820  Biso   1.000  C
  C174     1.0000 0.24470  0.87500  0.53820  Biso   1.000  C
  C175     1.0000 0.75530  0.37500  0.96180  Biso   1.000  C
  C176     1.0000 0.75530  0.12500  0.46180  Biso   1.000  C
  H181     1.0000 0.28380  0.61230  0.07920  Biso   1.000  H
  H182     1.0000 0.28380  0.88770  0.57920  Biso   1.000  H
  H183     1.0000 0.71620  0.38770  0.92080  Biso   1.000  H
  H184     1.0000 0.71620  0.11230  0.42080  Biso   1.000  H
  H185     1.0000 0.24610  0.61390  0.98660  Biso   1.000  H
  H186     1.0000 0.24610  0.88610  0.48660  Biso   1.000  H
  H187     1.0000 0.75390  0.38610  0.01340  Biso   1.000  H
  H188     1.0000 0.75390  0.11390  0.51340  Biso   1.000  H
  H189     1.0000 0.21320  0.59240  0.04550  Biso   1.000  H
  H190     1.0000 0.21320  0.90760  0.54550  Biso   1.000  H
  H191     1.0000 0.78680  0.40760  0.95450  Biso   1.000  H
  H192     1.0000 0.78680  0.09240  0.45450  Biso   1.000  H
  C177     1.0000 0.17420  0.73630  0.98670  Biso   1.000  C
  C178     1.0000 0.17420  0.76370  0.48670  Biso   1.000  C
  C179     1.0000 0.82580  0.26370  0.01330  Biso   1.000  C
  C180     1.0000 0.82580  0.23630  0.51330  Biso   1.000  C
  H193     1.0000 0.17040  0.79310  0.99550  Biso   1.000  H
  H194     1.0000 0.17040  0.70690  0.49550  Biso   1.000  H
  H195     1.0000 0.82960  0.20690  0.00450  Biso   1.000  H
  H196     1.0000 0.82960  0.29310  0.50450  Biso   1.000  H
  H197     1.0000 0.14070  0.70750  0.99330  Biso   1.000  H
  H198     1.0000 0.14070  0.79250  0.49330  Biso   1.000  H
  H199     1.0000 0.85930  0.29250  0.00670  Biso   1.000  H
  H200     1.0000 0.85930  0.20750  0.50670  Biso   1.000  H
  H201     1.0000 0.17290  0.72810  0.93330  Biso   1.000  H
  H202     1.0000 0.17290  0.77190  0.43330  Biso   1.000  H
  H203     1.0000 0.82710  0.27190  0.06670  Biso   1.000  H
  H204     1.0000 0.82710  0.22810  0.56670  Biso   1.000  H
  C181     1.0000 0.02100  0.79270  0.14100  Biso   1.000  C
  C182     1.0000 0.02100  0.70730  0.64100  Biso   1.000  C
  C183     1.0000 0.97900  0.20730  0.85900  Biso   1.000  C
  C184     1.0000 0.97900  0.29270  0.35900  Biso   1.000  C
  H205     1.0000 0.04800  0.83540  0.14520  Biso   1.000  H
  H206     1.0000 0.04800  0.66460  0.64520  Biso   1.000  H
  H207     1.0000 0.95200  0.16460  0.85480  Biso   1.000  H
  H208     1.0000 0.95200  0.33540  0.35480  Biso   1.000  H
  C185     1.0000 0.05340  0.79680  0.28260  Biso   1.000  C
  C186     1.0000 0.05340  0.70320  0.78260  Biso   1.000  C
  C187     1.0000 0.94660  0.20320  0.71740  Biso   1.000  C
  C188     1.0000 0.94660  0.29680  0.21740  Biso   1.000  C
  H209     1.0000 0.07690  0.84190  0.27570  Biso   1.000  H
  H210     1.0000 0.07690  0.65810  0.77570  Biso   1.000  H
  H211     1.0000 0.92310  0.15810  0.72430  Biso   1.000  H
  H212     1.0000 0.92310  0.34190  0.22430  Biso   1.000  H
  H213     1.0000 0.08090  0.75600  0.31460  Biso   1.000  H
  H214     1.0000 0.08090  0.74400  0.81460  Biso   1.000  H
  H215     1.0000 0.91910  0.24400  0.68540  Biso   1.000  H
  H216     1.0000 0.91910  0.25600  0.18540  Biso   1.000  H
  H217     1.0000 0.02680  0.81470  0.30890  Biso   1.000  H
  H218     1.0000 0.02680  0.68530  0.80890  Biso   1.000  H
  H219     1.0000 0.97320  0.18530  0.69110  Biso   1.000  H
  H220     1.0000 0.97320  0.31470  0.19110  Biso   1.000  H
  C189     1.0000 0.98140  0.69790  0.20850  Biso   1.000  C
  C190     1.0000 0.98140  0.80210  0.70850  Biso   1.000  C
  C191     1.0000 0.01860  0.30210  0.79150  Biso   1.000  C
  C192     1.0000 0.01860  0.19790  0.29150  Biso   1.000  C
  H221     1.0000 0.95880  0.68020  0.15460  Biso   1.000  H
  H222     1.0000 0.95880  0.81980  0.65460  Biso   1.000  H
  H223     1.0000 0.04120  0.31980  0.84540  Biso   1.000  H
  H224     1.0000 0.04120  0.18020  0.34540  Biso   1.000  H
  H225     1.0000 0.95310  0.71310  0.23320  Biso   1.000  H
  H226     1.0000 0.95310  0.78690  0.73320  Biso   1.000  H
  H227     1.0000 0.04690  0.28690  0.76680  Biso   1.000  H
  H228     1.0000 0.04690  0.21310  0.26680  Biso   1.000  H
  H229     1.0000 0.00730  0.65460  0.23830  Biso   1.000  H
  H230     1.0000 0.00730  0.84540  0.73830  Biso   1.000  H
  H231     1.0000 0.99270  0.34540  0.76170  Biso   1.000  H
  H232     1.0000 0.99270  0.15460  0.26170  Biso   1.000  H
  C193     1.0000 0.49040  0.51310  0.34900  Biso   1.000  C
  C194     1.0000 0.49040  0.98690  0.84900  Biso   1.000  C
  C195     1.0000 0.50960  0.48690  0.65100  Biso   1.000  C
  C196     1.0000 0.50960  0.01310  0.15100  Biso   1.000  C
  H233     1.0000 0.48470  0.56420  0.36710  Biso   1.000  H
  H234     1.0000 0.48470  0.93580  0.86710  Biso   1.000  H
  H235     1.0000 0.51530  0.43580  0.63290  Biso   1.000  H
  H236     1.0000 0.51530  0.06420  0.13290  Biso   1.000  H
  C197     1.0000 0.42930  0.46230  0.41740  Biso   1.000  C
  C198     1.0000 0.42930  0.03770  0.91740  Biso   1.000  C
  C199     1.0000 0.57070  0.53770  0.58260  Biso   1.000  C
  C200     1.0000 0.57070  0.96230  0.08260  Biso   1.000  C
  H237     1.0000 0.43020  0.51820  0.43270  Biso   1.000  H
  H238     1.0000 0.43020  0.98180  0.93270  Biso   1.000  H
  H239     1.0000 0.56980  0.48180  0.56730  Biso   1.000  H
  H240     1.0000 0.56980  0.01820  0.06730  Biso   1.000  H
  H241     1.0000 0.44530  0.42920  0.46460  Biso   1.000  H
  H242     1.0000 0.44530  0.07080  0.96460  Biso   1.000  H
  H243     1.0000 0.55470  0.57080  0.53540  Biso   1.000  H
  H244     1.0000 0.55470  0.92920  0.03540  Biso   1.000  H
  H245     1.0000 0.38760  0.44660  0.38660  Biso   1.000  H
  H246     1.0000 0.38760  0.05340  0.88660  Biso   1.000  H
  H247     1.0000 0.61240  0.55340  0.61340  Biso   1.000  H
  H248     1.0000 0.61240  0.94660  0.11340  Biso   1.000  H
  C201     1.0000 0.46970  0.37290  0.34560  Biso   1.000  C
  C202     1.0000 0.46970  0.12710  0.84560  Biso   1.000  C
  C203     1.0000 0.53030  0.62710  0.65440  Biso   1.000  C
  C204     1.0000 0.53030  0.87290  0.15440  Biso   1.000  C
  H249     1.0000 0.49550  0.37250  0.31470  Biso   1.000  H
  H250     1.0000 0.49550  0.12750  0.81470  Biso   1.000  H
  H251     1.0000 0.50450  0.62750  0.68530  Biso   1.000  H
  H252     1.0000 0.50450  0.87250  0.18530  Biso   1.000  H
  H253     1.0000 0.42930  0.35380  0.31310  Biso   1.000  H
  H254     1.0000 0.42930  0.14620  0.81310  Biso   1.000  H
  H255     1.0000 0.57070  0.64620  0.68690  Biso   1.000  H
  H256     1.0000 0.57070  0.85380  0.18690  Biso   1.000  H
  H257     1.0000 0.48730  0.33810  0.39120  Biso   1.000  H
  H258     1.0000 0.48730  0.16190  0.89120  Biso   1.000  H
  H259     1.0000 0.51270  0.66190  0.60880  Biso   1.000  H
  H260     1.0000 0.51270  0.83810  0.10880  Biso   1.000  H
  C205     1.0000 0.23680  0.90410  0.32130  Biso   1.000  C
  C206     1.0000 0.23680  0.59590  0.82130  Biso   1.000  C
  C207     1.0000 0.76320  0.09590  0.67870  Biso   1.000  C
  C208     1.0000 0.76320  0.40410  0.17870  Biso   1.000  C
  H261     1.0000 0.27140  0.91720  0.36610  Biso   1.000  H
  H262     1.0000 0.27140  0.58280  0.86610  Biso   1.000  H
  H263     1.0000 0.72860  0.08280  0.63390  Biso   1.000  H
  H264     1.0000 0.72860  0.41720  0.13390  Biso   1.000  H
  C209     1.0000 0.28290  0.97550  0.24660  Biso   1.000  C
  C210     1.0000 0.28290  0.52450  0.74660  Biso   1.000  C
  C211     1.0000 0.71710  0.02450  0.75340  Biso   1.000  C
  C212     1.0000 0.71710  0.47550  0.25340  Biso   1.000  C
  H265     1.0000 0.31680  0.97740  0.29720  Biso   1.000  H
  H266     1.0000 0.31680  0.52260  0.79720  Biso   1.000  H
  H267     1.0000 0.68320  0.02260  0.70280  Biso   1.000  H
  H268     1.0000 0.68320  0.47740  0.20280  Biso   1.000  H
  H269     1.0000 0.26950  0.02970  0.22910  Biso   1.000  H
  H270     1.0000 0.26950  0.47030  0.72910  Biso   1.000  H
  H271     1.0000 0.73050  0.97030  0.77090  Biso   1.000  H
  H272     1.0000 0.73050  0.52970  0.27090  Biso   1.000  H
  H273     1.0000 0.29560  0.94920  0.20780  Biso   1.000  H
  H274     1.0000 0.29560  0.55080  0.70780  Biso   1.000  H
  H275     1.0000 0.70440  0.05080  0.79220  Biso   1.000  H
  H276     1.0000 0.70440  0.44920  0.29220  Biso   1.000  H
  C213     1.0000 0.18050  0.92300  0.18590  Biso   1.000  C
  C214     1.0000 0.18050  0.57700  0.68590  Biso   1.000  C
  C215     1.0000 0.81950  0.07700  0.81410  Biso   1.000  C
  C216     1.0000 0.81950  0.42300  0.31410  Biso   1.000  C
  H277     1.0000 0.15090  0.89210  0.19920  Biso   1.000  H
  H278     1.0000 0.15090  0.60790  0.69920  Biso   1.000  H
  H279     1.0000 0.84910  0.10790  0.80080  Biso   1.000  H
  H280     1.0000 0.84910  0.39210  0.30080  Biso   1.000  H
  H281     1.0000 0.19010  0.89510  0.14520  Biso   1.000  H
  H282     1.0000 0.19010  0.60490  0.64520  Biso   1.000  H
  H283     1.0000 0.80990  0.10490  0.85480  Biso   1.000  H
  H284     1.0000 0.80990  0.39510  0.35480  Biso   1.000  H
  H285     1.0000 0.16360  0.97540  0.16630  Biso   1.000  H
  H286     1.0000 0.16360  0.52460  0.66630  Biso   1.000  H
  H287     1.0000 0.83640  0.02460  0.83370  Biso   1.000  H
  H288     1.0000 0.83640  0.47540  0.33370  Biso   1.000  H
  C217     1.0000 0.45240  0.71640  0.25470  Biso   1.000  C
  C218     1.0000 0.45240  0.78360  0.75470  Biso   1.000  C
  C219     1.0000 0.54760  0.28360  0.74530  Biso   1.000  C
  C220     1.0000 0.54760  0.21640  0.24530  Biso   1.000  C
  H289     1.0000 0.48550  0.68110  0.26570  Biso   1.000  H
  H290     1.0000 0.48550  0.81890  0.76570  Biso   1.000  H
  H291     1.0000 0.51450  0.31890  0.73430  Biso   1.000  H
  H292     1.0000 0.51450  0.18110  0.23430  Biso   1.000  H
  C221     1.0000 0.52520  0.80700  0.33820  Biso   1.000  C
  C222     1.0000 0.52520  0.69300  0.83820  Biso   1.000  C
  C223     1.0000 0.47480  0.19300  0.66180  Biso   1.000  C
  C224     1.0000 0.47480  0.30700  0.16180  Biso   1.000  C
  H293     1.0000 0.55260  0.76260  0.34130  Biso   1.000  H
  H294     1.0000 0.55260  0.73740  0.84130  Biso   1.000  H
  H295     1.0000 0.44740  0.23740  0.65870  Biso   1.000  H
  H296     1.0000 0.44740  0.26260  0.15870  Biso   1.000  H
  H297     1.0000 0.52450  0.81730  0.39030  Biso   1.000  H
  H298     1.0000 0.52450  0.68270  0.89030  Biso   1.000  H
  H299     1.0000 0.47550  0.18270  0.60970  Biso   1.000  H
  H300     1.0000 0.47550  0.31730  0.10970  Biso   1.000  H
  H301     1.0000 0.53940  0.85460  0.31950  Biso   1.000  H
  H302     1.0000 0.53940  0.64540  0.81950  Biso   1.000  H
  H303     1.0000 0.46060  0.14540  0.68050  Biso   1.000  H
  H304     1.0000 0.46060  0.35460  0.18050  Biso   1.000  H
  C225     1.0000 0.41890  0.84410  0.27360  Biso   1.000  C
  C226     1.0000 0.41890  0.65590  0.77360  Biso   1.000  C
  C227     1.0000 0.58110  0.15590  0.72640  Biso   1.000  C
  C228     1.0000 0.58110  0.34410  0.22640  Biso   1.000  C
  H305     1.0000 0.38040  0.82350  0.23660  Biso   1.000  H
  H306     1.0000 0.38040  0.67650  0.73660  Biso   1.000  H
  H307     1.0000 0.61960  0.17650  0.76340  Biso   1.000  H
  H308     1.0000 0.61960  0.32350  0.26340  Biso   1.000  H
  H309     1.0000 0.42910  0.89330  0.25270  Biso   1.000  H
  H310     1.0000 0.42910  0.60670  0.75270  Biso   1.000  H
  H311     1.0000 0.57090  0.10670  0.74730  Biso   1.000  H
  H312     1.0000 0.57090  0.39330  0.24730  Biso   1.000  H
  H313     1.0000 0.41530  0.85510  0.32400  Biso   1.000  H
  H314     1.0000 0.41530  0.64490  0.82400  Biso   1.000  H
  H315     1.0000 0.58470  0.14490  0.67600  Biso   1.000  H
  H316     1.0000 0.58470  0.35510  0.17600  Biso   1.000  H
  C229     1.0000 0.17740  0.57560  0.30810  Biso   1.000  C
  C230     1.0000 0.17740  0.92440  0.80810  Biso   1.000  C
  C231     1.0000 0.82260  0.42440  0.69190  Biso   1.000  C
  C232     1.0000 0.82260  0.07560  0.19190  Biso   1.000  C
  H317     1.0000 0.20000  0.53220  0.33780  Biso   1.000  H
  H318     1.0000 0.20000  0.96780  0.83780  Biso   1.000  H
  H319     1.0000 0.80000  0.46780  0.66220  Biso   1.000  H
  H320     1.0000 0.80000  0.03220  0.16220  Biso   1.000  H
  C233     1.0000 0.23410  0.56030  0.22650  Biso   1.000  C
  C234     1.0000 0.23410  0.93970  0.72650  Biso   1.000  C
  C235     1.0000 0.76590  0.43970  0.77350  Biso   1.000  C
  C236     1.0000 0.76590  0.06030  0.27350  Biso   1.000  C
  H321     1.0000 0.25240  0.51750  0.26410  Biso   1.000  H
  H322     1.0000 0.25240  0.98250  0.76410  Biso   1.000  H
  H323     1.0000 0.74760  0.48250  0.73590  Biso   1.000  H
  H324     1.0000 0.74760  0.01750  0.23590  Biso   1.000  H
  H325     1.0000 0.26560  0.59740  0.22610  Biso   1.000  H
  H326     1.0000 0.26560  0.90260  0.72610  Biso   1.000  H
  H327     1.0000 0.73440  0.40260  0.77390  Biso   1.000  H
  H328     1.0000 0.73440  0.09740  0.27390  Biso   1.000  H
  H329     1.0000 0.21400  0.53770  0.17410  Biso   1.000  H
  H330     1.0000 0.21400  0.96230  0.67410  Biso   1.000  H
  H331     1.0000 0.78600  0.46230  0.82590  Biso   1.000  H
  H332     1.0000 0.78600  0.03770  0.32590  Biso   1.000  H
  C237     1.0000 0.15880  0.66780  0.20150  Biso   1.000  C
  C238     1.0000 0.15880  0.83220  0.70150  Biso   1.000  C
  C239     1.0000 0.84120  0.33220  0.79850  Biso   1.000  C
  C240     1.0000 0.84120  0.16780  0.29850  Biso   1.000  C
  H333     1.0000 0.13080  0.69030  0.22370  Biso   1.000  H
  H334     1.0000 0.13080  0.80970  0.72370  Biso   1.000  H
  H335     1.0000 0.86920  0.30970  0.77630  Biso   1.000  H
  H336     1.0000 0.86920  0.19030  0.27630  Biso   1.000  H
  H337     1.0000 0.13610  0.64950  0.14800  Biso   1.000  H
  H338     1.0000 0.13610  0.85050  0.64800  Biso   1.000  H
  H339     1.0000 0.86390  0.35050  0.85200  Biso   1.000  H
  H340     1.0000 0.86390  0.14950  0.35200  Biso   1.000  H
  H341     1.0000 0.18790  0.70860  0.20070  Biso   1.000  H
  H342     1.0000 0.18790  0.79140  0.70070  Biso   1.000  H
  H343     1.0000 0.81210  0.29140  0.79930  Biso   1.000  H
  H344     1.0000 0.81210  0.20860  0.29930  Biso   1.000  H
