data_image0
_cell_length_a       24.1481
_cell_length_b       24.1481
_cell_length_c       18.2475
_cell_angle_alpha    90
_cell_angle_beta     90
_cell_angle_gamma    90

_symmetry_space_group_name_H-M    "P 1"
_symmetry_int_tables_number       1

loop_
  _symmetry_equiv_pos_as_xyz
  'x, y, z'

loop_
  _atom_site_label
  _atom_site_occupancy
  _atom_site_fract_x
  _atom_site_fract_y
  _atom_site_fract_z
  _atom_site_thermal_displace_type
  _atom_site_B_iso_or_equiv
  _atom_site_type_symbol
  Cu1      1.0000 0.50000  0.50000  0.85833  Biso   1.000  Cu
  Cu2      1.0000 0.50000  0.50000  0.14167  Biso   1.000  Cu
  Cu3      1.0000 0.00000  0.00000  0.35833  Biso   1.000  Cu
  Cu4      1.0000 0.00000  0.00000  0.64167  Biso   1.000  Cu
  Cl1      1.0000 0.50000  0.50000  0.00000  Biso   1.000  Cl
  Cl2      1.0000 0.00000  0.00000  0.50000  Biso   1.000  Cl
  O1       1.0000 0.50000  0.50000  0.71430  Biso   1.000  O
  O2       1.0000 0.50000  0.50000  0.28570  Biso   1.000  O
  O3       1.0000 0.00000  0.00000  0.21430  Biso   1.000  O
  O4       1.0000 0.00000  0.00000  0.78570  Biso   1.000  O
  Cu5      1.0000 0.51080  0.22460  0.49621  Biso   1.000  Cu
  Cu6      1.0000 0.48920  0.77540  0.49621  Biso   1.000  Cu
  Cu7      1.0000 0.77540  0.51080  0.49621  Biso   1.000  Cu
  Cu8      1.0000 0.22460  0.48920  0.49621  Biso   1.000  Cu
  Cu9      1.0000 0.48920  0.22460  0.50379  Biso   1.000  Cu
  Cu10     1.0000 0.51080  0.77540  0.50379  Biso   1.000  Cu
  Cu11     1.0000 0.22460  0.51080  0.50379  Biso   1.000  Cu
  Cu12     1.0000 0.77540  0.48920  0.50379  Biso   1.000  Cu
  Cu13     1.0000 0.01080  0.72460  0.99621  Biso   1.000  Cu
  Cu14     1.0000 0.98920  0.27540  0.99621  Biso   1.000  Cu
  Cu15     1.0000 0.27540  0.01080  0.99621  Biso   1.000  Cu
  Cu16     1.0000 0.72460  0.98920  0.99621  Biso   1.000  Cu
  Cu17     1.0000 0.98920  0.72460  0.00379  Biso   1.000  Cu
  Cu18     1.0000 0.01080  0.27540  0.00379  Biso   1.000  Cu
  Cu19     1.0000 0.72460  0.01080  0.00379  Biso   1.000  Cu
  Cu20     1.0000 0.27540  0.98920  0.00379  Biso   1.000  Cu
  O5       1.0000 0.50000  0.33220  0.50000  Biso   1.000  O
  O6       1.0000 0.50000  0.66780  0.50000  Biso   1.000  O
  O7       1.0000 0.66780  0.50000  0.50000  Biso   1.000  O
  O8       1.0000 0.33220  0.50000  0.50000  Biso   1.000  O
  O9       1.0000 0.00000  0.83220  0.00000  Biso   1.000  O
  O10      1.0000 0.00000  0.16780  0.00000  Biso   1.000  O
  O11      1.0000 0.16780  0.00000  0.00000  Biso   1.000  O
  O12      1.0000 0.83220  0.00000  0.00000  Biso   1.000  O
  O13      1.0000 0.51090  0.12000  0.49100  Biso   1.000  O
  O14      1.0000 0.48910  0.88000  0.49100  Biso   1.000  O
  O15      1.0000 0.88000  0.51090  0.49100  Biso   1.000  O
  O16      1.0000 0.12000  0.48910  0.49100  Biso   1.000  O
  O17      1.0000 0.48910  0.12000  0.50900  Biso   1.000  O
  O18      1.0000 0.51090  0.88000  0.50900  Biso   1.000  O
  O19      1.0000 0.12000  0.51090  0.50900  Biso   1.000  O
  O20      1.0000 0.88000  0.48910  0.50900  Biso   1.000  O
  O21      1.0000 0.01090  0.62000  0.99100  Biso   1.000  O
  O22      1.0000 0.98910  0.38000  0.99100  Biso   1.000  O
  O23      1.0000 0.38000  0.01090  0.99100  Biso   1.000  O
  O24      1.0000 0.62000  0.98910  0.99100  Biso   1.000  O
  O25      1.0000 0.98910  0.62000  0.00900  Biso   1.000  O
  O26      1.0000 0.01090  0.38000  0.00900  Biso   1.000  O
  O27      1.0000 0.62000  0.01090  0.00900  Biso   1.000  O
  O28      1.0000 0.38000  0.98910  0.00900  Biso   1.000  O
  P1       1.0000 0.36700  0.35270  0.67830  Biso   1.000  P
  P2       1.0000 0.63300  0.64730  0.67830  Biso   1.000  P
  P3       1.0000 0.64730  0.36700  0.67830  Biso   1.000  P
  P4       1.0000 0.35270  0.63300  0.67830  Biso   1.000  P
  P5       1.0000 0.63300  0.35270  0.32170  Biso   1.000  P
  P6       1.0000 0.36700  0.64730  0.32170  Biso   1.000  P
  P7       1.0000 0.35270  0.36700  0.32170  Biso   1.000  P
  P8       1.0000 0.64730  0.63300  0.32170  Biso   1.000  P
  P9       1.0000 0.86700  0.85270  0.17830  Biso   1.000  P
  P10      1.0000 0.13300  0.14730  0.17830  Biso   1.000  P
  P11      1.0000 0.14730  0.86700  0.17830  Biso   1.000  P
  P12      1.0000 0.85270  0.13300  0.17830  Biso   1.000  P
  P13      1.0000 0.13300  0.85270  0.82170  Biso   1.000  P
  P14      1.0000 0.86700  0.14730  0.82170  Biso   1.000  P
  P15      1.0000 0.85270  0.86700  0.82170  Biso   1.000  P
  P16      1.0000 0.14730  0.13300  0.82170  Biso   1.000  P
  S1       1.0000 0.41240  0.40060  0.61860  Biso   1.000  S
  S2       1.0000 0.58760  0.59940  0.61860  Biso   1.000  S
  S3       1.0000 0.59940  0.41240  0.61860  Biso   1.000  S
  S4       1.0000 0.40060  0.58760  0.61860  Biso   1.000  S
  S5       1.0000 0.58760  0.40060  0.38140  Biso   1.000  S
  S6       1.0000 0.41240  0.59940  0.38140  Biso   1.000  S
  S7       1.0000 0.40060  0.41240  0.38140  Biso   1.000  S
  S8       1.0000 0.59940  0.58760  0.38140  Biso   1.000  S
  S9       1.0000 0.91240  0.90060  0.11860  Biso   1.000  S
  S10      1.0000 0.08760  0.09940  0.11860  Biso   1.000  S
  S11      1.0000 0.09940  0.91240  0.11860  Biso   1.000  S
  S12      1.0000 0.90060  0.08760  0.11860  Biso   1.000  S
  S13      1.0000 0.08760  0.90060  0.88140  Biso   1.000  S
  S14      1.0000 0.91240  0.09940  0.88140  Biso   1.000  S
  S15      1.0000 0.90060  0.91240  0.88140  Biso   1.000  S
  S16      1.0000 0.09940  0.08760  0.88140  Biso   1.000  S
  N1       1.0000 0.32980  0.38320  0.74190  Biso   1.000  N
  N2       1.0000 0.67020  0.61680  0.74190  Biso   1.000  N
  N3       1.0000 0.61680  0.32980  0.74190  Biso   1.000  N
  N4       1.0000 0.38320  0.67020  0.74190  Biso   1.000  N
  N5       1.0000 0.67020  0.38320  0.25810  Biso   1.000  N
  N6       1.0000 0.32980  0.61680  0.25810  Biso   1.000  N
  N7       1.0000 0.38320  0.32980  0.25810  Biso   1.000  N
  N8       1.0000 0.61680  0.67020  0.25810  Biso   1.000  N
  N9       1.0000 0.82980  0.88320  0.24190  Biso   1.000  N
  N10      1.0000 0.17020  0.11680  0.24190  Biso   1.000  N
  N11      1.0000 0.11680  0.82980  0.24190  Biso   1.000  N
  N12      1.0000 0.88320  0.17020  0.24190  Biso   1.000  N
  N13      1.0000 0.17020  0.88320  0.75810  Biso   1.000  N
  N14      1.0000 0.82980  0.11680  0.75810  Biso   1.000  N
  N15      1.0000 0.88320  0.82980  0.75810  Biso   1.000  N
  N16      1.0000 0.11680  0.17020  0.75810  Biso   1.000  N
  H1       1.0000 0.29490  0.37300  0.74400  Biso   1.000  H
  H2       1.0000 0.70510  0.62700  0.74400  Biso   1.000  H
  H3       1.0000 0.62700  0.29490  0.74400  Biso   1.000  H
  H4       1.0000 0.37300  0.70510  0.74400  Biso   1.000  H
  H5       1.0000 0.70510  0.37300  0.25600  Biso   1.000  H
  H6       1.0000 0.29490  0.62700  0.25600  Biso   1.000  H
  H7       1.0000 0.37300  0.29490  0.25600  Biso   1.000  H
  H8       1.0000 0.62700  0.70510  0.25600  Biso   1.000  H
  H9       1.0000 0.79490  0.87300  0.24400  Biso   1.000  H
  H10      1.0000 0.20510  0.12700  0.24400  Biso   1.000  H
  H11      1.0000 0.12700  0.79490  0.24400  Biso   1.000  H
  H12      1.0000 0.87300  0.20510  0.24400  Biso   1.000  H
  H13      1.0000 0.20510  0.87300  0.75600  Biso   1.000  H
  H14      1.0000 0.79490  0.12700  0.75600  Biso   1.000  H
  H15      1.0000 0.87300  0.79490  0.75600  Biso   1.000  H
  H16      1.0000 0.12700  0.20510  0.75600  Biso   1.000  H
  C1       1.0000 0.34640  0.42440  0.79500  Biso   1.000  C
  C2       1.0000 0.65360  0.57560  0.79500  Biso   1.000  C
  C3       1.0000 0.57560  0.34640  0.79500  Biso   1.000  C
  C4       1.0000 0.42440  0.65360  0.79500  Biso   1.000  C
  C5       1.0000 0.65360  0.42440  0.20500  Biso   1.000  C
  C6       1.0000 0.34640  0.57560  0.20500  Biso   1.000  C
  C7       1.0000 0.42440  0.34640  0.20500  Biso   1.000  C
  C8       1.0000 0.57560  0.65360  0.20500  Biso   1.000  C
  C9       1.0000 0.84640  0.92440  0.29500  Biso   1.000  C
  C10      1.0000 0.15360  0.07560  0.29500  Biso   1.000  C
  C11      1.0000 0.07560  0.84640  0.29500  Biso   1.000  C
  C12      1.0000 0.92440  0.15360  0.29500  Biso   1.000  C
  C13      1.0000 0.15360  0.92440  0.70500  Biso   1.000  C
  C14      1.0000 0.84640  0.07560  0.70500  Biso   1.000  C
  C15      1.0000 0.92440  0.84640  0.70500  Biso   1.000  C
  C16      1.0000 0.07560  0.15360  0.70500  Biso   1.000  C
  C17      1.0000 0.40280  0.43850  0.80180  Biso   1.000  C
  C18      1.0000 0.59720  0.56150  0.80180  Biso   1.000  C
  C19      1.0000 0.56150  0.40280  0.80180  Biso   1.000  C
  C20      1.0000 0.43850  0.59720  0.80180  Biso   1.000  C
  C21      1.0000 0.59720  0.43850  0.19820  Biso   1.000  C
  C22      1.0000 0.40280  0.56150  0.19820  Biso   1.000  C
  C23      1.0000 0.43850  0.40280  0.19820  Biso   1.000  C
  C24      1.0000 0.56150  0.59720  0.19820  Biso   1.000  C
  C25      1.0000 0.90280  0.93850  0.30180  Biso   1.000  C
  C26      1.0000 0.09720  0.06150  0.30180  Biso   1.000  C
  C27      1.0000 0.06150  0.90280  0.30180  Biso   1.000  C
  C28      1.0000 0.93850  0.09720  0.30180  Biso   1.000  C
  C29      1.0000 0.09720  0.93850  0.69820  Biso   1.000  C
  C30      1.0000 0.90280  0.06150  0.69820  Biso   1.000  C
  C31      1.0000 0.93850  0.90280  0.69820  Biso   1.000  C
  C32      1.0000 0.06150  0.09720  0.69820  Biso   1.000  C
  H17      1.0000 0.42950  0.42200  0.77040  Biso   1.000  H
  H18      1.0000 0.57050  0.57800  0.77040  Biso   1.000  H
  H19      1.0000 0.57800  0.42950  0.77040  Biso   1.000  H
  H20      1.0000 0.42200  0.57050  0.77040  Biso   1.000  H
  H21      1.0000 0.57050  0.42200  0.22960  Biso   1.000  H
  H22      1.0000 0.42950  0.57800  0.22960  Biso   1.000  H
  H23      1.0000 0.42200  0.42950  0.22960  Biso   1.000  H
  H24      1.0000 0.57800  0.57050  0.22960  Biso   1.000  H
  H25      1.0000 0.92950  0.92200  0.27040  Biso   1.000  H
  H26      1.0000 0.07050  0.07800  0.27040  Biso   1.000  H
  H27      1.0000 0.07800  0.92950  0.27040  Biso   1.000  H
  H28      1.0000 0.92200  0.07050  0.27040  Biso   1.000  H
  H29      1.0000 0.07050  0.92200  0.72960  Biso   1.000  H
  H30      1.0000 0.92950  0.07800  0.72960  Biso   1.000  H
  H31      1.0000 0.92200  0.92950  0.72960  Biso   1.000  H
  H32      1.0000 0.07800  0.07050  0.72960  Biso   1.000  H
  N17      1.0000 0.41860  0.47480  0.85200  Biso   1.000  N
  N18      1.0000 0.58140  0.52520  0.85200  Biso   1.000  N
  N19      1.0000 0.52520  0.41860  0.85200  Biso   1.000  N
  N20      1.0000 0.47480  0.58140  0.85200  Biso   1.000  N
  N21      1.0000 0.58140  0.47480  0.14800  Biso   1.000  N
  N22      1.0000 0.41860  0.52520  0.14800  Biso   1.000  N
  N23      1.0000 0.47480  0.41860  0.14800  Biso   1.000  N
  N24      1.0000 0.52520  0.58140  0.14800  Biso   1.000  N
  N25      1.0000 0.91860  0.97480  0.35200  Biso   1.000  N
  N26      1.0000 0.08140  0.02520  0.35200  Biso   1.000  N
  N27      1.0000 0.02520  0.91860  0.35200  Biso   1.000  N
  N28      1.0000 0.97480  0.08140  0.35200  Biso   1.000  N
  N29      1.0000 0.08140  0.97480  0.64800  Biso   1.000  N
  N30      1.0000 0.91860  0.02520  0.64800  Biso   1.000  N
  N31      1.0000 0.97480  0.91860  0.64800  Biso   1.000  N
  N32      1.0000 0.02520  0.08140  0.64800  Biso   1.000  N
  C33      1.0000 0.38070  0.49780  0.89730  Biso   1.000  C
  C34      1.0000 0.61930  0.50220  0.89730  Biso   1.000  C
  C35      1.0000 0.50220  0.38070  0.89730  Biso   1.000  C
  C36      1.0000 0.49780  0.61930  0.89730  Biso   1.000  C
  C37      1.0000 0.61930  0.49780  0.10270  Biso   1.000  C
  C38      1.0000 0.38070  0.50220  0.10270  Biso   1.000  C
  C39      1.0000 0.49780  0.38070  0.10270  Biso   1.000  C
  C40      1.0000 0.50220  0.61930  0.10270  Biso   1.000  C
  C41      1.0000 0.88070  0.99780  0.39730  Biso   1.000  C
  C42      1.0000 0.11930  0.00220  0.39730  Biso   1.000  C
  C43      1.0000 0.00220  0.88070  0.39730  Biso   1.000  C
  C44      1.0000 0.99780  0.11930  0.39730  Biso   1.000  C
  C45      1.0000 0.11930  0.99780  0.60270  Biso   1.000  C
  C46      1.0000 0.88070  0.00220  0.60270  Biso   1.000  C
  C47      1.0000 0.99780  0.88070  0.60270  Biso   1.000  C
  C48      1.0000 0.00220  0.11930  0.60270  Biso   1.000  C
  H33      1.0000 0.39180  0.52520  0.93160  Biso   1.000  H
  H34      1.0000 0.60820  0.47480  0.93160  Biso   1.000  H
  H35      1.0000 0.47480  0.39180  0.93160  Biso   1.000  H
  H36      1.0000 0.52520  0.60820  0.93160  Biso   1.000  H
  H37      1.0000 0.60820  0.52520  0.06840  Biso   1.000  H
  H38      1.0000 0.39180  0.47480  0.06840  Biso   1.000  H
  H39      1.0000 0.52520  0.39180  0.06840  Biso   1.000  H
  H40      1.0000 0.47480  0.60820  0.06840  Biso   1.000  H
  H41      1.0000 0.89180  0.02520  0.43160  Biso   1.000  H
  H42      1.0000 0.10820  0.97480  0.43160  Biso   1.000  H
  H43      1.0000 0.97480  0.89180  0.43160  Biso   1.000  H
  H44      1.0000 0.02520  0.10820  0.43160  Biso   1.000  H
  H45      1.0000 0.10820  0.02520  0.56840  Biso   1.000  H
  H46      1.0000 0.89180  0.97480  0.56840  Biso   1.000  H
  H47      1.0000 0.02520  0.89180  0.56840  Biso   1.000  H
  H48      1.0000 0.97480  0.10820  0.56840  Biso   1.000  H
  C49      1.0000 0.32510  0.48120  0.89380  Biso   1.000  C
  C50      1.0000 0.67490  0.51880  0.89380  Biso   1.000  C
  C51      1.0000 0.51880  0.32510  0.89380  Biso   1.000  C
  C52      1.0000 0.48120  0.67490  0.89380  Biso   1.000  C
  C53      1.0000 0.67490  0.48120  0.10620  Biso   1.000  C
  C54      1.0000 0.32510  0.51880  0.10620  Biso   1.000  C
  C55      1.0000 0.48120  0.32510  0.10620  Biso   1.000  C
  C56      1.0000 0.51880  0.67490  0.10620  Biso   1.000  C
  C57      1.0000 0.82510  0.98120  0.39380  Biso   1.000  C
  C58      1.0000 0.17490  0.01880  0.39380  Biso   1.000  C
  C59      1.0000 0.01880  0.82510  0.39380  Biso   1.000  C
  C60      1.0000 0.98120  0.17490  0.39380  Biso   1.000  C
  C61      1.0000 0.17490  0.98120  0.60620  Biso   1.000  C
  C62      1.0000 0.82510  0.01880  0.60620  Biso   1.000  C
  C63      1.0000 0.98120  0.82510  0.60620  Biso   1.000  C
  C64      1.0000 0.01880  0.17490  0.60620  Biso   1.000  C
  H49      1.0000 0.29920  0.49510  0.92840  Biso   1.000  H
  H50      1.0000 0.70080  0.50490  0.92840  Biso   1.000  H
  H51      1.0000 0.50490  0.29920  0.92840  Biso   1.000  H
  H52      1.0000 0.49510  0.70080  0.92840  Biso   1.000  H
  H53      1.0000 0.70080  0.49510  0.07160  Biso   1.000  H
  H54      1.0000 0.29920  0.50490  0.07160  Biso   1.000  H
  H55      1.0000 0.49510  0.29920  0.07160  Biso   1.000  H
  H56      1.0000 0.50490  0.70080  0.07160  Biso   1.000  H
  H57      1.0000 0.79920  0.99510  0.42840  Biso   1.000  H
  H58      1.0000 0.20080  0.00490  0.42840  Biso   1.000  H
  H59      1.0000 0.00490  0.79920  0.42840  Biso   1.000  H
  H60      1.0000 0.99510  0.20080  0.42840  Biso   1.000  H
  H61      1.0000 0.20080  0.99510  0.57160  Biso   1.000  H
  H62      1.0000 0.79920  0.00490  0.57160  Biso   1.000  H
  H63      1.0000 0.99510  0.79920  0.57160  Biso   1.000  H
  H64      1.0000 0.00490  0.20080  0.57160  Biso   1.000  H
  C65      1.0000 0.30880  0.44610  0.84240  Biso   1.000  C
  C66      1.0000 0.69120  0.55390  0.84240  Biso   1.000  C
  C67      1.0000 0.55390  0.30880  0.84240  Biso   1.000  C
  C68      1.0000 0.44610  0.69120  0.84240  Biso   1.000  C
  C69      1.0000 0.69120  0.44610  0.15760  Biso   1.000  C
  C70      1.0000 0.30880  0.55390  0.15760  Biso   1.000  C
  C71      1.0000 0.44610  0.30880  0.15760  Biso   1.000  C
  C72      1.0000 0.55390  0.69120  0.15760  Biso   1.000  C
  C73      1.0000 0.80880  0.94610  0.34240  Biso   1.000  C
  C74      1.0000 0.19120  0.05390  0.34240  Biso   1.000  C
  C75      1.0000 0.05390  0.80880  0.34240  Biso   1.000  C
  C76      1.0000 0.94610  0.19120  0.34240  Biso   1.000  C
  C77      1.0000 0.19120  0.94610  0.65760  Biso   1.000  C
  C78      1.0000 0.80880  0.05390  0.65760  Biso   1.000  C
  C79      1.0000 0.94610  0.80880  0.65760  Biso   1.000  C
  C80      1.0000 0.05390  0.19120  0.65760  Biso   1.000  C
  H65      1.0000 0.27090  0.43610  0.83870  Biso   1.000  H
  H66      1.0000 0.72910  0.56390  0.83870  Biso   1.000  H
  H67      1.0000 0.56390  0.27090  0.83870  Biso   1.000  H
  H68      1.0000 0.43610  0.72910  0.83870  Biso   1.000  H
  H69      1.0000 0.72910  0.43610  0.16130  Biso   1.000  H
  H70      1.0000 0.27090  0.56390  0.16130  Biso   1.000  H
  H71      1.0000 0.43610  0.27090  0.16130  Biso   1.000  H
  H72      1.0000 0.56390  0.72910  0.16130  Biso   1.000  H
  H73      1.0000 0.77090  0.93610  0.33870  Biso   1.000  H
  H74      1.0000 0.22910  0.06390  0.33870  Biso   1.000  H
  H75      1.0000 0.06390  0.77090  0.33870  Biso   1.000  H
  H76      1.0000 0.93610  0.22910  0.33870  Biso   1.000  H
  H77      1.0000 0.22910  0.93610  0.66130  Biso   1.000  H
  H78      1.0000 0.77090  0.06390  0.66130  Biso   1.000  H
  H79      1.0000 0.93610  0.77090  0.66130  Biso   1.000  H
  H80      1.0000 0.06390  0.22910  0.66130  Biso   1.000  H
  N33      1.0000 0.31910  0.31580  0.63340  Biso   1.000  N
  N34      1.0000 0.68090  0.68420  0.63340  Biso   1.000  N
  N35      1.0000 0.68420  0.31910  0.63340  Biso   1.000  N
  N36      1.0000 0.31580  0.68090  0.63340  Biso   1.000  N
  N37      1.0000 0.68090  0.31580  0.36660  Biso   1.000  N
  N38      1.0000 0.31910  0.68420  0.36660  Biso   1.000  N
  N39      1.0000 0.31580  0.31910  0.36660  Biso   1.000  N
  N40      1.0000 0.68420  0.68090  0.36660  Biso   1.000  N
  N41      1.0000 0.81910  0.81580  0.13340  Biso   1.000  N
  N42      1.0000 0.18090  0.18420  0.13340  Biso   1.000  N
  N43      1.0000 0.18420  0.81910  0.13340  Biso   1.000  N
  N44      1.0000 0.81580  0.18090  0.13340  Biso   1.000  N
  N45      1.0000 0.18090  0.81580  0.86660  Biso   1.000  N
  N46      1.0000 0.81910  0.18420  0.86660  Biso   1.000  N
  N47      1.0000 0.81580  0.81910  0.86660  Biso   1.000  N
  N48      1.0000 0.18420  0.18090  0.86660  Biso   1.000  N
  H81      1.0000 0.32010  0.27990  0.64130  Biso   1.000  H
  H82      1.0000 0.67990  0.72010  0.64130  Biso   1.000  H
  H83      1.0000 0.72010  0.32010  0.64130  Biso   1.000  H
  H84      1.0000 0.27990  0.67990  0.64130  Biso   1.000  H
  H85      1.0000 0.67990  0.27990  0.35870  Biso   1.000  H
  H86      1.0000 0.32010  0.72010  0.35870  Biso   1.000  H
  H87      1.0000 0.27990  0.32010  0.35870  Biso   1.000  H
  H88      1.0000 0.72010  0.67990  0.35870  Biso   1.000  H
  H89      1.0000 0.82010  0.77990  0.14130  Biso   1.000  H
  H90      1.0000 0.17990  0.22010  0.14130  Biso   1.000  H
  H91      1.0000 0.22010  0.82010  0.14130  Biso   1.000  H
  H92      1.0000 0.77990  0.17990  0.14130  Biso   1.000  H
  H93      1.0000 0.17990  0.77990  0.85870  Biso   1.000  H
  H94      1.0000 0.82010  0.22010  0.85870  Biso   1.000  H
  H95      1.0000 0.77990  0.82010  0.85870  Biso   1.000  H
  H96      1.0000 0.22010  0.17990  0.85870  Biso   1.000  H
  C81      1.0000 0.27930  0.33290  0.58700  Biso   1.000  C
  C82      1.0000 0.72070  0.66710  0.58700  Biso   1.000  C
  C83      1.0000 0.66710  0.27930  0.58700  Biso   1.000  C
  C84      1.0000 0.33290  0.72070  0.58700  Biso   1.000  C
  C85      1.0000 0.72070  0.33290  0.41300  Biso   1.000  C
  C86      1.0000 0.27930  0.66710  0.41300  Biso   1.000  C
  C87      1.0000 0.33290  0.27930  0.41300  Biso   1.000  C
  C88      1.0000 0.66710  0.72070  0.41300  Biso   1.000  C
  C89      1.0000 0.77930  0.83290  0.08700  Biso   1.000  C
  C90      1.0000 0.22070  0.16710  0.08700  Biso   1.000  C
  C91      1.0000 0.16710  0.77930  0.08700  Biso   1.000  C
  C92      1.0000 0.83290  0.22070  0.08700  Biso   1.000  C
  C93      1.0000 0.22070  0.83290  0.91300  Biso   1.000  C
  C94      1.0000 0.77930  0.16710  0.91300  Biso   1.000  C
  C95      1.0000 0.83290  0.77930  0.91300  Biso   1.000  C
  C96      1.0000 0.16710  0.22070  0.91300  Biso   1.000  C
  C97      1.0000 0.27160  0.38950  0.56750  Biso   1.000  C
  C98      1.0000 0.72840  0.61050  0.56750  Biso   1.000  C
  C99      1.0000 0.61050  0.27160  0.56750  Biso   1.000  C
  C100     1.0000 0.38950  0.72840  0.56750  Biso   1.000  C
  C101     1.0000 0.72840  0.38950  0.43250  Biso   1.000  C
  C102     1.0000 0.27160  0.61050  0.43250  Biso   1.000  C
  C103     1.0000 0.38950  0.27160  0.43250  Biso   1.000  C
  C104     1.0000 0.61050  0.72840  0.43250  Biso   1.000  C
  C105     1.0000 0.77160  0.88950  0.06750  Biso   1.000  C
  C106     1.0000 0.22840  0.11050  0.06750  Biso   1.000  C
  C107     1.0000 0.11050  0.77160  0.06750  Biso   1.000  C
  C108     1.0000 0.88950  0.22840  0.06750  Biso   1.000  C
  C109     1.0000 0.22840  0.88950  0.93250  Biso   1.000  C
  C110     1.0000 0.77160  0.11050  0.93250  Biso   1.000  C
  C111     1.0000 0.88950  0.77160  0.93250  Biso   1.000  C
  C112     1.0000 0.11050  0.22840  0.93250  Biso   1.000  C
  H97      1.0000 0.29560  0.41650  0.58820  Biso   1.000  H
  H98      1.0000 0.70440  0.58350  0.58820  Biso   1.000  H
  H99      1.0000 0.58350  0.29560  0.58820  Biso   1.000  H
  H100     1.0000 0.41650  0.70440  0.58820  Biso   1.000  H
  H101     1.0000 0.70440  0.41650  0.41180  Biso   1.000  H
  H102     1.0000 0.29560  0.58350  0.41180  Biso   1.000  H
  H103     1.0000 0.41650  0.29560  0.41180  Biso   1.000  H
  H104     1.0000 0.58350  0.70440  0.41180  Biso   1.000  H
  H105     1.0000 0.79560  0.91650  0.08820  Biso   1.000  H
  H106     1.0000 0.20440  0.08350  0.08820  Biso   1.000  H
  H107     1.0000 0.08350  0.79560  0.08820  Biso   1.000  H
  H108     1.0000 0.91650  0.20440  0.08820  Biso   1.000  H
  H109     1.0000 0.20440  0.91650  0.91180  Biso   1.000  H
  H110     1.0000 0.79560  0.08350  0.91180  Biso   1.000  H
  H111     1.0000 0.91650  0.79560  0.91180  Biso   1.000  H
  H112     1.0000 0.08350  0.20440  0.91180  Biso   1.000  H
  N49      1.0000 0.23230  0.40600  0.52150  Biso   1.000  N
  N50      1.0000 0.76770  0.59400  0.52150  Biso   1.000  N
  N51      1.0000 0.59400  0.23230  0.52150  Biso   1.000  N
  N52      1.0000 0.40600  0.76770  0.52150  Biso   1.000  N
  N53      1.0000 0.76770  0.40600  0.47850  Biso   1.000  N
  N54      1.0000 0.23230  0.59400  0.47850  Biso   1.000  N
  N55      1.0000 0.40600  0.23230  0.47850  Biso   1.000  N
  N56      1.0000 0.59400  0.76770  0.47850  Biso   1.000  N
  N57      1.0000 0.73230  0.90600  0.02150  Biso   1.000  N
  N58      1.0000 0.26770  0.09400  0.02150  Biso   1.000  N
  N59      1.0000 0.09400  0.73230  0.02150  Biso   1.000  N
  N60      1.0000 0.90600  0.26770  0.02150  Biso   1.000  N
  N61      1.0000 0.26770  0.90600  0.97850  Biso   1.000  N
  N62      1.0000 0.73230  0.09400  0.97850  Biso   1.000  N
  N63      1.0000 0.90600  0.73230  0.97850  Biso   1.000  N
  N64      1.0000 0.09400  0.26770  0.97850  Biso   1.000  N
  C113     1.0000 0.19600  0.36960  0.49360  Biso   1.000  C
  C114     1.0000 0.80400  0.63040  0.49360  Biso   1.000  C
  C115     1.0000 0.63040  0.19600  0.49360  Biso   1.000  C
  C116     1.0000 0.36960  0.80400  0.49360  Biso   1.000  C
  C117     1.0000 0.80400  0.36960  0.50640  Biso   1.000  C
  C118     1.0000 0.19600  0.63040  0.50640  Biso   1.000  C
  C119     1.0000 0.36960  0.19600  0.50640  Biso   1.000  C
  C120     1.0000 0.63040  0.80400  0.50640  Biso   1.000  C
  C121     1.0000 0.69600  0.86960  0.99360  Biso   1.000  C
  C122     1.0000 0.30400  0.13040  0.99360  Biso   1.000  C
  C123     1.0000 0.13040  0.69600  0.99360  Biso   1.000  C
  C124     1.0000 0.86960  0.30400  0.99360  Biso   1.000  C
  C125     1.0000 0.30400  0.86960  0.00640  Biso   1.000  C
  C126     1.0000 0.69600  0.13040  0.00640  Biso   1.000  C
  C127     1.0000 0.86960  0.69600  0.00640  Biso   1.000  C
  C128     1.0000 0.13040  0.30400  0.00640  Biso   1.000  C
  H113     1.0000 0.16580  0.38190  0.46440  Biso   1.000  H
  H114     1.0000 0.83420  0.61810  0.46440  Biso   1.000  H
  H115     1.0000 0.61810  0.16580  0.46440  Biso   1.000  H
  H116     1.0000 0.38190  0.83420  0.46440  Biso   1.000  H
  H117     1.0000 0.83420  0.38190  0.53560  Biso   1.000  H
  H118     1.0000 0.16580  0.61810  0.53560  Biso   1.000  H
  H119     1.0000 0.38190  0.16580  0.53560  Biso   1.000  H
  H120     1.0000 0.61810  0.83420  0.53560  Biso   1.000  H
  H121     1.0000 0.66580  0.88190  0.96440  Biso   1.000  H
  H122     1.0000 0.33420  0.11810  0.96440  Biso   1.000  H
  H123     1.0000 0.11810  0.66580  0.96440  Biso   1.000  H
  H124     1.0000 0.88190  0.33420  0.96440  Biso   1.000  H
  H125     1.0000 0.33420  0.88190  0.03560  Biso   1.000  H
  H126     1.0000 0.66580  0.11810  0.03560  Biso   1.000  H
  H127     1.0000 0.88190  0.66580  0.03560  Biso   1.000  H
  H128     1.0000 0.11810  0.33420  0.03560  Biso   1.000  H
  C129     1.0000 0.20370  0.31270  0.50830  Biso   1.000  C
  C130     1.0000 0.79630  0.68730  0.50830  Biso   1.000  C
  C131     1.0000 0.68730  0.20370  0.50830  Biso   1.000  C
  C132     1.0000 0.31270  0.79630  0.50830  Biso   1.000  C
  C133     1.0000 0.79630  0.31270  0.49170  Biso   1.000  C
  C134     1.0000 0.20370  0.68730  0.49170  Biso   1.000  C
  C135     1.0000 0.31270  0.20370  0.49170  Biso   1.000  C
  C136     1.0000 0.68730  0.79630  0.49170  Biso   1.000  C
  C137     1.0000 0.70370  0.81270  0.00830  Biso   1.000  C
  C138     1.0000 0.29630  0.18730  0.00830  Biso   1.000  C
  C139     1.0000 0.18730  0.70370  0.00830  Biso   1.000  C
  C140     1.0000 0.81270  0.29630  0.00830  Biso   1.000  C
  C141     1.0000 0.29630  0.81270  0.99170  Biso   1.000  C
  C142     1.0000 0.70370  0.18730  0.99170  Biso   1.000  C
  C143     1.0000 0.81270  0.70370  0.99170  Biso   1.000  C
  C144     1.0000 0.18730  0.29630  0.99170  Biso   1.000  C
  H129     1.0000 0.18180  0.28580  0.48360  Biso   1.000  H
  H130     1.0000 0.81820  0.71420  0.48360  Biso   1.000  H
  H131     1.0000 0.71420  0.18180  0.48360  Biso   1.000  H
  H132     1.0000 0.28580  0.81820  0.48360  Biso   1.000  H
  H133     1.0000 0.81820  0.28580  0.51640  Biso   1.000  H
  H134     1.0000 0.18180  0.71420  0.51640  Biso   1.000  H
  H135     1.0000 0.28580  0.18180  0.51640  Biso   1.000  H
  H136     1.0000 0.71420  0.81820  0.51640  Biso   1.000  H
  H137     1.0000 0.68180  0.78580  0.98360  Biso   1.000  H
  H138     1.0000 0.31820  0.21420  0.98360  Biso   1.000  H
  H139     1.0000 0.21420  0.68180  0.98360  Biso   1.000  H
  H140     1.0000 0.78580  0.31820  0.98360  Biso   1.000  H
  H141     1.0000 0.31820  0.78580  0.01640  Biso   1.000  H
  H142     1.0000 0.68180  0.21420  0.01640  Biso   1.000  H
  H143     1.0000 0.78580  0.68180  0.01640  Biso   1.000  H
  H144     1.0000 0.21420  0.31820  0.01640  Biso   1.000  H
  C145     1.0000 0.24110  0.29700  0.55630  Biso   1.000  C
  C146     1.0000 0.75890  0.70300  0.55630  Biso   1.000  C
  C147     1.0000 0.70300  0.24110  0.55630  Biso   1.000  C
  C148     1.0000 0.29700  0.75890  0.55630  Biso   1.000  C
  C149     1.0000 0.75890  0.29700  0.44370  Biso   1.000  C
  C150     1.0000 0.24110  0.70300  0.44370  Biso   1.000  C
  C151     1.0000 0.29700  0.24110  0.44370  Biso   1.000  C
  C152     1.0000 0.70300  0.75890  0.44370  Biso   1.000  C
  C153     1.0000 0.74110  0.79700  0.05630  Biso   1.000  C
  C154     1.0000 0.25890  0.20300  0.05630  Biso   1.000  C
  C155     1.0000 0.20300  0.74110  0.05630  Biso   1.000  C
  C156     1.0000 0.79700  0.25890  0.05630  Biso   1.000  C
  C157     1.0000 0.25890  0.79700  0.94370  Biso   1.000  C
  C158     1.0000 0.74110  0.20300  0.94370  Biso   1.000  C
  C159     1.0000 0.79700  0.74110  0.94370  Biso   1.000  C
  C160     1.0000 0.20300  0.25890  0.94370  Biso   1.000  C
  H145     1.0000 0.24200  0.25920  0.57050  Biso   1.000  H
  H146     1.0000 0.75800  0.74080  0.57050  Biso   1.000  H
  H147     1.0000 0.74080  0.24200  0.57050  Biso   1.000  H
  H148     1.0000 0.25920  0.75800  0.57050  Biso   1.000  H
  H149     1.0000 0.75800  0.25920  0.42950  Biso   1.000  H
  H150     1.0000 0.24200  0.74080  0.42950  Biso   1.000  H
  H151     1.0000 0.25920  0.24200  0.42950  Biso   1.000  H
  H152     1.0000 0.74080  0.75800  0.42950  Biso   1.000  H
  H153     1.0000 0.74200  0.75920  0.07050  Biso   1.000  H
  H154     1.0000 0.25800  0.24080  0.07050  Biso   1.000  H
  H155     1.0000 0.24080  0.74200  0.07050  Biso   1.000  H
  H156     1.0000 0.75920  0.25800  0.07050  Biso   1.000  H
  H157     1.0000 0.25800  0.75920  0.92950  Biso   1.000  H
  H158     1.0000 0.74200  0.24080  0.92950  Biso   1.000  H
  H159     1.0000 0.75920  0.74200  0.92950  Biso   1.000  H
  H160     1.0000 0.24080  0.25800  0.92950  Biso   1.000  H
  N65      1.0000 0.40030  0.30410  0.72540  Biso   1.000  N
  N66      1.0000 0.59970  0.69590  0.72540  Biso   1.000  N
  N67      1.0000 0.69590  0.40030  0.72540  Biso   1.000  N
  N68      1.0000 0.30410  0.59970  0.72540  Biso   1.000  N
  N69      1.0000 0.59970  0.30410  0.27460  Biso   1.000  N
  N70      1.0000 0.40030  0.69590  0.27460  Biso   1.000  N
  N71      1.0000 0.30410  0.40030  0.27460  Biso   1.000  N
  N72      1.0000 0.69590  0.59970  0.27460  Biso   1.000  N
  N73      1.0000 0.90030  0.80410  0.22540  Biso   1.000  N
  N74      1.0000 0.09970  0.19590  0.22540  Biso   1.000  N
  N75      1.0000 0.19590  0.90030  0.22540  Biso   1.000  N
  N76      1.0000 0.80410  0.09970  0.22540  Biso   1.000  N
  N77      1.0000 0.09970  0.80410  0.77460  Biso   1.000  N
  N78      1.0000 0.90030  0.19590  0.77460  Biso   1.000  N
  N79      1.0000 0.80410  0.90030  0.77460  Biso   1.000  N
  N80      1.0000 0.19590  0.09970  0.77460  Biso   1.000  N
  H161     1.0000 0.39210  0.30190  0.77230  Biso   1.000  H
  H162     1.0000 0.60790  0.69810  0.77230  Biso   1.000  H
  H163     1.0000 0.69810  0.39210  0.77230  Biso   1.000  H
  H164     1.0000 0.30190  0.60790  0.77230  Biso   1.000  H
  H165     1.0000 0.60790  0.30190  0.22770  Biso   1.000  H
  H166     1.0000 0.39210  0.69810  0.22770  Biso   1.000  H
  H167     1.0000 0.30190  0.39210  0.22770  Biso   1.000  H
  H168     1.0000 0.69810  0.60790  0.22770  Biso   1.000  H
  H169     1.0000 0.89210  0.80190  0.27230  Biso   1.000  H
  H170     1.0000 0.10790  0.19810  0.27230  Biso   1.000  H
  H171     1.0000 0.19810  0.89210  0.27230  Biso   1.000  H
  H172     1.0000 0.80190  0.10790  0.27230  Biso   1.000  H
  H173     1.0000 0.10790  0.80190  0.72770  Biso   1.000  H
  H174     1.0000 0.89210  0.19810  0.72770  Biso   1.000  H
  H175     1.0000 0.80190  0.89210  0.72770  Biso   1.000  H
  H176     1.0000 0.19810  0.10790  0.72770  Biso   1.000  H
  C161     1.0000 0.43940  0.26650  0.70050  Biso   1.000  C
  C162     1.0000 0.56060  0.73350  0.70050  Biso   1.000  C
  C163     1.0000 0.73350  0.43940  0.70050  Biso   1.000  C
  C164     1.0000 0.26650  0.56060  0.70050  Biso   1.000  C
  C165     1.0000 0.56060  0.26650  0.29950  Biso   1.000  C
  C166     1.0000 0.43940  0.73350  0.29950  Biso   1.000  C
  C167     1.0000 0.26650  0.43940  0.29950  Biso   1.000  C
  C168     1.0000 0.73350  0.56060  0.29950  Biso   1.000  C
  C169     1.0000 0.93940  0.76650  0.20050  Biso   1.000  C
  C170     1.0000 0.06060  0.23350  0.20050  Biso   1.000  C
  C171     1.0000 0.23350  0.93940  0.20050  Biso   1.000  C
  C172     1.0000 0.76650  0.06060  0.20050  Biso   1.000  C
  C173     1.0000 0.06060  0.76650  0.79950  Biso   1.000  C
  C174     1.0000 0.93940  0.23350  0.79950  Biso   1.000  C
  C175     1.0000 0.76650  0.93940  0.79950  Biso   1.000  C
  C176     1.0000 0.23350  0.06060  0.79950  Biso   1.000  C
  C177     1.0000 0.45410  0.26320  0.62720  Biso   1.000  C
  C178     1.0000 0.54590  0.73680  0.62720  Biso   1.000  C
  C179     1.0000 0.73680  0.45410  0.62720  Biso   1.000  C
  C180     1.0000 0.26320  0.54590  0.62720  Biso   1.000  C
  C181     1.0000 0.54590  0.26320  0.37280  Biso   1.000  C
  C182     1.0000 0.45410  0.73680  0.37280  Biso   1.000  C
  C183     1.0000 0.26320  0.45410  0.37280  Biso   1.000  C
  C184     1.0000 0.73680  0.54590  0.37280  Biso   1.000  C
  C185     1.0000 0.95410  0.76320  0.12720  Biso   1.000  C
  C186     1.0000 0.04590  0.23680  0.12720  Biso   1.000  C
  C187     1.0000 0.23680  0.95410  0.12720  Biso   1.000  C
  C188     1.0000 0.76320  0.04590  0.12720  Biso   1.000  C
  C189     1.0000 0.04590  0.76320  0.87280  Biso   1.000  C
  C190     1.0000 0.95410  0.23680  0.87280  Biso   1.000  C
  C191     1.0000 0.76320  0.95410  0.87280  Biso   1.000  C
  C192     1.0000 0.23680  0.04590  0.87280  Biso   1.000  C
  H177     1.0000 0.43730  0.28790  0.59320  Biso   1.000  H
  H178     1.0000 0.56270  0.71210  0.59320  Biso   1.000  H
  H179     1.0000 0.71210  0.43730  0.59320  Biso   1.000  H
  H180     1.0000 0.28790  0.56270  0.59320  Biso   1.000  H
  H181     1.0000 0.56270  0.28790  0.40680  Biso   1.000  H
  H182     1.0000 0.43730  0.71210  0.40680  Biso   1.000  H
  H183     1.0000 0.28790  0.43730  0.40680  Biso   1.000  H
  H184     1.0000 0.71210  0.56270  0.40680  Biso   1.000  H
  H185     1.0000 0.93730  0.78790  0.09320  Biso   1.000  H
  H186     1.0000 0.06270  0.21210  0.09320  Biso   1.000  H
  H187     1.0000 0.21210  0.93730  0.09320  Biso   1.000  H
  H188     1.0000 0.78790  0.06270  0.09320  Biso   1.000  H
  H189     1.0000 0.06270  0.78790  0.90680  Biso   1.000  H
  H190     1.0000 0.93730  0.21210  0.90680  Biso   1.000  H
  H191     1.0000 0.78790  0.93730  0.90680  Biso   1.000  H
  H192     1.0000 0.21210  0.06270  0.90680  Biso   1.000  H
  N81      1.0000 0.49140  0.22620  0.60250  Biso   1.000  N
  N82      1.0000 0.50860  0.77380  0.60250  Biso   1.000  N
  N83      1.0000 0.77380  0.49140  0.60250  Biso   1.000  N
  N84      1.0000 0.22620  0.50860  0.60250  Biso   1.000  N
  N85      1.0000 0.50860  0.22620  0.39750  Biso   1.000  N
  N86      1.0000 0.49140  0.77380  0.39750  Biso   1.000  N
  N87      1.0000 0.22620  0.49140  0.39750  Biso   1.000  N
  N88      1.0000 0.77380  0.50860  0.39750  Biso   1.000  N
  N89      1.0000 0.99140  0.72620  0.10250  Biso   1.000  N
  N90      1.0000 0.00860  0.27380  0.10250  Biso   1.000  N
  N91      1.0000 0.27380  0.99140  0.10250  Biso   1.000  N
  N92      1.0000 0.72620  0.00860  0.10250  Biso   1.000  N
  N93      1.0000 0.00860  0.72620  0.89750  Biso   1.000  N
  N94      1.0000 0.99140  0.27380  0.89750  Biso   1.000  N
  N95      1.0000 0.72620  0.99140  0.89750  Biso   1.000  N
  N96      1.0000 0.27380  0.00860  0.89750  Biso   1.000  N
  C193     1.0000 0.51960  0.19240  0.64920  Biso   1.000  C
  C194     1.0000 0.48040  0.80760  0.64920  Biso   1.000  C
  C195     1.0000 0.80760  0.51960  0.64920  Biso   1.000  C
  C196     1.0000 0.19240  0.48040  0.64920  Biso   1.000  C
  C197     1.0000 0.48040  0.19240  0.35080  Biso   1.000  C
  C198     1.0000 0.51960  0.80760  0.35080  Biso   1.000  C
  C199     1.0000 0.19240  0.51960  0.35080  Biso   1.000  C
  C200     1.0000 0.80760  0.48040  0.35080  Biso   1.000  C
  C201     1.0000 0.01960  0.69240  0.14920  Biso   1.000  C
  C202     1.0000 0.98040  0.30760  0.14920  Biso   1.000  C
  C203     1.0000 0.30760  0.01960  0.14920  Biso   1.000  C
  C204     1.0000 0.69240  0.98040  0.14920  Biso   1.000  C
  C205     1.0000 0.98040  0.69240  0.85080  Biso   1.000  C
  C206     1.0000 0.01960  0.30760  0.85080  Biso   1.000  C
  C207     1.0000 0.69240  0.01960  0.85080  Biso   1.000  C
  C208     1.0000 0.30760  0.98040  0.85080  Biso   1.000  C
  H193     1.0000 0.54830  0.16920  0.63130  Biso   1.000  H
  H194     1.0000 0.45170  0.83080  0.63130  Biso   1.000  H
  H195     1.0000 0.83080  0.54830  0.63130  Biso   1.000  H
  H196     1.0000 0.16920  0.45170  0.63130  Biso   1.000  H
  H197     1.0000 0.45170  0.16920  0.36870  Biso   1.000  H
  H198     1.0000 0.54830  0.83080  0.36870  Biso   1.000  H
  H199     1.0000 0.16920  0.54830  0.36870  Biso   1.000  H
  H200     1.0000 0.83080  0.45170  0.36870  Biso   1.000  H
  H201     1.0000 0.04830  0.66920  0.13130  Biso   1.000  H
  H202     1.0000 0.95170  0.33080  0.13130  Biso   1.000  H
  H203     1.0000 0.33080  0.04830  0.13130  Biso   1.000  H
  H204     1.0000 0.66920  0.95170  0.13130  Biso   1.000  H
  H205     1.0000 0.95170  0.66920  0.86870  Biso   1.000  H
  H206     1.0000 0.04830  0.33080  0.86870  Biso   1.000  H
  H207     1.0000 0.66920  0.04830  0.86870  Biso   1.000  H
  H208     1.0000 0.33080  0.95170  0.86870  Biso   1.000  H
  C209     1.0000 0.50620  0.19200  0.72190  Biso   1.000  C
  C210     1.0000 0.49380  0.80800  0.72190  Biso   1.000  C
  C211     1.0000 0.80800  0.50620  0.72190  Biso   1.000  C
  C212     1.0000 0.19200  0.49380  0.72190  Biso   1.000  C
  C213     1.0000 0.49380  0.19200  0.27810  Biso   1.000  C
  C214     1.0000 0.50620  0.80800  0.27810  Biso   1.000  C
  C215     1.0000 0.19200  0.50620  0.27810  Biso   1.000  C
  C216     1.0000 0.80800  0.49380  0.27810  Biso   1.000  C
  C217     1.0000 0.00620  0.69200  0.22190  Biso   1.000  C
  C218     1.0000 0.99380  0.30800  0.22190  Biso   1.000  C
  C219     1.0000 0.30800  0.00620  0.22190  Biso   1.000  C
  C220     1.0000 0.69200  0.99380  0.22190  Biso   1.000  C
  C221     1.0000 0.99380  0.69200  0.77810  Biso   1.000  C
  C222     1.0000 0.00620  0.30800  0.77810  Biso   1.000  C
  C223     1.0000 0.69200  0.00620  0.77810  Biso   1.000  C
  C224     1.0000 0.30800  0.99380  0.77810  Biso   1.000  C
  H209     1.0000 0.52300  0.16610  0.75420  Biso   1.000  H
  H210     1.0000 0.47700  0.83390  0.75420  Biso   1.000  H
  H211     1.0000 0.83390  0.52300  0.75420  Biso   1.000  H
  H212     1.0000 0.16610  0.47700  0.75420  Biso   1.000  H
  H213     1.0000 0.47700  0.16610  0.24580  Biso   1.000  H
  H214     1.0000 0.52300  0.83390  0.24580  Biso   1.000  H
  H215     1.0000 0.16610  0.52300  0.24580  Biso   1.000  H
  H216     1.0000 0.83390  0.47700  0.24580  Biso   1.000  H
  H217     1.0000 0.02300  0.66610  0.25420  Biso   1.000  H
  H218     1.0000 0.97700  0.33390  0.25420  Biso   1.000  H
  H219     1.0000 0.33390  0.02300  0.25420  Biso   1.000  H
  H220     1.0000 0.66610  0.97700  0.25420  Biso   1.000  H
  H221     1.0000 0.97700  0.66610  0.74580  Biso   1.000  H
  H222     1.0000 0.02300  0.33390  0.74580  Biso   1.000  H
  H223     1.0000 0.66610  0.02300  0.74580  Biso   1.000  H
  H224     1.0000 0.33390  0.97700  0.74580  Biso   1.000  H
  C225     1.0000 0.46720  0.23040  0.74860  Biso   1.000  C
  C226     1.0000 0.53280  0.76960  0.74860  Biso   1.000  C
  C227     1.0000 0.76960  0.46720  0.74860  Biso   1.000  C
  C228     1.0000 0.23040  0.53280  0.74860  Biso   1.000  C
  C229     1.0000 0.53280  0.23040  0.25140  Biso   1.000  C
  C230     1.0000 0.46720  0.76960  0.25140  Biso   1.000  C
  C231     1.0000 0.23040  0.46720  0.25140  Biso   1.000  C
  C232     1.0000 0.76960  0.53280  0.25140  Biso   1.000  C
  C233     1.0000 0.96720  0.73040  0.24860  Biso   1.000  C
  C234     1.0000 0.03280  0.26960  0.24860  Biso   1.000  C
  C235     1.0000 0.26960  0.96720  0.24860  Biso   1.000  C
  C236     1.0000 0.73040  0.03280  0.24860  Biso   1.000  C
  C237     1.0000 0.03280  0.73040  0.75140  Biso   1.000  C
  C238     1.0000 0.96720  0.26960  0.75140  Biso   1.000  C
  C239     1.0000 0.73040  0.96720  0.75140  Biso   1.000  C
  C240     1.0000 0.26960  0.03280  0.75140  Biso   1.000  C
  H225     1.0000 0.45950  0.23190  0.79970  Biso   1.000  H
  H226     1.0000 0.54050  0.76810  0.79970  Biso   1.000  H
  H227     1.0000 0.76810  0.45950  0.79970  Biso   1.000  H
  H228     1.0000 0.23190  0.54050  0.79970  Biso   1.000  H
  H229     1.0000 0.54050  0.23190  0.20030  Biso   1.000  H
  H230     1.0000 0.45950  0.76810  0.20030  Biso   1.000  H
  H231     1.0000 0.23190  0.45950  0.20030  Biso   1.000  H
  H232     1.0000 0.76810  0.54050  0.20030  Biso   1.000  H
  H233     1.0000 0.95950  0.73190  0.29970  Biso   1.000  H
  H234     1.0000 0.04050  0.26810  0.29970  Biso   1.000  H
  H235     1.0000 0.26810  0.95950  0.29970  Biso   1.000  H
  H236     1.0000 0.73190  0.04050  0.29970  Biso   1.000  H
  H237     1.0000 0.04050  0.73190  0.70030  Biso   1.000  H
  H238     1.0000 0.95950  0.26810  0.70030  Biso   1.000  H
  H239     1.0000 0.73190  0.95950  0.70030  Biso   1.000  H
  H240     1.0000 0.26810  0.04050  0.70030  Biso   1.000  H
  N97      1.0000 0.35160  0.30780  0.92290  Biso   1.000  N
  N98      1.0000 0.64840  0.69220  0.92290  Biso   1.000  N
  N99      1.0000 0.69220  0.35160  0.92290  Biso   1.000  N
  N100     1.0000 0.30780  0.64840  0.92290  Biso   1.000  N
  N101     1.0000 0.64840  0.30780  0.07710  Biso   1.000  N
  N102     1.0000 0.35160  0.69220  0.07710  Biso   1.000  N
  N103     1.0000 0.30780  0.35160  0.07710  Biso   1.000  N
  N104     1.0000 0.69220  0.64840  0.07710  Biso   1.000  N
  N105     1.0000 0.85160  0.80780  0.42290  Biso   1.000  N
  N106     1.0000 0.14840  0.19220  0.42290  Biso   1.000  N
  N107     1.0000 0.19220  0.85160  0.42290  Biso   1.000  N
  N108     1.0000 0.80780  0.14840  0.42290  Biso   1.000  N
  N109     1.0000 0.14840  0.80780  0.57710  Biso   1.000  N
  N110     1.0000 0.85160  0.19220  0.57710  Biso   1.000  N
  N111     1.0000 0.80780  0.85160  0.57710  Biso   1.000  N
  N112     1.0000 0.19220  0.14840  0.57710  Biso   1.000  N
  O29      1.0000 0.30840  0.34330  0.88850  Biso   1.000  O
  O30      1.0000 0.69160  0.65670  0.88850  Biso   1.000  O
  O31      1.0000 0.65670  0.30840  0.88850  Biso   1.000  O
  O32      1.0000 0.34330  0.69160  0.88850  Biso   1.000  O
  O33      1.0000 0.69160  0.34330  0.11150  Biso   1.000  O
  O34      1.0000 0.30840  0.65670  0.11150  Biso   1.000  O
  O35      1.0000 0.34330  0.30840  0.11150  Biso   1.000  O
  O36      1.0000 0.65670  0.69160  0.11150  Biso   1.000  O
  O37      1.0000 0.80840  0.84330  0.38850  Biso   1.000  O
  O38      1.0000 0.19160  0.15670  0.38850  Biso   1.000  O
  O39      1.0000 0.15670  0.80840  0.38850  Biso   1.000  O
  O40      1.0000 0.84330  0.19160  0.38850  Biso   1.000  O
  O41      1.0000 0.19160  0.84330  0.61150  Biso   1.000  O
  O42      1.0000 0.80840  0.15670  0.61150  Biso   1.000  O
  O43      1.0000 0.84330  0.80840  0.61150  Biso   1.000  O
  O44      1.0000 0.15670  0.19160  0.61150  Biso   1.000  O
  O45      1.0000 0.36610  0.31550  0.00160  Biso   1.000  O
  O46      1.0000 0.63390  0.68450  0.00160  Biso   1.000  O
  O47      1.0000 0.68450  0.36610  0.00160  Biso   1.000  O
  O48      1.0000 0.31550  0.63390  0.00160  Biso   1.000  O
  O49      1.0000 0.63390  0.31550  0.99840  Biso   1.000  O
  O50      1.0000 0.36610  0.68450  0.99840  Biso   1.000  O
  O51      1.0000 0.31550  0.36610  0.99840  Biso   1.000  O
  O52      1.0000 0.68450  0.63390  0.99840  Biso   1.000  O
  O53      1.0000 0.86610  0.81550  0.50160  Biso   1.000  O
  O54      1.0000 0.13390  0.18450  0.50160  Biso   1.000  O
  O55      1.0000 0.18450  0.86610  0.50160  Biso   1.000  O
  O56      1.0000 0.81550  0.13390  0.50160  Biso   1.000  O
  O57      1.0000 0.13390  0.81550  0.49840  Biso   1.000  O
  O58      1.0000 0.86610  0.18450  0.49840  Biso   1.000  O
  O59      1.0000 0.81550  0.86610  0.49840  Biso   1.000  O
  O60      1.0000 0.18450  0.13390  0.49840  Biso   1.000  O
  O61      1.0000 0.38030  0.26470  0.87840  Biso   1.000  O
  O62      1.0000 0.61970  0.73530  0.87840  Biso   1.000  O
  O63      1.0000 0.73530  0.38030  0.87840  Biso   1.000  O
  O64      1.0000 0.26470  0.61970  0.87840  Biso   1.000  O
  O65      1.0000 0.61970  0.26470  0.12160  Biso   1.000  O
  O66      1.0000 0.38030  0.73530  0.12160  Biso   1.000  O
  O67      1.0000 0.26470  0.38030  0.12160  Biso   1.000  O
  O68      1.0000 0.73530  0.61970  0.12160  Biso   1.000  O
  O69      1.0000 0.88030  0.76470  0.37840  Biso   1.000  O
  O70      1.0000 0.11970  0.23530  0.37840  Biso   1.000  O
  O71      1.0000 0.23530  0.88030  0.37840  Biso   1.000  O
  O72      1.0000 0.76470  0.11970  0.37840  Biso   1.000  O
  O73      1.0000 0.11970  0.76470  0.62160  Biso   1.000  O
  O74      1.0000 0.88030  0.23530  0.62160  Biso   1.000  O
  O75      1.0000 0.76470  0.88030  0.62160  Biso   1.000  O
  O76      1.0000 0.23530  0.11970  0.62160  Biso   1.000  O
  N113     1.0000 0.20030  0.29720  0.73710  Biso   1.000  N
  N114     1.0000 0.79970  0.70280  0.73710  Biso   1.000  N
  N115     1.0000 0.70280  0.20030  0.73710  Biso   1.000  N
  N116     1.0000 0.29720  0.79970  0.73710  Biso   1.000  N
  N117     1.0000 0.79970  0.29720  0.26290  Biso   1.000  N
  N118     1.0000 0.20030  0.70280  0.26290  Biso   1.000  N
  N119     1.0000 0.29720  0.20030  0.26290  Biso   1.000  N
  N120     1.0000 0.70280  0.79970  0.26290  Biso   1.000  N
  N121     1.0000 0.70030  0.79720  0.23710  Biso   1.000  N
  N122     1.0000 0.29970  0.20280  0.23710  Biso   1.000  N
  N123     1.0000 0.20280  0.70030  0.23710  Biso   1.000  N
  N124     1.0000 0.79720  0.29970  0.23710  Biso   1.000  N
  N125     1.0000 0.29970  0.79720  0.76290  Biso   1.000  N
  N126     1.0000 0.70030  0.20280  0.76290  Biso   1.000  N
  N127     1.0000 0.79720  0.70030  0.76290  Biso   1.000  N
  N128     1.0000 0.20280  0.29970  0.76290  Biso   1.000  N
  O77      1.0000 0.23570  0.26060  0.69090  Biso   1.000  O
  O78      1.0000 0.76430  0.73940  0.69090  Biso   1.000  O
  O79      1.0000 0.73940  0.23570  0.69090  Biso   1.000  O
  O80      1.0000 0.26060  0.76430  0.69090  Biso   1.000  O
  O81      1.0000 0.76430  0.26060  0.30910  Biso   1.000  O
  O82      1.0000 0.23570  0.73940  0.30910  Biso   1.000  O
  O83      1.0000 0.26060  0.23570  0.30910  Biso   1.000  O
  O84      1.0000 0.73940  0.76430  0.30910  Biso   1.000  O
  O85      1.0000 0.73570  0.76060  0.19090  Biso   1.000  O
  O86      1.0000 0.26430  0.23940  0.19090  Biso   1.000  O
  O87      1.0000 0.23940  0.73570  0.19090  Biso   1.000  O
  O88      1.0000 0.76060  0.26430  0.19090  Biso   1.000  O
  O89      1.0000 0.26430  0.76060  0.80910  Biso   1.000  O
  O90      1.0000 0.73570  0.23940  0.80910  Biso   1.000  O
  O91      1.0000 0.76060  0.73570  0.80910  Biso   1.000  O
  O92      1.0000 0.23940  0.26430  0.80910  Biso   1.000  O
  O93      1.0000 0.13890  0.29220  0.73300  Biso   1.000  O
  O94      1.0000 0.86110  0.70780  0.73300  Biso   1.000  O
  O95      1.0000 0.70780  0.13890  0.73300  Biso   1.000  O
  O96      1.0000 0.29220  0.86110  0.73300  Biso   1.000  O
  O97      1.0000 0.86110  0.29220  0.26700  Biso   1.000  O
  O98      1.0000 0.13890  0.70780  0.26700  Biso   1.000  O
  O99      1.0000 0.29220  0.13890  0.26700  Biso   1.000  O
  O100     1.0000 0.70780  0.86110  0.26700  Biso   1.000  O
  O101     1.0000 0.63890  0.79220  0.23300  Biso   1.000  O
  O102     1.0000 0.36110  0.20780  0.23300  Biso   1.000  O
  O103     1.0000 0.20780  0.63890  0.23300  Biso   1.000  O
  O104     1.0000 0.79220  0.36110  0.23300  Biso   1.000  O
  O105     1.0000 0.36110  0.79220  0.76700  Biso   1.000  O
  O106     1.0000 0.63890  0.20780  0.76700  Biso   1.000  O
  O107     1.0000 0.79220  0.63890  0.76700  Biso   1.000  O
  O108     1.0000 0.20780  0.36110  0.76700  Biso   1.000  O
  O109     1.0000 0.22620  0.33860  0.78710  Biso   1.000  O
  O110     1.0000 0.77380  0.66140  0.78710  Biso   1.000  O
  O111     1.0000 0.66140  0.22620  0.78710  Biso   1.000  O
  O112     1.0000 0.33860  0.77380  0.78710  Biso   1.000  O
  O113     1.0000 0.77380  0.33860  0.21290  Biso   1.000  O
  O114     1.0000 0.22620  0.66140  0.21290  Biso   1.000  O
  O115     1.0000 0.33860  0.22620  0.21290  Biso   1.000  O
  O116     1.0000 0.66140  0.77380  0.21290  Biso   1.000  O
  O117     1.0000 0.72620  0.83860  0.28710  Biso   1.000  O
  O118     1.0000 0.27380  0.16140  0.28710  Biso   1.000  O
  O119     1.0000 0.16140  0.72620  0.28710  Biso   1.000  O
  O120     1.0000 0.83860  0.27380  0.28710  Biso   1.000  O
  O121     1.0000 0.27380  0.83860  0.71290  Biso   1.000  O
  O122     1.0000 0.72620  0.16140  0.71290  Biso   1.000  O
  O123     1.0000 0.83860  0.72620  0.71290  Biso   1.000  O
  O124     1.0000 0.16140  0.27380  0.71290  Biso   1.000  O
  O125     1.0000 0.30600  0.20080  0.67300  Biso   1.000  O
  O126     1.0000 0.69400  0.79920  0.67300  Biso   1.000  O
  O127     1.0000 0.79920  0.30600  0.67300  Biso   1.000  O
  O128     1.0000 0.20080  0.69400  0.67300  Biso   1.000  O
  O129     1.0000 0.69400  0.20080  0.32700  Biso   1.000  O
  O130     1.0000 0.30600  0.79920  0.32700  Biso   1.000  O
  O131     1.0000 0.20080  0.30600  0.32700  Biso   1.000  O
  O132     1.0000 0.79920  0.69400  0.32700  Biso   1.000  O
  O133     1.0000 0.80600  0.70080  0.17300  Biso   1.000  O
  O134     1.0000 0.19400  0.29920  0.17300  Biso   1.000  O
  O135     1.0000 0.29920  0.80600  0.17300  Biso   1.000  O
  O136     1.0000 0.70080  0.19400  0.17300  Biso   1.000  O
  O137     1.0000 0.19400  0.70080  0.82700  Biso   1.000  O
  O138     1.0000 0.80600  0.29920  0.82700  Biso   1.000  O
  O139     1.0000 0.70080  0.80600  0.82700  Biso   1.000  O
  O140     1.0000 0.29920  0.19400  0.82700  Biso   1.000  O
  O141     1.0000 0.27330  0.21750  0.67980  Biso   1.000  O
  O142     1.0000 0.72670  0.78250  0.67980  Biso   1.000  O
  O143     1.0000 0.78250  0.27330  0.67980  Biso   1.000  O
  O144     1.0000 0.21750  0.72670  0.67980  Biso   1.000  O
  O145     1.0000 0.72670  0.21750  0.32020  Biso   1.000  O
  O146     1.0000 0.27330  0.78250  0.32020  Biso   1.000  O
  O147     1.0000 0.21750  0.27330  0.32020  Biso   1.000  O
  O148     1.0000 0.78250  0.72670  0.32020  Biso   1.000  O
  O149     1.0000 0.77330  0.71750  0.17980  Biso   1.000  O
  O150     1.0000 0.22670  0.28250  0.17980  Biso   1.000  O
  O151     1.0000 0.28250  0.77330  0.17980  Biso   1.000  O
  O152     1.0000 0.71750  0.22670  0.17980  Biso   1.000  O
  O153     1.0000 0.22670  0.71750  0.82020  Biso   1.000  O
  O154     1.0000 0.77330  0.28250  0.82020  Biso   1.000  O
  O155     1.0000 0.71750  0.77330  0.82020  Biso   1.000  O
  O156     1.0000 0.28250  0.22670  0.82020  Biso   1.000  O
  N129     1.0000 0.39450  0.11100  0.74730  Biso   1.000  N
  N130     1.0000 0.60550  0.88900  0.74730  Biso   1.000  N
  N131     1.0000 0.88900  0.39450  0.74730  Biso   1.000  N
  N132     1.0000 0.11100  0.60550  0.74730  Biso   1.000  N
  N133     1.0000 0.60550  0.11100  0.25270  Biso   1.000  N
  N134     1.0000 0.39450  0.88900  0.25270  Biso   1.000  N
  N135     1.0000 0.11100  0.39450  0.25270  Biso   1.000  N
  N136     1.0000 0.88900  0.60550  0.25270  Biso   1.000  N
  N137     1.0000 0.89450  0.61100  0.24730  Biso   1.000  N
  N138     1.0000 0.10550  0.38900  0.24730  Biso   1.000  N
  N139     1.0000 0.38900  0.89450  0.24730  Biso   1.000  N
  N140     1.0000 0.61100  0.10550  0.24730  Biso   1.000  N
  N141     1.0000 0.10550  0.61100  0.75270  Biso   1.000  N
  N142     1.0000 0.89450  0.38900  0.75270  Biso   1.000  N
  N143     1.0000 0.61100  0.89450  0.75270  Biso   1.000  N
  N144     1.0000 0.38900  0.10550  0.75270  Biso   1.000  N
  O157     1.0000 0.38360  0.12090  0.66810  Biso   1.000  O
  O158     1.0000 0.61640  0.87910  0.66810  Biso   1.000  O
  O159     1.0000 0.87910  0.38360  0.66810  Biso   1.000  O
  O160     1.0000 0.12090  0.61640  0.66810  Biso   1.000  O
  O161     1.0000 0.61640  0.12090  0.33190  Biso   1.000  O
  O162     1.0000 0.38360  0.87910  0.33190  Biso   1.000  O
  O163     1.0000 0.12090  0.38360  0.33190  Biso   1.000  O
  O164     1.0000 0.87910  0.61640  0.33190  Biso   1.000  O
  O165     1.0000 0.88360  0.62090  0.16810  Biso   1.000  O
  O166     1.0000 0.11640  0.37910  0.16810  Biso   1.000  O
  O167     1.0000 0.37910  0.88360  0.16810  Biso   1.000  O
  O168     1.0000 0.62090  0.11640  0.16810  Biso   1.000  O
  O169     1.0000 0.11640  0.62090  0.83190  Biso   1.000  O
  O170     1.0000 0.88360  0.37910  0.83190  Biso   1.000  O
  O171     1.0000 0.62090  0.88360  0.83190  Biso   1.000  O
  O172     1.0000 0.37910  0.11640  0.83190  Biso   1.000  O
  O173     1.0000 0.43430  0.06700  0.76990  Biso   1.000  O
  O174     1.0000 0.56570  0.93300  0.76990  Biso   1.000  O
  O175     1.0000 0.93300  0.43430  0.76990  Biso   1.000  O
  O176     1.0000 0.06700  0.56570  0.76990  Biso   1.000  O
  O177     1.0000 0.56570  0.06700  0.23010  Biso   1.000  O
  O178     1.0000 0.43430  0.93300  0.23010  Biso   1.000  O
  O179     1.0000 0.06700  0.43430  0.23010  Biso   1.000  O
  O180     1.0000 0.93300  0.56570  0.23010  Biso   1.000  O
  O181     1.0000 0.93430  0.56700  0.26990  Biso   1.000  O
  O182     1.0000 0.06570  0.43300  0.26990  Biso   1.000  O
  O183     1.0000 0.43300  0.93430  0.26990  Biso   1.000  O
  O184     1.0000 0.56700  0.06570  0.26990  Biso   1.000  O
  O185     1.0000 0.06570  0.56700  0.73010  Biso   1.000  O
  O186     1.0000 0.93430  0.43300  0.73010  Biso   1.000  O
  O187     1.0000 0.56700  0.93430  0.73010  Biso   1.000  O
  O188     1.0000 0.43300  0.06570  0.73010  Biso   1.000  O
  O189     1.0000 0.36630  0.14460  0.80450  Biso   1.000  O
  O190     1.0000 0.63370  0.85540  0.80450  Biso   1.000  O
  O191     1.0000 0.85540  0.36630  0.80450  Biso   1.000  O
  O192     1.0000 0.14460  0.63370  0.80450  Biso   1.000  O
  O193     1.0000 0.63370  0.14460  0.19550  Biso   1.000  O
  O194     1.0000 0.36630  0.85540  0.19550  Biso   1.000  O
  O195     1.0000 0.14460  0.36630  0.19550  Biso   1.000  O
  O196     1.0000 0.85540  0.63370  0.19550  Biso   1.000  O
  O197     1.0000 0.86630  0.64460  0.30450  Biso   1.000  O
  O198     1.0000 0.13370  0.35540  0.30450  Biso   1.000  O
  O199     1.0000 0.35540  0.86630  0.30450  Biso   1.000  O
  O200     1.0000 0.64460  0.13370  0.30450  Biso   1.000  O
  O201     1.0000 0.13370  0.64460  0.69550  Biso   1.000  O
  O202     1.0000 0.86630  0.35540  0.69550  Biso   1.000  O
  O203     1.0000 0.64460  0.86630  0.69550  Biso   1.000  O
  O204     1.0000 0.35540  0.13370  0.69550  Biso   1.000  O
  O205     1.0000 0.44430  0.20800  0.00000  Biso   1.000  O
  O206     1.0000 0.55570  0.79200  0.00000  Biso   1.000  O
  O207     1.0000 0.79200  0.44430  0.00000  Biso   1.000  O
  O208     1.0000 0.20800  0.55570  0.00000  Biso   1.000  O
  O209     1.0000 0.55570  0.20800  0.00000  Biso   1.000  O
  O210     1.0000 0.44430  0.79200  0.00000  Biso   1.000  O
  O211     1.0000 0.20800  0.44430  0.00000  Biso   1.000  O
  O212     1.0000 0.79200  0.55570  0.00000  Biso   1.000  O
  O213     1.0000 0.94430  0.70800  0.50000  Biso   1.000  O
  O214     1.0000 0.05570  0.29200  0.50000  Biso   1.000  O
  O215     1.0000 0.29200  0.94430  0.50000  Biso   1.000  O
  O216     1.0000 0.70800  0.05570  0.50000  Biso   1.000  O
  O217     1.0000 0.05570  0.70800  0.50000  Biso   1.000  O
  O218     1.0000 0.94430  0.29200  0.50000  Biso   1.000  O
  O219     1.0000 0.70800  0.94430  0.50000  Biso   1.000  O
  O220     1.0000 0.29200  0.05570  0.50000  Biso   1.000  O
  O221     1.0000 0.17010  0.41690  0.87680  Biso   1.000  O
  O222     1.0000 0.82990  0.58310  0.87680  Biso   1.000  O
  O223     1.0000 0.58310  0.17010  0.87680  Biso   1.000  O
  O224     1.0000 0.41690  0.82990  0.87680  Biso   1.000  O
  O225     1.0000 0.82990  0.41690  0.12320  Biso   1.000  O
  O226     1.0000 0.17010  0.58310  0.12320  Biso   1.000  O
  O227     1.0000 0.41690  0.17010  0.12320  Biso   1.000  O
  O228     1.0000 0.58310  0.82990  0.12320  Biso   1.000  O
  O229     1.0000 0.67010  0.91690  0.37680  Biso   1.000  O
  O230     1.0000 0.32990  0.08310  0.37680  Biso   1.000  O
  O231     1.0000 0.08310  0.67010  0.37680  Biso   1.000  O
  O232     1.0000 0.91690  0.32990  0.37680  Biso   1.000  O
  O233     1.0000 0.32990  0.91690  0.62320  Biso   1.000  O
  O234     1.0000 0.67010  0.08310  0.62320  Biso   1.000  O
  O235     1.0000 0.91690  0.67010  0.62320  Biso   1.000  O
  O236     1.0000 0.08310  0.32990  0.62320  Biso   1.000  O
  O237     1.0000 0.06570  0.44460  0.89800  Biso   1.000  O
  O238     1.0000 0.93430  0.55540  0.89800  Biso   1.000  O
  O239     1.0000 0.55540  0.06570  0.89800  Biso   1.000  O
  O240     1.0000 0.44460  0.93430  0.89800  Biso   1.000  O
  O241     1.0000 0.93430  0.44460  0.10200  Biso   1.000  O
  O242     1.0000 0.06570  0.55540  0.10200  Biso   1.000  O
  O243     1.0000 0.44460  0.06570  0.10200  Biso   1.000  O
  O244     1.0000 0.55540  0.93430  0.10200  Biso   1.000  O
  O245     1.0000 0.56570  0.94460  0.39800  Biso   1.000  O
  O246     1.0000 0.43430  0.05540  0.39800  Biso   1.000  O
  O247     1.0000 0.05540  0.56570  0.39800  Biso   1.000  O
  O248     1.0000 0.94460  0.43430  0.39800  Biso   1.000  O
  O249     1.0000 0.43430  0.94460  0.60200  Biso   1.000  O
  O250     1.0000 0.56570  0.05540  0.60200  Biso   1.000  O
  O251     1.0000 0.94460  0.56570  0.60200  Biso   1.000  O
  O252     1.0000 0.05540  0.43430  0.60200  Biso   1.000  O
  O253     1.0000 0.40960  0.05980  0.58350  Biso   1.000  O
  O254     1.0000 0.59040  0.94020  0.58350  Biso   1.000  O
  O255     1.0000 0.94020  0.40960  0.58350  Biso   1.000  O
  O256     1.0000 0.05980  0.59040  0.58350  Biso   1.000  O
  O257     1.0000 0.59040  0.05980  0.41650  Biso   1.000  O
  O258     1.0000 0.40960  0.94020  0.41650  Biso   1.000  O
  O259     1.0000 0.05980  0.40960  0.41650  Biso   1.000  O
  O260     1.0000 0.94020  0.59040  0.41650  Biso   1.000  O
  O261     1.0000 0.90960  0.55980  0.08350  Biso   1.000  O
  O262     1.0000 0.09040  0.44020  0.08350  Biso   1.000  O
  O263     1.0000 0.44020  0.90960  0.08350  Biso   1.000  O
  O264     1.0000 0.55980  0.09040  0.08350  Biso   1.000  O
  O265     1.0000 0.09040  0.55980  0.91650  Biso   1.000  O
  O266     1.0000 0.90960  0.44020  0.91650  Biso   1.000  O
  O267     1.0000 0.55980  0.90960  0.91650  Biso   1.000  O
  O268     1.0000 0.44020  0.09040  0.91650  Biso   1.000  O
  P17      1.0000 0.35430  0.36400  0.68470  Biso   1.000  P
  P18      1.0000 0.64570  0.63600  0.68470  Biso   1.000  P
  P19      1.0000 0.63600  0.35430  0.68470  Biso   1.000  P
  P20      1.0000 0.36400  0.64570  0.68470  Biso   1.000  P
  P21      1.0000 0.64570  0.36400  0.31530  Biso   1.000  P
  P22      1.0000 0.35430  0.63600  0.31530  Biso   1.000  P
  P23      1.0000 0.36400  0.35430  0.31530  Biso   1.000  P
  P24      1.0000 0.63600  0.64570  0.31530  Biso   1.000  P
  P25      1.0000 0.85430  0.86400  0.18470  Biso   1.000  P
  P26      1.0000 0.14570  0.13600  0.18470  Biso   1.000  P
  P27      1.0000 0.13600  0.85430  0.18470  Biso   1.000  P
  P28      1.0000 0.86400  0.14570  0.18470  Biso   1.000  P
  P29      1.0000 0.14570  0.86400  0.81530  Biso   1.000  P
  P30      1.0000 0.85430  0.13600  0.81530  Biso   1.000  P
  P31      1.0000 0.86400  0.85430  0.81530  Biso   1.000  P
  P32      1.0000 0.13600  0.14570  0.81530  Biso   1.000  P
  S17      1.0000 0.40330  0.40800  0.62390  Biso   1.000  S
  S18      1.0000 0.59670  0.59200  0.62390  Biso   1.000  S
  S19      1.0000 0.59200  0.40330  0.62390  Biso   1.000  S
  S20      1.0000 0.40800  0.59670  0.62390  Biso   1.000  S
  S21      1.0000 0.59670  0.40800  0.37610  Biso   1.000  S
  S22      1.0000 0.40330  0.59200  0.37610  Biso   1.000  S
  S23      1.0000 0.40800  0.40330  0.37610  Biso   1.000  S
  S24      1.0000 0.59200  0.59670  0.37610  Biso   1.000  S
  S25      1.0000 0.90330  0.90800  0.12390  Biso   1.000  S
  S26      1.0000 0.09670  0.09200  0.12390  Biso   1.000  S
  S27      1.0000 0.09200  0.90330  0.12390  Biso   1.000  S
  S28      1.0000 0.90800  0.09670  0.12390  Biso   1.000  S
  S29      1.0000 0.09670  0.90800  0.87610  Biso   1.000  S
  S30      1.0000 0.90330  0.09200  0.87610  Biso   1.000  S
  S31      1.0000 0.90800  0.90330  0.87610  Biso   1.000  S
  S32      1.0000 0.09200  0.09670  0.87610  Biso   1.000  S
  N145     1.0000 0.31980  0.40010  0.74560  Biso   1.000  N
  N146     1.0000 0.68020  0.59990  0.74560  Biso   1.000  N
  N147     1.0000 0.59990  0.31980  0.74560  Biso   1.000  N
  N148     1.0000 0.40010  0.68020  0.74560  Biso   1.000  N
  N149     1.0000 0.68020  0.40010  0.25440  Biso   1.000  N
  N150     1.0000 0.31980  0.59990  0.25440  Biso   1.000  N
  N151     1.0000 0.40010  0.31980  0.25440  Biso   1.000  N
  N152     1.0000 0.59990  0.68020  0.25440  Biso   1.000  N
  N153     1.0000 0.81980  0.90010  0.24560  Biso   1.000  N
  N154     1.0000 0.18020  0.09990  0.24560  Biso   1.000  N
  N155     1.0000 0.09990  0.81980  0.24560  Biso   1.000  N
  N156     1.0000 0.90010  0.18020  0.24560  Biso   1.000  N
  N157     1.0000 0.18020  0.90010  0.75440  Biso   1.000  N
  N158     1.0000 0.81980  0.09990  0.75440  Biso   1.000  N
  N159     1.0000 0.90010  0.81980  0.75440  Biso   1.000  N
  N160     1.0000 0.09990  0.18020  0.75440  Biso   1.000  N
  H241     1.0000 0.28370  0.39550  0.74520  Biso   1.000  H
  H242     1.0000 0.71630  0.60450  0.74520  Biso   1.000  H
  H243     1.0000 0.60450  0.28370  0.74520  Biso   1.000  H
  H244     1.0000 0.39550  0.71630  0.74520  Biso   1.000  H
  H245     1.0000 0.71630  0.39550  0.25480  Biso   1.000  H
  H246     1.0000 0.28370  0.60450  0.25480  Biso   1.000  H
  H247     1.0000 0.39550  0.28370  0.25480  Biso   1.000  H
  H248     1.0000 0.60450  0.71630  0.25480  Biso   1.000  H
  H249     1.0000 0.78370  0.89550  0.24520  Biso   1.000  H
  H250     1.0000 0.21630  0.10450  0.24520  Biso   1.000  H
  H251     1.0000 0.10450  0.78370  0.24520  Biso   1.000  H
  H252     1.0000 0.89550  0.21630  0.24520  Biso   1.000  H
  H253     1.0000 0.21630  0.89550  0.75480  Biso   1.000  H
  H254     1.0000 0.78370  0.10450  0.75480  Biso   1.000  H
  H255     1.0000 0.89550  0.78370  0.75480  Biso   1.000  H
  H256     1.0000 0.10450  0.21630  0.75480  Biso   1.000  H
  C241     1.0000 0.34070  0.43870  0.80010  Biso   1.000  C
  C242     1.0000 0.65930  0.56130  0.80010  Biso   1.000  C
  C243     1.0000 0.56130  0.34070  0.80010  Biso   1.000  C
  C244     1.0000 0.43870  0.65930  0.80010  Biso   1.000  C
  C245     1.0000 0.65930  0.43870  0.19990  Biso   1.000  C
  C246     1.0000 0.34070  0.56130  0.19990  Biso   1.000  C
  C247     1.0000 0.43870  0.34070  0.19990  Biso   1.000  C
  C248     1.0000 0.56130  0.65930  0.19990  Biso   1.000  C
  C249     1.0000 0.84070  0.93870  0.30010  Biso   1.000  C
  C250     1.0000 0.15930  0.06130  0.30010  Biso   1.000  C
  C251     1.0000 0.06130  0.84070  0.30010  Biso   1.000  C
  C252     1.0000 0.93870  0.15930  0.30010  Biso   1.000  C
  C253     1.0000 0.15930  0.93870  0.69990  Biso   1.000  C
  C254     1.0000 0.84070  0.06130  0.69990  Biso   1.000  C
  C255     1.0000 0.93870  0.84070  0.69990  Biso   1.000  C
  C256     1.0000 0.06130  0.15930  0.69990  Biso   1.000  C
  C257     1.0000 0.39740  0.45020  0.80370  Biso   1.000  C
  C258     1.0000 0.60260  0.54980  0.80370  Biso   1.000  C
  C259     1.0000 0.54980  0.39740  0.80370  Biso   1.000  C
  C260     1.0000 0.45020  0.60260  0.80370  Biso   1.000  C
  C261     1.0000 0.60260  0.45020  0.19630  Biso   1.000  C
  C262     1.0000 0.39740  0.54980  0.19630  Biso   1.000  C
  C263     1.0000 0.45020  0.39740  0.19630  Biso   1.000  C
  C264     1.0000 0.54980  0.60260  0.19630  Biso   1.000  C
  C265     1.0000 0.89740  0.95020  0.30370  Biso   1.000  C
  C266     1.0000 0.10260  0.04980  0.30370  Biso   1.000  C
  C267     1.0000 0.04980  0.89740  0.30370  Biso   1.000  C
  C268     1.0000 0.95020  0.10260  0.30370  Biso   1.000  C
  C269     1.0000 0.10260  0.95020  0.69630  Biso   1.000  C
  C270     1.0000 0.89740  0.04980  0.69630  Biso   1.000  C
  C271     1.0000 0.95020  0.89740  0.69630  Biso   1.000  C
  C272     1.0000 0.04980  0.10260  0.69630  Biso   1.000  C
  H257     1.0000 0.42190  0.43230  0.77060  Biso   1.000  H
  H258     1.0000 0.57810  0.56770  0.77060  Biso   1.000  H
  H259     1.0000 0.56770  0.42190  0.77060  Biso   1.000  H
  H260     1.0000 0.43230  0.57810  0.77060  Biso   1.000  H
  H261     1.0000 0.57810  0.43230  0.22940  Biso   1.000  H
  H262     1.0000 0.42190  0.56770  0.22940  Biso   1.000  H
  H263     1.0000 0.43230  0.42190  0.22940  Biso   1.000  H
  H264     1.0000 0.56770  0.57810  0.22940  Biso   1.000  H
  H265     1.0000 0.92190  0.93230  0.27060  Biso   1.000  H
  H266     1.0000 0.07810  0.06770  0.27060  Biso   1.000  H
  H267     1.0000 0.06770  0.92190  0.27060  Biso   1.000  H
  H268     1.0000 0.93230  0.07810  0.27060  Biso   1.000  H
  H269     1.0000 0.07810  0.93230  0.72940  Biso   1.000  H
  H270     1.0000 0.92190  0.06770  0.72940  Biso   1.000  H
  H271     1.0000 0.93230  0.92190  0.72940  Biso   1.000  H
  H272     1.0000 0.06770  0.07810  0.72940  Biso   1.000  H
  N161     1.0000 0.41770  0.48560  0.85270  Biso   1.000  N
  N162     1.0000 0.58230  0.51440  0.85270  Biso   1.000  N
  N163     1.0000 0.51440  0.41770  0.85270  Biso   1.000  N
  N164     1.0000 0.48560  0.58230  0.85270  Biso   1.000  N
  N165     1.0000 0.58230  0.48560  0.14730  Biso   1.000  N
  N166     1.0000 0.41770  0.51440  0.14730  Biso   1.000  N
  N167     1.0000 0.48560  0.41770  0.14730  Biso   1.000  N
  N168     1.0000 0.51440  0.58230  0.14730  Biso   1.000  N
  N169     1.0000 0.91770  0.98560  0.35270  Biso   1.000  N
  N170     1.0000 0.08230  0.01440  0.35270  Biso   1.000  N
  N171     1.0000 0.01440  0.91770  0.35270  Biso   1.000  N
  N172     1.0000 0.98560  0.08230  0.35270  Biso   1.000  N
  N173     1.0000 0.08230  0.98560  0.64730  Biso   1.000  N
  N174     1.0000 0.91770  0.01440  0.64730  Biso   1.000  N
  N175     1.0000 0.98560  0.91770  0.64730  Biso   1.000  N
  N176     1.0000 0.01440  0.08230  0.64730  Biso   1.000  N
  C273     1.0000 0.38340  0.51050  0.90020  Biso   1.000  C
  C274     1.0000 0.61660  0.48950  0.90020  Biso   1.000  C
  C275     1.0000 0.48950  0.38340  0.90020  Biso   1.000  C
  C276     1.0000 0.51050  0.61660  0.90020  Biso   1.000  C
  C277     1.0000 0.61660  0.51050  0.09980  Biso   1.000  C
  C278     1.0000 0.38340  0.48950  0.09980  Biso   1.000  C
  C279     1.0000 0.51050  0.38340  0.09980  Biso   1.000  C
  C280     1.0000 0.48950  0.61660  0.09980  Biso   1.000  C
  C281     1.0000 0.88340  0.01050  0.40020  Biso   1.000  C
  C282     1.0000 0.11660  0.98950  0.40020  Biso   1.000  C
  C283     1.0000 0.98950  0.88340  0.40020  Biso   1.000  C
  C284     1.0000 0.01050  0.11660  0.40020  Biso   1.000  C
  C285     1.0000 0.11660  0.01050  0.59980  Biso   1.000  C
  C286     1.0000 0.88340  0.98950  0.59980  Biso   1.000  C
  C287     1.0000 0.01050  0.88340  0.59980  Biso   1.000  C
  C288     1.0000 0.98950  0.11660  0.59980  Biso   1.000  C
  H273     1.0000 0.39730  0.53590  0.93540  Biso   1.000  H
  H274     1.0000 0.60270  0.46410  0.93540  Biso   1.000  H
  H275     1.0000 0.46410  0.39730  0.93540  Biso   1.000  H
  H276     1.0000 0.53590  0.60270  0.93540  Biso   1.000  H
  H277     1.0000 0.60270  0.53590  0.06460  Biso   1.000  H
  H278     1.0000 0.39730  0.46410  0.06460  Biso   1.000  H
  H279     1.0000 0.53590  0.39730  0.06460  Biso   1.000  H
  H280     1.0000 0.46410  0.60270  0.06460  Biso   1.000  H
  H281     1.0000 0.89730  0.03590  0.43540  Biso   1.000  H
  H282     1.0000 0.10270  0.96410  0.43540  Biso   1.000  H
  H283     1.0000 0.96410  0.89730  0.43540  Biso   1.000  H
  H284     1.0000 0.03590  0.10270  0.43540  Biso   1.000  H
  H285     1.0000 0.10270  0.03590  0.56460  Biso   1.000  H
  H286     1.0000 0.89730  0.96410  0.56460  Biso   1.000  H
  H287     1.0000 0.03590  0.89730  0.56460  Biso   1.000  H
  H288     1.0000 0.96410  0.10270  0.56460  Biso   1.000  H
  C289     1.0000 0.32670  0.49870  0.89730  Biso   1.000  C
  C290     1.0000 0.67330  0.50130  0.89730  Biso   1.000  C
  C291     1.0000 0.50130  0.32670  0.89730  Biso   1.000  C
  C292     1.0000 0.49870  0.67330  0.89730  Biso   1.000  C
  C293     1.0000 0.67330  0.49870  0.10270  Biso   1.000  C
  C294     1.0000 0.32670  0.50130  0.10270  Biso   1.000  C
  C295     1.0000 0.49870  0.32670  0.10270  Biso   1.000  C
  C296     1.0000 0.50130  0.67330  0.10270  Biso   1.000  C
  C297     1.0000 0.82670  0.99870  0.39730  Biso   1.000  C
  C298     1.0000 0.17330  0.00130  0.39730  Biso   1.000  C
  C299     1.0000 0.00130  0.82670  0.39730  Biso   1.000  C
  C300     1.0000 0.99870  0.17330  0.39730  Biso   1.000  C
  C301     1.0000 0.17330  0.99870  0.60270  Biso   1.000  C
  C302     1.0000 0.82670  0.00130  0.60270  Biso   1.000  C
  C303     1.0000 0.99870  0.82670  0.60270  Biso   1.000  C
  C304     1.0000 0.00130  0.17330  0.60270  Biso   1.000  C
  H289     1.0000 0.30230  0.51650  0.93060  Biso   1.000  H
  H290     1.0000 0.69770  0.48350  0.93060  Biso   1.000  H
  H291     1.0000 0.48350  0.30230  0.93060  Biso   1.000  H
  H292     1.0000 0.51650  0.69770  0.93060  Biso   1.000  H
  H293     1.0000 0.69770  0.51650  0.06940  Biso   1.000  H
  H294     1.0000 0.30230  0.48350  0.06940  Biso   1.000  H
  H295     1.0000 0.51650  0.30230  0.06940  Biso   1.000  H
  H296     1.0000 0.48350  0.69770  0.06940  Biso   1.000  H
  H297     1.0000 0.80230  0.01650  0.43060  Biso   1.000  H
  H298     1.0000 0.19770  0.98350  0.43060  Biso   1.000  H
  H299     1.0000 0.98350  0.80230  0.43060  Biso   1.000  H
  H300     1.0000 0.01650  0.19770  0.43060  Biso   1.000  H
  H301     1.0000 0.19770  0.01650  0.56940  Biso   1.000  H
  H302     1.0000 0.80230  0.98350  0.56940  Biso   1.000  H
  H303     1.0000 0.01650  0.80230  0.56940  Biso   1.000  H
  H304     1.0000 0.98350  0.19770  0.56940  Biso   1.000  H
  C305     1.0000 0.30620  0.46310  0.84890  Biso   1.000  C
  C306     1.0000 0.69380  0.53690  0.84890  Biso   1.000  C
  C307     1.0000 0.53690  0.30620  0.84890  Biso   1.000  C
  C308     1.0000 0.46310  0.69380  0.84890  Biso   1.000  C
  C309     1.0000 0.69380  0.46310  0.15110  Biso   1.000  C
  C310     1.0000 0.30620  0.53690  0.15110  Biso   1.000  C
  C311     1.0000 0.46310  0.30620  0.15110  Biso   1.000  C
  C312     1.0000 0.53690  0.69380  0.15110  Biso   1.000  C
  C313     1.0000 0.80620  0.96310  0.34890  Biso   1.000  C
  C314     1.0000 0.19380  0.03690  0.34890  Biso   1.000  C
  C315     1.0000 0.03690  0.80620  0.34890  Biso   1.000  C
  C316     1.0000 0.96310  0.19380  0.34890  Biso   1.000  C
  C317     1.0000 0.19380  0.96310  0.65110  Biso   1.000  C
  C318     1.0000 0.80620  0.03690  0.65110  Biso   1.000  C
  C319     1.0000 0.96310  0.80620  0.65110  Biso   1.000  C
  C320     1.0000 0.03690  0.19380  0.65110  Biso   1.000  C
  H305     1.0000 0.26780  0.45480  0.84860  Biso   1.000  H
  H306     1.0000 0.73220  0.54520  0.84860  Biso   1.000  H
  H307     1.0000 0.54520  0.26780  0.84860  Biso   1.000  H
  H308     1.0000 0.45480  0.73220  0.84860  Biso   1.000  H
  H309     1.0000 0.73220  0.45480  0.15140  Biso   1.000  H
  H310     1.0000 0.26780  0.54520  0.15140  Biso   1.000  H
  H311     1.0000 0.45480  0.26780  0.15140  Biso   1.000  H
  H312     1.0000 0.54520  0.73220  0.15140  Biso   1.000  H
  H313     1.0000 0.76780  0.95480  0.34860  Biso   1.000  H
  H314     1.0000 0.23220  0.04520  0.34860  Biso   1.000  H
  H315     1.0000 0.04520  0.76780  0.34860  Biso   1.000  H
  H316     1.0000 0.95480  0.23220  0.34860  Biso   1.000  H
  H317     1.0000 0.23220  0.95480  0.65140  Biso   1.000  H
  H318     1.0000 0.76780  0.04520  0.65140  Biso   1.000  H
  H319     1.0000 0.95480  0.76780  0.65140  Biso   1.000  H
  H320     1.0000 0.04520  0.23220  0.65140  Biso   1.000  H
  N177     1.0000 0.30360  0.33130  0.63990  Biso   1.000  N
  N178     1.0000 0.69640  0.66870  0.63990  Biso   1.000  N
  N179     1.0000 0.66870  0.30360  0.63990  Biso   1.000  N
  N180     1.0000 0.33130  0.69640  0.63990  Biso   1.000  N
  N181     1.0000 0.69640  0.33130  0.36010  Biso   1.000  N
  N182     1.0000 0.30360  0.66870  0.36010  Biso   1.000  N
  N183     1.0000 0.33130  0.30360  0.36010  Biso   1.000  N
  N184     1.0000 0.66870  0.69640  0.36010  Biso   1.000  N
  N185     1.0000 0.80360  0.83130  0.13990  Biso   1.000  N
  N186     1.0000 0.19640  0.16870  0.13990  Biso   1.000  N
  N187     1.0000 0.16870  0.80360  0.13990  Biso   1.000  N
  N188     1.0000 0.83130  0.19640  0.13990  Biso   1.000  N
  N189     1.0000 0.19640  0.83130  0.86010  Biso   1.000  N
  N190     1.0000 0.80360  0.16870  0.86010  Biso   1.000  N
  N191     1.0000 0.83130  0.80360  0.86010  Biso   1.000  N
  N192     1.0000 0.16870  0.19640  0.86010  Biso   1.000  N
  H321     1.0000 0.30030  0.29580  0.65000  Biso   1.000  H
  H322     1.0000 0.69970  0.70420  0.65000  Biso   1.000  H
  H323     1.0000 0.70420  0.30030  0.65000  Biso   1.000  H
  H324     1.0000 0.29580  0.69970  0.65000  Biso   1.000  H
  H325     1.0000 0.69970  0.29580  0.35000  Biso   1.000  H
  H326     1.0000 0.30030  0.70420  0.35000  Biso   1.000  H
  H327     1.0000 0.29580  0.30030  0.35000  Biso   1.000  H
  H328     1.0000 0.70420  0.69970  0.35000  Biso   1.000  H
  H329     1.0000 0.80030  0.79580  0.15000  Biso   1.000  H
  H330     1.0000 0.19970  0.20420  0.15000  Biso   1.000  H
  H331     1.0000 0.20420  0.80030  0.15000  Biso   1.000  H
  H332     1.0000 0.79580  0.19970  0.15000  Biso   1.000  H
  H333     1.0000 0.19970  0.79580  0.85000  Biso   1.000  H
  H334     1.0000 0.80030  0.20420  0.85000  Biso   1.000  H
  H335     1.0000 0.79580  0.80030  0.85000  Biso   1.000  H
  H336     1.0000 0.20420  0.19970  0.85000  Biso   1.000  H
  C321     1.0000 0.26700  0.35110  0.59080  Biso   1.000  C
  C322     1.0000 0.73300  0.64890  0.59080  Biso   1.000  C
  C323     1.0000 0.64890  0.26700  0.59080  Biso   1.000  C
  C324     1.0000 0.35110  0.73300  0.59080  Biso   1.000  C
  C325     1.0000 0.73300  0.35110  0.40920  Biso   1.000  C
  C326     1.0000 0.26700  0.64890  0.40920  Biso   1.000  C
  C327     1.0000 0.35110  0.26700  0.40920  Biso   1.000  C
  C328     1.0000 0.64890  0.73300  0.40920  Biso   1.000  C
  C329     1.0000 0.76700  0.85110  0.09080  Biso   1.000  C
  C330     1.0000 0.23300  0.14890  0.09080  Biso   1.000  C
  C331     1.0000 0.14890  0.76700  0.09080  Biso   1.000  C
  C332     1.0000 0.85110  0.23300  0.09080  Biso   1.000  C
  C333     1.0000 0.23300  0.85110  0.90920  Biso   1.000  C
  C334     1.0000 0.76700  0.14890  0.90920  Biso   1.000  C
  C335     1.0000 0.85110  0.76700  0.90920  Biso   1.000  C
  C336     1.0000 0.14890  0.23300  0.90920  Biso   1.000  C
  C337     1.0000 0.26350  0.40800  0.57290  Biso   1.000  C
  C338     1.0000 0.73650  0.59200  0.57290  Biso   1.000  C
  C339     1.0000 0.59200  0.26350  0.57290  Biso   1.000  C
  C340     1.0000 0.40800  0.73650  0.57290  Biso   1.000  C
  C341     1.0000 0.73650  0.40800  0.42710  Biso   1.000  C
  C342     1.0000 0.26350  0.59200  0.42710  Biso   1.000  C
  C343     1.0000 0.40800  0.26350  0.42710  Biso   1.000  C
  C344     1.0000 0.59200  0.73650  0.42710  Biso   1.000  C
  C345     1.0000 0.76350  0.90800  0.07290  Biso   1.000  C
  C346     1.0000 0.23650  0.09200  0.07290  Biso   1.000  C
  C347     1.0000 0.09200  0.76350  0.07290  Biso   1.000  C
  C348     1.0000 0.90800  0.23650  0.07290  Biso   1.000  C
  C349     1.0000 0.23650  0.90800  0.92710  Biso   1.000  C
  C350     1.0000 0.76350  0.09200  0.92710  Biso   1.000  C
  C351     1.0000 0.90800  0.76350  0.92710  Biso   1.000  C
  C352     1.0000 0.09200  0.23650  0.92710  Biso   1.000  C
  H337     1.0000 0.28940  0.43300  0.59390  Biso   1.000  H
  H338     1.0000 0.71060  0.56700  0.59390  Biso   1.000  H
  H339     1.0000 0.56700  0.28940  0.59390  Biso   1.000  H
  H340     1.0000 0.43300  0.71060  0.59390  Biso   1.000  H
  H341     1.0000 0.71060  0.43300  0.40610  Biso   1.000  H
  H342     1.0000 0.28940  0.56700  0.40610  Biso   1.000  H
  H343     1.0000 0.43300  0.28940  0.40610  Biso   1.000  H
  H344     1.0000 0.56700  0.71060  0.40610  Biso   1.000  H
  H345     1.0000 0.78940  0.93300  0.09390  Biso   1.000  H
  H346     1.0000 0.21060  0.06700  0.09390  Biso   1.000  H
  H347     1.0000 0.06700  0.78940  0.09390  Biso   1.000  H
  H348     1.0000 0.93300  0.21060  0.09390  Biso   1.000  H
  H349     1.0000 0.21060  0.93300  0.90610  Biso   1.000  H
  H350     1.0000 0.78940  0.06700  0.90610  Biso   1.000  H
  H351     1.0000 0.93300  0.78940  0.90610  Biso   1.000  H
  H352     1.0000 0.06700  0.21060  0.90610  Biso   1.000  H
  N193     1.0000 0.22560  0.42760  0.52800  Biso   1.000  N
  N194     1.0000 0.77440  0.57240  0.52800  Biso   1.000  N
  N195     1.0000 0.57240  0.22560  0.52800  Biso   1.000  N
  N196     1.0000 0.42760  0.77440  0.52800  Biso   1.000  N
  N197     1.0000 0.77440  0.42760  0.47200  Biso   1.000  N
  N198     1.0000 0.22560  0.57240  0.47200  Biso   1.000  N
  N199     1.0000 0.42760  0.22560  0.47200  Biso   1.000  N
  N200     1.0000 0.57240  0.77440  0.47200  Biso   1.000  N
  N201     1.0000 0.72560  0.92760  0.02800  Biso   1.000  N
  N202     1.0000 0.27440  0.07240  0.02800  Biso   1.000  N
  N203     1.0000 0.07240  0.72560  0.02800  Biso   1.000  N
  N204     1.0000 0.92760  0.27440  0.02800  Biso   1.000  N
  N205     1.0000 0.27440  0.92760  0.97200  Biso   1.000  N
  N206     1.0000 0.72560  0.07240  0.97200  Biso   1.000  N
  N207     1.0000 0.92760  0.72560  0.97200  Biso   1.000  N
  N208     1.0000 0.07240  0.27440  0.97200  Biso   1.000  N
  C353     1.0000 0.18770  0.39340  0.50040  Biso   1.000  C
  C354     1.0000 0.81230  0.60660  0.50040  Biso   1.000  C
  C355     1.0000 0.60660  0.18770  0.50040  Biso   1.000  C
  C356     1.0000 0.39340  0.81230  0.50040  Biso   1.000  C
  C357     1.0000 0.81230  0.39340  0.49960  Biso   1.000  C
  C358     1.0000 0.18770  0.60660  0.49960  Biso   1.000  C
  C359     1.0000 0.39340  0.18770  0.49960  Biso   1.000  C
  C360     1.0000 0.60660  0.81230  0.49960  Biso   1.000  C
  C361     1.0000 0.68770  0.89340  0.00040  Biso   1.000  C
  C362     1.0000 0.31230  0.10660  0.00040  Biso   1.000  C
  C363     1.0000 0.10660  0.68770  0.00040  Biso   1.000  C
  C364     1.0000 0.89340  0.31230  0.00040  Biso   1.000  C
  C365     1.0000 0.31230  0.89340  0.99960  Biso   1.000  C
  C366     1.0000 0.68770  0.10660  0.99960  Biso   1.000  C
  C367     1.0000 0.89340  0.68770  0.99960  Biso   1.000  C
  C368     1.0000 0.10660  0.31230  0.99960  Biso   1.000  C
  H353     1.0000 0.15820  0.40800  0.47200  Biso   1.000  H
  H354     1.0000 0.84180  0.59200  0.47200  Biso   1.000  H
  H355     1.0000 0.59200  0.15820  0.47200  Biso   1.000  H
  H356     1.0000 0.40800  0.84180  0.47200  Biso   1.000  H
  H357     1.0000 0.84180  0.40800  0.52800  Biso   1.000  H
  H358     1.0000 0.15820  0.59200  0.52800  Biso   1.000  H
  H359     1.0000 0.40800  0.15820  0.52800  Biso   1.000  H
  H360     1.0000 0.59200  0.84180  0.52800  Biso   1.000  H
  H361     1.0000 0.65820  0.90800  0.97200  Biso   1.000  H
  H362     1.0000 0.34180  0.09200  0.97200  Biso   1.000  H
  H363     1.0000 0.09200  0.65820  0.97200  Biso   1.000  H
  H364     1.0000 0.90800  0.34180  0.97200  Biso   1.000  H
  H365     1.0000 0.34180  0.90800  0.02800  Biso   1.000  H
  H366     1.0000 0.65820  0.09200  0.02800  Biso   1.000  H
  H367     1.0000 0.90800  0.65820  0.02800  Biso   1.000  H
  H368     1.0000 0.09200  0.34180  0.02800  Biso   1.000  H
  C369     1.0000 0.19070  0.33550  0.51260  Biso   1.000  C
  C370     1.0000 0.80930  0.66450  0.51260  Biso   1.000  C
  C371     1.0000 0.66450  0.19070  0.51260  Biso   1.000  C
  C372     1.0000 0.33550  0.80930  0.51260  Biso   1.000  C
  C373     1.0000 0.80930  0.33550  0.48740  Biso   1.000  C
  C374     1.0000 0.19070  0.66450  0.48740  Biso   1.000  C
  C375     1.0000 0.33550  0.19070  0.48740  Biso   1.000  C
  C376     1.0000 0.66450  0.80930  0.48740  Biso   1.000  C
  C377     1.0000 0.69070  0.83550  0.01260  Biso   1.000  C
  C378     1.0000 0.30930  0.16450  0.01260  Biso   1.000  C
  C379     1.0000 0.16450  0.69070  0.01260  Biso   1.000  C
  C380     1.0000 0.83550  0.30930  0.01260  Biso   1.000  C
  C381     1.0000 0.30930  0.83550  0.98740  Biso   1.000  C
  C382     1.0000 0.69070  0.16450  0.98740  Biso   1.000  C
  C383     1.0000 0.83550  0.69070  0.98740  Biso   1.000  C
  C384     1.0000 0.16450  0.30930  0.98740  Biso   1.000  C
  H369     1.0000 0.16660  0.31100  0.48730  Biso   1.000  H
  H370     1.0000 0.83340  0.68900  0.48730  Biso   1.000  H
  H371     1.0000 0.68900  0.16660  0.48730  Biso   1.000  H
  H372     1.0000 0.31100  0.83340  0.48730  Biso   1.000  H
  H373     1.0000 0.83340  0.31100  0.51270  Biso   1.000  H
  H374     1.0000 0.16660  0.68900  0.51270  Biso   1.000  H
  H375     1.0000 0.31100  0.16660  0.51270  Biso   1.000  H
  H376     1.0000 0.68900  0.83340  0.51270  Biso   1.000  H
  H377     1.0000 0.66660  0.81100  0.98730  Biso   1.000  H
  H378     1.0000 0.33340  0.18900  0.98730  Biso   1.000  H
  H379     1.0000 0.18900  0.66660  0.98730  Biso   1.000  H
  H380     1.0000 0.81100  0.33340  0.98730  Biso   1.000  H
  H381     1.0000 0.33340  0.81100  0.01270  Biso   1.000  H
  H382     1.0000 0.66660  0.18900  0.01270  Biso   1.000  H
  H383     1.0000 0.81100  0.66660  0.01270  Biso   1.000  H
  H384     1.0000 0.18900  0.33340  0.01270  Biso   1.000  H
  C385     1.0000 0.22740  0.31630  0.55980  Biso   1.000  C
  C386     1.0000 0.77260  0.68370  0.55980  Biso   1.000  C
  C387     1.0000 0.68370  0.22740  0.55980  Biso   1.000  C
  C388     1.0000 0.31630  0.77260  0.55980  Biso   1.000  C
  C389     1.0000 0.77260  0.31630  0.44020  Biso   1.000  C
  C390     1.0000 0.22740  0.68370  0.44020  Biso   1.000  C
  C391     1.0000 0.31630  0.22740  0.44020  Biso   1.000  C
  C392     1.0000 0.68370  0.77260  0.44020  Biso   1.000  C
  C393     1.0000 0.72740  0.81630  0.05980  Biso   1.000  C
  C394     1.0000 0.27260  0.18370  0.05980  Biso   1.000  C
  C395     1.0000 0.18370  0.72740  0.05980  Biso   1.000  C
  C396     1.0000 0.81630  0.27260  0.05980  Biso   1.000  C
  C397     1.0000 0.27260  0.81630  0.94020  Biso   1.000  C
  C398     1.0000 0.72740  0.18370  0.94020  Biso   1.000  C
  C399     1.0000 0.81630  0.72740  0.94020  Biso   1.000  C
  C400     1.0000 0.18370  0.27260  0.94020  Biso   1.000  C
  H385     1.0000 0.22690  0.27820  0.57280  Biso   1.000  H
  H386     1.0000 0.77310  0.72180  0.57280  Biso   1.000  H
  H387     1.0000 0.72180  0.22690  0.57280  Biso   1.000  H
  H388     1.0000 0.27820  0.77310  0.57280  Biso   1.000  H
  H389     1.0000 0.77310  0.27820  0.42720  Biso   1.000  H
  H390     1.0000 0.22690  0.72180  0.42720  Biso   1.000  H
  H391     1.0000 0.27820  0.22690  0.42720  Biso   1.000  H
  H392     1.0000 0.72180  0.77310  0.42720  Biso   1.000  H
  H393     1.0000 0.72690  0.77820  0.07280  Biso   1.000  H
  H394     1.0000 0.27310  0.22180  0.07280  Biso   1.000  H
  H395     1.0000 0.22180  0.72690  0.07280  Biso   1.000  H
  H396     1.0000 0.77820  0.27310  0.07280  Biso   1.000  H
  H397     1.0000 0.27310  0.77820  0.92720  Biso   1.000  H
  H398     1.0000 0.72690  0.22180  0.92720  Biso   1.000  H
  H399     1.0000 0.77820  0.72690  0.92720  Biso   1.000  H
  H400     1.0000 0.22180  0.27310  0.92720  Biso   1.000  H
  N209     1.0000 0.38460  0.31510  0.73250  Biso   1.000  N
  N210     1.0000 0.61540  0.68490  0.73250  Biso   1.000  N
  N211     1.0000 0.68490  0.38460  0.73250  Biso   1.000  N
  N212     1.0000 0.31510  0.61540  0.73250  Biso   1.000  N
  N213     1.0000 0.61540  0.31510  0.26750  Biso   1.000  N
  N214     1.0000 0.38460  0.68490  0.26750  Biso   1.000  N
  N215     1.0000 0.31510  0.38460  0.26750  Biso   1.000  N
  N216     1.0000 0.68490  0.61540  0.26750  Biso   1.000  N
  N217     1.0000 0.88460  0.81510  0.23250  Biso   1.000  N
  N218     1.0000 0.11540  0.18490  0.23250  Biso   1.000  N
  N219     1.0000 0.18490  0.88460  0.23250  Biso   1.000  N
  N220     1.0000 0.81510  0.11540  0.23250  Biso   1.000  N
  N221     1.0000 0.11540  0.81510  0.76750  Biso   1.000  N
  N222     1.0000 0.88460  0.18490  0.76750  Biso   1.000  N
  N223     1.0000 0.81510  0.88460  0.76750  Biso   1.000  N
  N224     1.0000 0.18490  0.11540  0.76750  Biso   1.000  N
  H401     1.0000 0.37700  0.31490  0.77970  Biso   1.000  H
  H402     1.0000 0.62300  0.68510  0.77970  Biso   1.000  H
  H403     1.0000 0.68510  0.37700  0.77970  Biso   1.000  H
  H404     1.0000 0.31490  0.62300  0.77970  Biso   1.000  H
  H405     1.0000 0.62300  0.31490  0.22030  Biso   1.000  H
  H406     1.0000 0.37700  0.68510  0.22030  Biso   1.000  H
  H407     1.0000 0.31490  0.37700  0.22030  Biso   1.000  H
  H408     1.0000 0.68510  0.62300  0.22030  Biso   1.000  H
  H409     1.0000 0.87700  0.81490  0.27970  Biso   1.000  H
  H410     1.0000 0.12300  0.18510  0.27970  Biso   1.000  H
  H411     1.0000 0.18510  0.87700  0.27970  Biso   1.000  H
  H412     1.0000 0.81490  0.12300  0.27970  Biso   1.000  H
  H413     1.0000 0.12300  0.81490  0.72030  Biso   1.000  H
  H414     1.0000 0.87700  0.18510  0.72030  Biso   1.000  H
  H415     1.0000 0.81490  0.87700  0.72030  Biso   1.000  H
  H416     1.0000 0.18510  0.12300  0.72030  Biso   1.000  H
  C401     1.0000 0.42050  0.27420  0.70880  Biso   1.000  C
  C402     1.0000 0.57950  0.72580  0.70880  Biso   1.000  C
  C403     1.0000 0.72580  0.42050  0.70880  Biso   1.000  C
  C404     1.0000 0.27420  0.57950  0.70880  Biso   1.000  C
  C405     1.0000 0.57950  0.27420  0.29120  Biso   1.000  C
  C406     1.0000 0.42050  0.72580  0.29120  Biso   1.000  C
  C407     1.0000 0.27420  0.42050  0.29120  Biso   1.000  C
  C408     1.0000 0.72580  0.57950  0.29120  Biso   1.000  C
  C409     1.0000 0.92050  0.77420  0.20880  Biso   1.000  C
  C410     1.0000 0.07950  0.22580  0.20880  Biso   1.000  C
  C411     1.0000 0.22580  0.92050  0.20880  Biso   1.000  C
  C412     1.0000 0.77420  0.07950  0.20880  Biso   1.000  C
  C413     1.0000 0.07950  0.77420  0.79120  Biso   1.000  C
  C414     1.0000 0.92050  0.22580  0.79120  Biso   1.000  C
  C415     1.0000 0.77420  0.92050  0.79120  Biso   1.000  C
  C416     1.0000 0.22580  0.07950  0.79120  Biso   1.000  C
  C417     1.0000 0.43350  0.26680  0.63480  Biso   1.000  C
  C418     1.0000 0.56650  0.73320  0.63480  Biso   1.000  C
  C419     1.0000 0.73320  0.43350  0.63480  Biso   1.000  C
  C420     1.0000 0.26680  0.56650  0.63480  Biso   1.000  C
  C421     1.0000 0.56650  0.26680  0.36520  Biso   1.000  C
  C422     1.0000 0.43350  0.73320  0.36520  Biso   1.000  C
  C423     1.0000 0.26680  0.43350  0.36520  Biso   1.000  C
  C424     1.0000 0.73320  0.56650  0.36520  Biso   1.000  C
  C425     1.0000 0.93350  0.76680  0.13480  Biso   1.000  C
  C426     1.0000 0.06650  0.23320  0.13480  Biso   1.000  C
  C427     1.0000 0.23320  0.93350  0.13480  Biso   1.000  C
  C428     1.0000 0.76680  0.06650  0.13480  Biso   1.000  C
  C429     1.0000 0.06650  0.76680  0.86520  Biso   1.000  C
  C430     1.0000 0.93350  0.23320  0.86520  Biso   1.000  C
  C431     1.0000 0.76680  0.93350  0.86520  Biso   1.000  C
  C432     1.0000 0.23320  0.06650  0.86520  Biso   1.000  C
  H417     1.0000 0.41550  0.28940  0.59950  Biso   1.000  H
  H418     1.0000 0.58450  0.71060  0.59950  Biso   1.000  H
  H419     1.0000 0.71060  0.41550  0.59950  Biso   1.000  H
  H420     1.0000 0.28940  0.58450  0.59950  Biso   1.000  H
  H421     1.0000 0.58450  0.28940  0.40050  Biso   1.000  H
  H422     1.0000 0.41550  0.71060  0.40050  Biso   1.000  H
  H423     1.0000 0.28940  0.41550  0.40050  Biso   1.000  H
  H424     1.0000 0.71060  0.58450  0.40050  Biso   1.000  H
  H425     1.0000 0.91550  0.78940  0.09950  Biso   1.000  H
  H426     1.0000 0.08450  0.21060  0.09950  Biso   1.000  H
  H427     1.0000 0.21060  0.91550  0.09950  Biso   1.000  H
  H428     1.0000 0.78940  0.08450  0.09950  Biso   1.000  H
  H429     1.0000 0.08450  0.78940  0.90050  Biso   1.000  H
  H430     1.0000 0.91550  0.21060  0.90050  Biso   1.000  H
  H431     1.0000 0.78940  0.91550  0.90050  Biso   1.000  H
  H432     1.0000 0.21060  0.08450  0.90050  Biso   1.000  H
  N225     1.0000 0.47060  0.22870  0.61120  Biso   1.000  N
  N226     1.0000 0.52940  0.77130  0.61120  Biso   1.000  N
  N227     1.0000 0.77130  0.47060  0.61120  Biso   1.000  N
  N228     1.0000 0.22870  0.52940  0.61120  Biso   1.000  N
  N229     1.0000 0.52940  0.22870  0.38880  Biso   1.000  N
  N230     1.0000 0.47060  0.77130  0.38880  Biso   1.000  N
  N231     1.0000 0.22870  0.47060  0.38880  Biso   1.000  N
  N232     1.0000 0.77130  0.52940  0.38880  Biso   1.000  N
  N233     1.0000 0.97060  0.72870  0.11120  Biso   1.000  N
  N234     1.0000 0.02940  0.27130  0.11120  Biso   1.000  N
  N235     1.0000 0.27130  0.97060  0.11120  Biso   1.000  N
  N236     1.0000 0.72870  0.02940  0.11120  Biso   1.000  N
  N237     1.0000 0.02940  0.72870  0.88880  Biso   1.000  N
  N238     1.0000 0.97060  0.27130  0.88880  Biso   1.000  N
  N239     1.0000 0.72870  0.97060  0.88880  Biso   1.000  N
  N240     1.0000 0.27130  0.02940  0.88880  Biso   1.000  N
  C433     1.0000 0.49420  0.19330  0.65950  Biso   1.000  C
  C434     1.0000 0.50580  0.80670  0.65950  Biso   1.000  C
  C435     1.0000 0.80670  0.49420  0.65950  Biso   1.000  C
  C436     1.0000 0.19330  0.50580  0.65950  Biso   1.000  C
  C437     1.0000 0.50580  0.19330  0.34050  Biso   1.000  C
  C438     1.0000 0.49420  0.80670  0.34050  Biso   1.000  C
  C439     1.0000 0.19330  0.49420  0.34050  Biso   1.000  C
  C440     1.0000 0.80670  0.50580  0.34050  Biso   1.000  C
  C441     1.0000 0.99420  0.69330  0.15950  Biso   1.000  C
  C442     1.0000 0.00580  0.30670  0.15950  Biso   1.000  C
  C443     1.0000 0.30670  0.99420  0.15950  Biso   1.000  C
  C444     1.0000 0.69330  0.00580  0.15950  Biso   1.000  C
  C445     1.0000 0.00580  0.69330  0.84050  Biso   1.000  C
  C446     1.0000 0.99420  0.30670  0.84050  Biso   1.000  C
  C447     1.0000 0.69330  0.99420  0.84050  Biso   1.000  C
  C448     1.0000 0.30670  0.00580  0.84050  Biso   1.000  C
  H433     1.0000 0.51790  0.16490  0.64180  Biso   1.000  H
  H434     1.0000 0.48210  0.83510  0.64180  Biso   1.000  H
  H435     1.0000 0.83510  0.51790  0.64180  Biso   1.000  H
  H436     1.0000 0.16490  0.48210  0.64180  Biso   1.000  H
  H437     1.0000 0.48210  0.16490  0.35820  Biso   1.000  H
  H438     1.0000 0.51790  0.83510  0.35820  Biso   1.000  H
  H439     1.0000 0.16490  0.51790  0.35820  Biso   1.000  H
  H440     1.0000 0.83510  0.48210  0.35820  Biso   1.000  H
  H441     1.0000 0.01790  0.66490  0.14180  Biso   1.000  H
  H442     1.0000 0.98210  0.33510  0.14180  Biso   1.000  H
  H443     1.0000 0.33510  0.01790  0.14180  Biso   1.000  H
  H444     1.0000 0.66490  0.98210  0.14180  Biso   1.000  H
  H445     1.0000 0.98210  0.66490  0.85820  Biso   1.000  H
  H446     1.0000 0.01790  0.33510  0.85820  Biso   1.000  H
  H447     1.0000 0.66490  0.01790  0.85820  Biso   1.000  H
  H448     1.0000 0.33510  0.98210  0.85820  Biso   1.000  H
  C449     1.0000 0.48430  0.19760  0.73450  Biso   1.000  C
  C450     1.0000 0.51570  0.80240  0.73450  Biso   1.000  C
  C451     1.0000 0.80240  0.48430  0.73450  Biso   1.000  C
  C452     1.0000 0.19760  0.51570  0.73450  Biso   1.000  C
  C453     1.0000 0.51570  0.19760  0.26550  Biso   1.000  C
  C454     1.0000 0.48430  0.80240  0.26550  Biso   1.000  C
  C455     1.0000 0.19760  0.48430  0.26550  Biso   1.000  C
  C456     1.0000 0.80240  0.51570  0.26550  Biso   1.000  C
  C457     1.0000 0.98430  0.69760  0.23450  Biso   1.000  C
  C458     1.0000 0.01570  0.30240  0.23450  Biso   1.000  C
  C459     1.0000 0.30240  0.98430  0.23450  Biso   1.000  C
  C460     1.0000 0.69760  0.01570  0.23450  Biso   1.000  C
  C461     1.0000 0.01570  0.69760  0.76550  Biso   1.000  C
  C462     1.0000 0.98430  0.30240  0.76550  Biso   1.000  C
  C463     1.0000 0.69760  0.98430  0.76550  Biso   1.000  C
  C464     1.0000 0.30240  0.01570  0.76550  Biso   1.000  C
  H449     1.0000 0.50280  0.17420  0.76840  Biso   1.000  H
  H450     1.0000 0.49720  0.82580  0.76840  Biso   1.000  H
  H451     1.0000 0.82580  0.50280  0.76840  Biso   1.000  H
  H452     1.0000 0.17420  0.49720  0.76840  Biso   1.000  H
  H453     1.0000 0.49720  0.17420  0.23160  Biso   1.000  H
  H454     1.0000 0.50280  0.82580  0.23160  Biso   1.000  H
  H455     1.0000 0.17420  0.50280  0.23160  Biso   1.000  H
  H456     1.0000 0.82580  0.49720  0.23160  Biso   1.000  H
  H457     1.0000 0.00280  0.67420  0.26840  Biso   1.000  H
  H458     1.0000 0.99720  0.32580  0.26840  Biso   1.000  H
  H459     1.0000 0.32580  0.00280  0.26840  Biso   1.000  H
  H460     1.0000 0.67420  0.99720  0.26840  Biso   1.000  H
  H461     1.0000 0.99720  0.67420  0.73160  Biso   1.000  H
  H462     1.0000 0.00280  0.32580  0.73160  Biso   1.000  H
  H463     1.0000 0.67420  0.00280  0.73160  Biso   1.000  H
  H464     1.0000 0.32580  0.99720  0.73160  Biso   1.000  H
  C465     1.0000 0.44630  0.23740  0.75810  Biso   1.000  C
  C466     1.0000 0.55370  0.76260  0.75810  Biso   1.000  C
  C467     1.0000 0.76260  0.44630  0.75810  Biso   1.000  C
  C468     1.0000 0.23740  0.55370  0.75810  Biso   1.000  C
  C469     1.0000 0.55370  0.23740  0.24190  Biso   1.000  C
  C470     1.0000 0.44630  0.76260  0.24190  Biso   1.000  C
  C471     1.0000 0.23740  0.44630  0.24190  Biso   1.000  C
  C472     1.0000 0.76260  0.55370  0.24190  Biso   1.000  C
  C473     1.0000 0.94630  0.73740  0.25810  Biso   1.000  C
  C474     1.0000 0.05370  0.26260  0.25810  Biso   1.000  C
  C475     1.0000 0.26260  0.94630  0.25810  Biso   1.000  C
  C476     1.0000 0.73740  0.05370  0.25810  Biso   1.000  C
  C477     1.0000 0.05370  0.73740  0.74190  Biso   1.000  C
  C478     1.0000 0.94630  0.26260  0.74190  Biso   1.000  C
  C479     1.0000 0.73740  0.94630  0.74190  Biso   1.000  C
  C480     1.0000 0.26260  0.05370  0.74190  Biso   1.000  C
  H465     1.0000 0.43750  0.23960  0.80870  Biso   1.000  H
  H466     1.0000 0.56250  0.76040  0.80870  Biso   1.000  H
  H467     1.0000 0.76040  0.43750  0.80870  Biso   1.000  H
  H468     1.0000 0.23960  0.56250  0.80870  Biso   1.000  H
  H469     1.0000 0.56250  0.23960  0.19130  Biso   1.000  H
  H470     1.0000 0.43750  0.76040  0.19130  Biso   1.000  H
  H471     1.0000 0.23960  0.43750  0.19130  Biso   1.000  H
  H472     1.0000 0.76040  0.56250  0.19130  Biso   1.000  H
  H473     1.0000 0.93750  0.73960  0.30870  Biso   1.000  H
  H474     1.0000 0.06250  0.26040  0.30870  Biso   1.000  H
  H475     1.0000 0.26040  0.93750  0.30870  Biso   1.000  H
  H476     1.0000 0.73960  0.06250  0.30870  Biso   1.000  H
  H477     1.0000 0.06250  0.73960  0.69130  Biso   1.000  H
  H478     1.0000 0.93750  0.26040  0.69130  Biso   1.000  H
  H479     1.0000 0.73960  0.93750  0.69130  Biso   1.000  H
  H480     1.0000 0.26040  0.06250  0.69130  Biso   1.000  H
  N241     1.0000 0.35680  0.32460  0.93940  Biso   1.000  N
  N242     1.0000 0.64320  0.67540  0.93940  Biso   1.000  N
  N243     1.0000 0.67540  0.35680  0.93940  Biso   1.000  N
  N244     1.0000 0.32460  0.64320  0.93940  Biso   1.000  N
  N245     1.0000 0.64320  0.32460  0.06060  Biso   1.000  N
  N246     1.0000 0.35680  0.67540  0.06060  Biso   1.000  N
  N247     1.0000 0.32460  0.35680  0.06060  Biso   1.000  N
  N248     1.0000 0.67540  0.64320  0.06060  Biso   1.000  N
  N249     1.0000 0.85680  0.82460  0.43940  Biso   1.000  N
  N250     1.0000 0.14320  0.17540  0.43940  Biso   1.000  N
  N251     1.0000 0.17540  0.85680  0.43940  Biso   1.000  N
  N252     1.0000 0.82460  0.14320  0.43940  Biso   1.000  N
  N253     1.0000 0.14320  0.82460  0.56060  Biso   1.000  N
  N254     1.0000 0.85680  0.17540  0.56060  Biso   1.000  N
  N255     1.0000 0.82460  0.85680  0.56060  Biso   1.000  N
  N256     1.0000 0.17540  0.14320  0.56060  Biso   1.000  N
  O269     1.0000 0.38370  0.28860  0.99550  Biso   1.000  O
  O270     1.0000 0.61630  0.71140  0.99550  Biso   1.000  O
  O271     1.0000 0.71140  0.38370  0.99550  Biso   1.000  O
  O272     1.0000 0.28860  0.61630  0.99550  Biso   1.000  O
  O273     1.0000 0.61630  0.28860  0.00450  Biso   1.000  O
  O274     1.0000 0.38370  0.71140  0.00450  Biso   1.000  O
  O275     1.0000 0.28860  0.38370  0.00450  Biso   1.000  O
  O276     1.0000 0.71140  0.61630  0.00450  Biso   1.000  O
  O277     1.0000 0.88370  0.78860  0.49550  Biso   1.000  O
  O278     1.0000 0.11630  0.21140  0.49550  Biso   1.000  O
  O279     1.0000 0.21140  0.88370  0.49550  Biso   1.000  O
  O280     1.0000 0.78860  0.11630  0.49550  Biso   1.000  O
  O281     1.0000 0.11630  0.78860  0.50450  Biso   1.000  O
  O282     1.0000 0.88370  0.21140  0.50450  Biso   1.000  O
  O283     1.0000 0.78860  0.88370  0.50450  Biso   1.000  O
  O284     1.0000 0.21140  0.11630  0.50450  Biso   1.000  O
  O285     1.0000 0.33510  0.29990  0.87020  Biso   1.000  O
  O286     1.0000 0.66490  0.70010  0.87020  Biso   1.000  O
  O287     1.0000 0.70010  0.33510  0.87020  Biso   1.000  O
  O288     1.0000 0.29990  0.66490  0.87020  Biso   1.000  O
  O289     1.0000 0.66490  0.29990  0.12980  Biso   1.000  O
  O290     1.0000 0.33510  0.70010  0.12980  Biso   1.000  O
  O291     1.0000 0.29990  0.33510  0.12980  Biso   1.000  O
  O292     1.0000 0.70010  0.66490  0.12980  Biso   1.000  O
  O293     1.0000 0.83510  0.79990  0.37020  Biso   1.000  O
  O294     1.0000 0.16490  0.20010  0.37020  Biso   1.000  O
  O295     1.0000 0.20010  0.83510  0.37020  Biso   1.000  O
  O296     1.0000 0.79990  0.16490  0.37020  Biso   1.000  O
  O297     1.0000 0.16490  0.79990  0.62980  Biso   1.000  O
  O298     1.0000 0.83510  0.20010  0.62980  Biso   1.000  O
  O299     1.0000 0.79990  0.83510  0.62980  Biso   1.000  O
  O300     1.0000 0.20010  0.16490  0.62980  Biso   1.000  O
  O301     1.0000 0.35170  0.38520  0.95280  Biso   1.000  O
  O302     1.0000 0.64830  0.61480  0.95280  Biso   1.000  O
  O303     1.0000 0.61480  0.35170  0.95280  Biso   1.000  O
  O304     1.0000 0.38520  0.64830  0.95280  Biso   1.000  O
  O305     1.0000 0.64830  0.38520  0.04720  Biso   1.000  O
  O306     1.0000 0.35170  0.61480  0.04720  Biso   1.000  O
  O307     1.0000 0.38520  0.35170  0.04720  Biso   1.000  O
  O308     1.0000 0.61480  0.64830  0.04720  Biso   1.000  O
  O309     1.0000 0.85170  0.88520  0.45280  Biso   1.000  O
  O310     1.0000 0.14830  0.11480  0.45280  Biso   1.000  O
  O311     1.0000 0.11480  0.85170  0.45280  Biso   1.000  O
  O312     1.0000 0.88520  0.14830  0.45280  Biso   1.000  O
  O313     1.0000 0.14830  0.88520  0.54720  Biso   1.000  O
  O314     1.0000 0.85170  0.11480  0.54720  Biso   1.000  O
  O315     1.0000 0.88520  0.85170  0.54720  Biso   1.000  O
  O316     1.0000 0.11480  0.14830  0.54720  Biso   1.000  O
  O317     1.0000 0.36670  0.29090  0.89420  Biso   1.000  O
  O318     1.0000 0.63330  0.70910  0.89420  Biso   1.000  O
  O319     1.0000 0.70910  0.36670  0.89420  Biso   1.000  O
  O320     1.0000 0.29090  0.63330  0.89420  Biso   1.000  O
  O321     1.0000 0.63330  0.29090  0.10580  Biso   1.000  O
  O322     1.0000 0.36670  0.70910  0.10580  Biso   1.000  O
  O323     1.0000 0.29090  0.36670  0.10580  Biso   1.000  O
  O324     1.0000 0.70910  0.63330  0.10580  Biso   1.000  O
  O325     1.0000 0.86670  0.79090  0.39420  Biso   1.000  O
  O326     1.0000 0.13330  0.20910  0.39420  Biso   1.000  O
  O327     1.0000 0.20910  0.86670  0.39420  Biso   1.000  O
  O328     1.0000 0.79090  0.13330  0.39420  Biso   1.000  O
  O329     1.0000 0.13330  0.79090  0.60580  Biso   1.000  O
  O330     1.0000 0.86670  0.20910  0.60580  Biso   1.000  O
  O331     1.0000 0.79090  0.86670  0.60580  Biso   1.000  O
  O332     1.0000 0.20910  0.13330  0.60580  Biso   1.000  O
  O333     1.0000 0.44240  0.19800  0.94930  Biso   1.000  O
  O334     1.0000 0.55760  0.80200  0.94930  Biso   1.000  O
  O335     1.0000 0.80200  0.44240  0.94930  Biso   1.000  O
  O336     1.0000 0.19800  0.55760  0.94930  Biso   1.000  O
  O337     1.0000 0.55760  0.19800  0.05070  Biso   1.000  O
  O338     1.0000 0.44240  0.80200  0.05070  Biso   1.000  O
  O339     1.0000 0.19800  0.44240  0.05070  Biso   1.000  O
  O340     1.0000 0.80200  0.55760  0.05070  Biso   1.000  O
  O341     1.0000 0.94240  0.69800  0.44930  Biso   1.000  O
  O342     1.0000 0.05760  0.30200  0.44930  Biso   1.000  O
  O343     1.0000 0.30200  0.94240  0.44930  Biso   1.000  O
  O344     1.0000 0.69800  0.05760  0.44930  Biso   1.000  O
  O345     1.0000 0.05760  0.69800  0.55070  Biso   1.000  O
  O346     1.0000 0.94240  0.30200  0.55070  Biso   1.000  O
  O347     1.0000 0.69800  0.94240  0.55070  Biso   1.000  O
  O348     1.0000 0.30200  0.05760  0.55070  Biso   1.000  O
