data_image0
_cell_length_a       15.219
_cell_length_b       75.54
_cell_length_c       14.401
_cell_angle_alpha    90
_cell_angle_beta     90
_cell_angle_gamma    90

_symmetry_space_group_name_H-M    "P 1"
_symmetry_int_tables_number       1

loop_
  _symmetry_equiv_pos_as_xyz
  'x, y, z'

loop_
  _atom_site_label
  _atom_site_occupancy
  _atom_site_fract_x
  _atom_site_fract_y
  _atom_site_fract_z
  _atom_site_thermal_displace_type
  _atom_site_B_iso_or_equiv
  _atom_site_type_symbol
  Cu1      1.0000 0.97498  0.87448  0.10627  Biso   1.000  Cu
  Cu2      1.0000 0.52502  0.12552  0.60627  Biso   1.000  Cu
  Cu3      1.0000 0.47498  0.62552  0.39373  Biso   1.000  Cu
  Cu4      1.0000 0.02502  0.37448  0.89373  Biso   1.000  Cu
  Cu5      1.0000 0.02502  0.12552  0.89373  Biso   1.000  Cu
  Cu6      1.0000 0.47498  0.87448  0.39373  Biso   1.000  Cu
  Cu7      1.0000 0.52502  0.37448  0.60627  Biso   1.000  Cu
  Cu8      1.0000 0.97498  0.62552  0.10627  Biso   1.000  Cu
  C1       1.0000 0.59310  0.99852  0.80240  Biso   1.000  C
  C2       1.0000 0.90690  0.00148  0.30240  Biso   1.000  C
  C3       1.0000 0.09310  0.50148  0.69760  Biso   1.000  C
  C4       1.0000 0.40690  0.49852  0.19760  Biso   1.000  C
  C5       1.0000 0.40690  0.00148  0.19760  Biso   1.000  C
  C6       1.0000 0.09310  0.99852  0.69760  Biso   1.000  C
  C7       1.0000 0.90690  0.49852  0.30240  Biso   1.000  C
  C8       1.0000 0.59310  0.50148  0.80240  Biso   1.000  C
  H1       1.0000 0.52960  0.99860  0.78720  Biso   1.000  H
  H2       1.0000 0.97040  0.00140  0.28720  Biso   1.000  H
  H3       1.0000 0.02960  0.50140  0.71280  Biso   1.000  H
  H4       1.0000 0.47040  0.49860  0.21280  Biso   1.000  H
  H5       1.0000 0.47040  0.00140  0.21280  Biso   1.000  H
  H6       1.0000 0.02960  0.99860  0.71280  Biso   1.000  H
  H7       1.0000 0.97040  0.49860  0.28720  Biso   1.000  H
  H8       1.0000 0.52960  0.50140  0.78720  Biso   1.000  H
  H9       1.0000 0.62650  0.99820  0.74350  Biso   1.000  H
  H10      1.0000 0.87350  0.00180  0.24350  Biso   1.000  H
  H11      1.0000 0.12650  0.50180  0.75650  Biso   1.000  H
  H12      1.0000 0.37350  0.49820  0.25650  Biso   1.000  H
  H13      1.0000 0.37350  0.00180  0.25650  Biso   1.000  H
  H14      1.0000 0.12650  0.99820  0.75650  Biso   1.000  H
  H15      1.0000 0.87350  0.49820  0.24350  Biso   1.000  H
  H16      1.0000 0.62650  0.50180  0.74350  Biso   1.000  H
  Cu9      1.0000 0.02648  0.87381  0.93252  Biso   1.000  Cu
  Cu10     1.0000 0.47352  0.12619  0.43252  Biso   1.000  Cu
  Cu11     1.0000 0.52648  0.62619  0.56748  Biso   1.000  Cu
  Cu12     1.0000 0.97352  0.37381  0.06748  Biso   1.000  Cu
  Cu13     1.0000 0.97352  0.12619  0.06748  Biso   1.000  Cu
  Cu14     1.0000 0.52648  0.87381  0.56748  Biso   1.000  Cu
  Cu15     1.0000 0.47352  0.37381  0.43252  Biso   1.000  Cu
  Cu16     1.0000 0.02648  0.62619  0.93252  Biso   1.000  Cu
  Cu17     1.0000 0.49889  0.75000  0.01943  Biso   1.000  Cu
  Cu18     1.0000 0.00111  0.25000  0.51943  Biso   1.000  Cu
  Cu19     1.0000 0.99889  0.75000  0.48057  Biso   1.000  Cu
  Cu20     1.0000 0.50111  0.25000  0.98057  Biso   1.000  Cu
  Cu21     1.0000 0.50000  0.00000  0.00000  Biso   1.000  Cu
  Cu22     1.0000 0.00000  0.00000  0.50000  Biso   1.000  Cu
  Cu23     1.0000 0.00000  0.50000  0.50000  Biso   1.000  Cu
  Cu24     1.0000 0.50000  0.50000  0.00000  Biso   1.000  Cu
  N1       1.0000 0.61362  0.98310  0.85752  Biso   1.000  N
  N2       1.0000 0.88638  0.01690  0.35752  Biso   1.000  N
  N3       1.0000 0.11362  0.51690  0.64248  Biso   1.000  N
  N4       1.0000 0.38638  0.48310  0.14248  Biso   1.000  N
  N5       1.0000 0.38638  0.01690  0.14248  Biso   1.000  N
  N6       1.0000 0.11362  0.98310  0.64248  Biso   1.000  N
  N7       1.0000 0.88638  0.48310  0.35752  Biso   1.000  N
  N8       1.0000 0.61362  0.51690  0.85752  Biso   1.000  N
  N9       1.0000 0.57196  0.98077  0.94023  Biso   1.000  N
  N10      1.0000 0.92804  0.01923  0.44023  Biso   1.000  N
  N11      1.0000 0.07196  0.51923  0.55977  Biso   1.000  N
  N12      1.0000 0.42804  0.48077  0.05977  Biso   1.000  N
  N13      1.0000 0.42804  0.01923  0.05977  Biso   1.000  N
  N14      1.0000 0.07196  0.98077  0.55977  Biso   1.000  N
  N15      1.0000 0.92804  0.48077  0.44023  Biso   1.000  N
  N16      1.0000 0.57196  0.51923  0.94023  Biso   1.000  N
  C9       1.0000 0.60630  0.96606  0.97580  Biso   1.000  C
  C10      1.0000 0.89370  0.03394  0.47580  Biso   1.000  C
  C11      1.0000 0.10630  0.53394  0.52420  Biso   1.000  C
  C12      1.0000 0.39370  0.46606  0.02420  Biso   1.000  C
  C13      1.0000 0.39370  0.03394  0.02420  Biso   1.000  C
  C14      1.0000 0.10630  0.96606  0.52420  Biso   1.000  C
  C15      1.0000 0.89370  0.46606  0.47580  Biso   1.000  C
  C16      1.0000 0.60630  0.53394  0.97580  Biso   1.000  C
  H17      1.0000 0.58980  0.96110  0.03380  Biso   1.000  H
  H18      1.0000 0.91020  0.03890  0.53380  Biso   1.000  H
  H19      1.0000 0.08980  0.53890  0.46620  Biso   1.000  H
  H20      1.0000 0.41020  0.46110  0.96620  Biso   1.000  H
  H21      1.0000 0.41020  0.03890  0.96620  Biso   1.000  H
  H22      1.0000 0.08980  0.96110  0.46620  Biso   1.000  H
  H23      1.0000 0.91020  0.46110  0.53380  Biso   1.000  H
  H24      1.0000 0.58980  0.53890  0.03380  Biso   1.000  H
  C17      1.0000 0.67040  0.95883  0.91590  Biso   1.000  C
  C18      1.0000 0.82960  0.04117  0.41590  Biso   1.000  C
  C19      1.0000 0.17040  0.54117  0.58410  Biso   1.000  C
  C20      1.0000 0.32960  0.45883  0.08410  Biso   1.000  C
  C21      1.0000 0.32960  0.04117  0.08410  Biso   1.000  C
  C22      1.0000 0.17040  0.95883  0.58410  Biso   1.000  C
  C23      1.0000 0.82960  0.45883  0.41590  Biso   1.000  C
  C24      1.0000 0.67040  0.54117  0.91590  Biso   1.000  C
  C25      1.0000 0.67340  0.97044  0.84160  Biso   1.000  C
  C26      1.0000 0.82660  0.02956  0.34160  Biso   1.000  C
  C27      1.0000 0.17340  0.52956  0.65840  Biso   1.000  C
  C28      1.0000 0.32660  0.47044  0.15840  Biso   1.000  C
  C29      1.0000 0.32660  0.02956  0.15840  Biso   1.000  C
  C30      1.0000 0.17340  0.97044  0.65840  Biso   1.000  C
  C31      1.0000 0.82660  0.47044  0.34160  Biso   1.000  C
  C32      1.0000 0.67340  0.52956  0.84160  Biso   1.000  C
  H25      1.0000 0.71090  0.96960  0.78900  Biso   1.000  H
  H26      1.0000 0.78910  0.03040  0.28900  Biso   1.000  H
  H27      1.0000 0.21090  0.53040  0.71100  Biso   1.000  H
  H28      1.0000 0.28910  0.46960  0.21100  Biso   1.000  H
  H29      1.0000 0.28910  0.03040  0.21100  Biso   1.000  H
  H30      1.0000 0.21090  0.96960  0.71100  Biso   1.000  H
  H31      1.0000 0.78910  0.46960  0.28900  Biso   1.000  H
  H32      1.0000 0.71090  0.53040  0.78900  Biso   1.000  H
  N17      1.0000 0.61565  0.01440  0.85379  Biso   1.000  N
  N18      1.0000 0.88435  0.98560  0.35379  Biso   1.000  N
  N19      1.0000 0.11565  0.48560  0.64621  Biso   1.000  N
  N20      1.0000 0.38435  0.51440  0.14621  Biso   1.000  N
  N21      1.0000 0.38435  0.98560  0.14621  Biso   1.000  N
  N22      1.0000 0.11565  0.01440  0.64621  Biso   1.000  N
  N23      1.0000 0.88435  0.51440  0.35379  Biso   1.000  N
  N24      1.0000 0.61565  0.48560  0.85379  Biso   1.000  N
  N25      1.0000 0.57370  0.01808  0.93433  Biso   1.000  N
  N26      1.0000 0.92630  0.98192  0.43433  Biso   1.000  N
  N27      1.0000 0.07370  0.48192  0.56567  Biso   1.000  N
  N28      1.0000 0.42630  0.51808  0.06567  Biso   1.000  N
  N29      1.0000 0.42630  0.98192  0.06567  Biso   1.000  N
  N30      1.0000 0.07370  0.01808  0.56567  Biso   1.000  N
  N31      1.0000 0.92630  0.51808  0.43433  Biso   1.000  N
  N32      1.0000 0.57370  0.48192  0.93433  Biso   1.000  N
  C33      1.0000 0.60850  0.03299  0.96560  Biso   1.000  C
  C34      1.0000 0.89150  0.96701  0.46560  Biso   1.000  C
  C35      1.0000 0.10850  0.46701  0.53440  Biso   1.000  C
  C36      1.0000 0.39150  0.53299  0.03440  Biso   1.000  C
  C37      1.0000 0.39150  0.96701  0.03440  Biso   1.000  C
  C38      1.0000 0.10850  0.03299  0.53440  Biso   1.000  C
  C39      1.0000 0.89150  0.53299  0.46560  Biso   1.000  C
  C40      1.0000 0.60850  0.46701  0.96560  Biso   1.000  C
  H33      1.0000 0.59170  0.03870  0.02150  Biso   1.000  H
  H34      1.0000 0.90830  0.96130  0.52150  Biso   1.000  H
  H35      1.0000 0.09170  0.46130  0.47850  Biso   1.000  H
  H36      1.0000 0.40830  0.53870  0.97850  Biso   1.000  H
  H37      1.0000 0.40830  0.96130  0.97850  Biso   1.000  H
  H38      1.0000 0.09170  0.03870  0.47850  Biso   1.000  H
  H39      1.0000 0.90830  0.53870  0.52150  Biso   1.000  H
  H40      1.0000 0.59170  0.46130  0.02150  Biso   1.000  H
  C41      1.0000 0.67400  0.03918  0.90430  Biso   1.000  C
  C42      1.0000 0.82600  0.96082  0.40430  Biso   1.000  C
  C43      1.0000 0.17400  0.46082  0.59570  Biso   1.000  C
  C44      1.0000 0.32600  0.53918  0.09570  Biso   1.000  C
  C45      1.0000 0.32600  0.96082  0.09570  Biso   1.000  C
  C46      1.0000 0.17400  0.03918  0.59570  Biso   1.000  C
  C47      1.0000 0.82600  0.53918  0.40430  Biso   1.000  C
  C48      1.0000 0.67400  0.46082  0.90430  Biso   1.000  C
  C49      1.0000 0.67710  0.02679  0.83430  Biso   1.000  C
  C50      1.0000 0.82290  0.97321  0.33430  Biso   1.000  C
  C51      1.0000 0.17710  0.47321  0.66570  Biso   1.000  C
  C52      1.0000 0.32290  0.52679  0.16570  Biso   1.000  C
  C53      1.0000 0.32290  0.97321  0.16570  Biso   1.000  C
  C54      1.0000 0.17710  0.02679  0.66570  Biso   1.000  C
  C55      1.0000 0.82290  0.52679  0.33430  Biso   1.000  C
  C56      1.0000 0.67710  0.47321  0.83430  Biso   1.000  C
  H41      1.0000 0.71520  0.02690  0.78210  Biso   1.000  H
  H42      1.0000 0.78480  0.97310  0.28210  Biso   1.000  H
  H43      1.0000 0.21520  0.47310  0.71790  Biso   1.000  H
  H44      1.0000 0.28480  0.52690  0.21790  Biso   1.000  H
  H45      1.0000 0.28480  0.97310  0.21790  Biso   1.000  H
  H46      1.0000 0.21520  0.02690  0.71790  Biso   1.000  H
  H47      1.0000 0.78480  0.52690  0.28210  Biso   1.000  H
  H48      1.0000 0.71520  0.47310  0.78210  Biso   1.000  H
  C57      1.0000 0.72400  0.94294  0.93060  Biso   1.000  C
  C58      1.0000 0.77600  0.05706  0.43060  Biso   1.000  C
  C59      1.0000 0.22400  0.55706  0.56940  Biso   1.000  C
  C60      1.0000 0.27600  0.44294  0.06940  Biso   1.000  C
  C61      1.0000 0.27600  0.05706  0.06940  Biso   1.000  C
  C62      1.0000 0.22400  0.94294  0.56940  Biso   1.000  C
  C63      1.0000 0.77600  0.44294  0.43060  Biso   1.000  C
  C64      1.0000 0.72400  0.55706  0.93060  Biso   1.000  C
  C65      1.0000 0.78920  0.93832  0.86670  Biso   1.000  C
  C66      1.0000 0.71080  0.06168  0.36670  Biso   1.000  C
  C67      1.0000 0.28920  0.56168  0.63330  Biso   1.000  C
  C68      1.0000 0.21080  0.43832  0.13330  Biso   1.000  C
  C69      1.0000 0.21080  0.06168  0.13330  Biso   1.000  C
  C70      1.0000 0.28920  0.93832  0.63330  Biso   1.000  C
  C71      1.0000 0.71080  0.43832  0.36670  Biso   1.000  C
  C72      1.0000 0.78920  0.56168  0.86670  Biso   1.000  C
  H49      1.0000 0.79720  0.94520  0.81220  Biso   1.000  H
  H50      1.0000 0.70280  0.05480  0.31220  Biso   1.000  H
  H51      1.0000 0.29720  0.55480  0.68780  Biso   1.000  H
  H52      1.0000 0.20280  0.44520  0.18780  Biso   1.000  H
  H53      1.0000 0.20280  0.05480  0.18780  Biso   1.000  H
  H54      1.0000 0.29720  0.94520  0.68780  Biso   1.000  H
  H55      1.0000 0.70280  0.44520  0.31220  Biso   1.000  H
  H56      1.0000 0.79720  0.55480  0.81220  Biso   1.000  H
  C73      1.0000 0.84240  0.92371  0.88230  Biso   1.000  C
  C74      1.0000 0.65760  0.07629  0.38230  Biso   1.000  C
  C75      1.0000 0.34240  0.57629  0.61770  Biso   1.000  C
  C76      1.0000 0.15760  0.42371  0.11770  Biso   1.000  C
  C77      1.0000 0.15760  0.07629  0.11770  Biso   1.000  C
  C78      1.0000 0.34240  0.92371  0.61770  Biso   1.000  C
  C79      1.0000 0.65760  0.42371  0.38230  Biso   1.000  C
  C80      1.0000 0.84240  0.57629  0.88230  Biso   1.000  C
  H57      1.0000 0.88690  0.92080  0.83860  Biso   1.000  H
  H58      1.0000 0.61310  0.07920  0.33860  Biso   1.000  H
  H59      1.0000 0.38690  0.57920  0.66140  Biso   1.000  H
  H60      1.0000 0.11310  0.42080  0.16140  Biso   1.000  H
  H61      1.0000 0.11310  0.07920  0.16140  Biso   1.000  H
  H62      1.0000 0.38690  0.92080  0.66140  Biso   1.000  H
  H63      1.0000 0.61310  0.42080  0.33860  Biso   1.000  H
  H64      1.0000 0.88690  0.57920  0.83860  Biso   1.000  H
  C81      1.0000 0.83140  0.91329  0.96080  Biso   1.000  C
  C82      1.0000 0.66860  0.08671  0.46080  Biso   1.000  C
  C83      1.0000 0.33140  0.58671  0.53920  Biso   1.000  C
  C84      1.0000 0.16860  0.41329  0.03920  Biso   1.000  C
  C85      1.0000 0.16860  0.08671  0.03920  Biso   1.000  C
  C86      1.0000 0.33140  0.91329  0.53920  Biso   1.000  C
  C87      1.0000 0.66860  0.41329  0.46080  Biso   1.000  C
  C88      1.0000 0.83140  0.58671  0.96080  Biso   1.000  C
  C89      1.0000 0.76680  0.91780  0.02410  Biso   1.000  C
  C90      1.0000 0.73320  0.08220  0.52410  Biso   1.000  C
  C91      1.0000 0.26680  0.58220  0.47590  Biso   1.000  C
  C92      1.0000 0.23320  0.41780  0.97590  Biso   1.000  C
  C93      1.0000 0.23320  0.08220  0.97590  Biso   1.000  C
  C94      1.0000 0.26680  0.91780  0.47590  Biso   1.000  C
  C95      1.0000 0.73320  0.41780  0.52410  Biso   1.000  C
  C96      1.0000 0.76680  0.58220  0.02410  Biso   1.000  C
  H65      1.0000 0.75900  0.91080  0.07830  Biso   1.000  H
  H66      1.0000 0.74100  0.08920  0.57830  Biso   1.000  H
  H67      1.0000 0.25900  0.58920  0.42170  Biso   1.000  H
  H68      1.0000 0.24100  0.41080  0.92170  Biso   1.000  H
  H69      1.0000 0.24100  0.08920  0.92170  Biso   1.000  H
  H70      1.0000 0.25900  0.91080  0.42170  Biso   1.000  H
  H71      1.0000 0.74100  0.41080  0.57830  Biso   1.000  H
  H72      1.0000 0.75900  0.58920  0.07830  Biso   1.000  H
  C97      1.0000 0.71320  0.93238  0.00940  Biso   1.000  C
  C98      1.0000 0.78680  0.06762  0.50940  Biso   1.000  C
  C99      1.0000 0.21320  0.56762  0.49060  Biso   1.000  C
  C100     1.0000 0.28680  0.43238  0.99060  Biso   1.000  C
  C101     1.0000 0.28680  0.06762  0.99060  Biso   1.000  C
  C102     1.0000 0.21320  0.93238  0.49060  Biso   1.000  C
  C103     1.0000 0.78680  0.43238  0.50940  Biso   1.000  C
  C104     1.0000 0.71320  0.56762  0.00940  Biso   1.000  C
  H73      1.0000 0.66890  0.93520  0.05340  Biso   1.000  H
  H74      1.0000 0.83110  0.06480  0.55340  Biso   1.000  H
  H75      1.0000 0.16890  0.56480  0.44660  Biso   1.000  H
  H76      1.0000 0.33110  0.43520  0.94660  Biso   1.000  H
  H77      1.0000 0.33110  0.06480  0.94660  Biso   1.000  H
  H78      1.0000 0.16890  0.93520  0.44660  Biso   1.000  H
  H79      1.0000 0.83110  0.43520  0.55340  Biso   1.000  H
  H80      1.0000 0.66890  0.56480  0.05340  Biso   1.000  H
  C105     1.0000 0.89120  0.89800  0.97970  Biso   1.000  C
  C106     1.0000 0.60880  0.10200  0.47970  Biso   1.000  C
  C107     1.0000 0.39120  0.60200  0.52030  Biso   1.000  C
  C108     1.0000 0.10880  0.39800  0.02030  Biso   1.000  C
  C109     1.0000 0.10880  0.10200  0.02030  Biso   1.000  C
  C110     1.0000 0.39120  0.89800  0.52030  Biso   1.000  C
  C111     1.0000 0.60880  0.39800  0.47970  Biso   1.000  C
  C112     1.0000 0.89120  0.60200  0.97970  Biso   1.000  C
  O1       1.0000 0.94466  0.89361  0.91621  Biso   1.000  O
  O2       1.0000 0.55534  0.10639  0.41621  Biso   1.000  O
  O3       1.0000 0.44466  0.60639  0.58379  Biso   1.000  O
  O4       1.0000 0.05534  0.39361  0.08379  Biso   1.000  O
  O5       1.0000 0.05534  0.10639  0.08379  Biso   1.000  O
  O6       1.0000 0.44466  0.89361  0.58379  Biso   1.000  O
  O7       1.0000 0.55534  0.39361  0.41621  Biso   1.000  O
  O8       1.0000 0.94466  0.60639  0.91621  Biso   1.000  O
  O9       1.0000 0.88489  0.89063  0.05772  Biso   1.000  O
  O10      1.0000 0.61511  0.10937  0.55772  Biso   1.000  O
  O11      1.0000 0.38489  0.60937  0.44228  Biso   1.000  O
  O12      1.0000 0.11511  0.39063  0.94228  Biso   1.000  O
  O13      1.0000 0.11511  0.10937  0.94228  Biso   1.000  O
  O14      1.0000 0.38489  0.89063  0.44228  Biso   1.000  O
  O15      1.0000 0.61511  0.39063  0.55772  Biso   1.000  O
  O16      1.0000 0.88489  0.60937  0.05772  Biso   1.000  O
  C113     1.0000 0.72840  0.05514  0.91480  Biso   1.000  C
  C114     1.0000 0.77160  0.94486  0.41480  Biso   1.000  C
  C115     1.0000 0.22840  0.44486  0.58520  Biso   1.000  C
  C116     1.0000 0.27160  0.55514  0.08520  Biso   1.000  C
  C117     1.0000 0.27160  0.94486  0.08520  Biso   1.000  C
  C118     1.0000 0.22840  0.05514  0.58520  Biso   1.000  C
  C119     1.0000 0.77160  0.55514  0.41480  Biso   1.000  C
  C120     1.0000 0.72840  0.44486  0.91480  Biso   1.000  C
  C121     1.0000 0.71100  0.06739  0.98480  Biso   1.000  C
  C122     1.0000 0.78900  0.93261  0.48480  Biso   1.000  C
  C123     1.0000 0.21100  0.43261  0.51520  Biso   1.000  C
  C124     1.0000 0.28900  0.56739  0.01520  Biso   1.000  C
  C125     1.0000 0.28900  0.93261  0.01520  Biso   1.000  C
  C126     1.0000 0.21100  0.06739  0.51520  Biso   1.000  C
  C127     1.0000 0.78900  0.56739  0.48480  Biso   1.000  C
  C128     1.0000 0.71100  0.43261  0.98480  Biso   1.000  C
  H81      1.0000 0.66210  0.06570  0.02480  Biso   1.000  H
  H82      1.0000 0.83790  0.93430  0.52480  Biso   1.000  H
  H83      1.0000 0.16210  0.43430  0.47520  Biso   1.000  H
  H84      1.0000 0.33790  0.56570  0.97520  Biso   1.000  H
  H85      1.0000 0.33790  0.93430  0.97520  Biso   1.000  H
  H86      1.0000 0.16210  0.06570  0.47520  Biso   1.000  H
  H87      1.0000 0.83790  0.56570  0.52480  Biso   1.000  H
  H88      1.0000 0.66210  0.43430  0.02480  Biso   1.000  H
  C129     1.0000 0.76440  0.08209  0.99660  Biso   1.000  C
  C130     1.0000 0.73560  0.91791  0.49660  Biso   1.000  C
  C131     1.0000 0.26440  0.41791  0.50340  Biso   1.000  C
  C132     1.0000 0.23560  0.58209  0.00340  Biso   1.000  C
  C133     1.0000 0.23560  0.91791  0.00340  Biso   1.000  C
  C134     1.0000 0.26440  0.08209  0.50340  Biso   1.000  C
  C135     1.0000 0.73560  0.58209  0.49660  Biso   1.000  C
  C136     1.0000 0.76440  0.41791  0.99660  Biso   1.000  C
  H89      1.0000 0.75460  0.08990  0.04730  Biso   1.000  H
  H90      1.0000 0.74540  0.91010  0.54730  Biso   1.000  H
  H91      1.0000 0.25460  0.41010  0.45270  Biso   1.000  H
  H92      1.0000 0.24540  0.58990  0.95270  Biso   1.000  H
  H93      1.0000 0.24540  0.91010  0.95270  Biso   1.000  H
  H94      1.0000 0.25460  0.08990  0.45270  Biso   1.000  H
  H95      1.0000 0.74540  0.58990  0.54730  Biso   1.000  H
  H96      1.0000 0.75460  0.41010  0.04730  Biso   1.000  H
  C137     1.0000 0.83320  0.08546  0.93370  Biso   1.000  C
  C138     1.0000 0.66680  0.91454  0.43370  Biso   1.000  C
  C139     1.0000 0.33320  0.41454  0.56630  Biso   1.000  C
  C140     1.0000 0.16680  0.58546  0.06630  Biso   1.000  C
  C141     1.0000 0.16680  0.91454  0.06630  Biso   1.000  C
  C142     1.0000 0.33320  0.08546  0.56630  Biso   1.000  C
  C143     1.0000 0.66680  0.58546  0.43370  Biso   1.000  C
  C144     1.0000 0.83320  0.41454  0.93370  Biso   1.000  C
  C145     1.0000 0.84860  0.07383  0.86240  Biso   1.000  C
  C146     1.0000 0.65140  0.92617  0.36240  Biso   1.000  C
  C147     1.0000 0.34860  0.42617  0.63760  Biso   1.000  C
  C148     1.0000 0.15140  0.57383  0.13760  Biso   1.000  C
  C149     1.0000 0.15140  0.92617  0.13760  Biso   1.000  C
  C150     1.0000 0.34860  0.07383  0.63760  Biso   1.000  C
  C151     1.0000 0.65140  0.57383  0.36240  Biso   1.000  C
  C152     1.0000 0.84860  0.42617  0.86240  Biso   1.000  C
  H97      1.0000 0.89480  0.07610  0.81960  Biso   1.000  H
  H98      1.0000 0.60520  0.92390  0.31960  Biso   1.000  H
  H99      1.0000 0.39480  0.42390  0.68040  Biso   1.000  H
  H100     1.0000 0.10520  0.57610  0.18040  Biso   1.000  H
  H101     1.0000 0.10520  0.92390  0.18040  Biso   1.000  H
  H102     1.0000 0.39480  0.07610  0.68040  Biso   1.000  H
  H103     1.0000 0.60520  0.57610  0.31960  Biso   1.000  H
  H104     1.0000 0.89480  0.42390  0.81960  Biso   1.000  H
  C153     1.0000 0.79670  0.05864  0.85210  Biso   1.000  C
  C154     1.0000 0.70330  0.94136  0.35210  Biso   1.000  C
  C155     1.0000 0.29670  0.44136  0.64790  Biso   1.000  C
  C156     1.0000 0.20330  0.55864  0.14790  Biso   1.000  C
  C157     1.0000 0.20330  0.94136  0.14790  Biso   1.000  C
  C158     1.0000 0.29670  0.05864  0.64790  Biso   1.000  C
  C159     1.0000 0.70330  0.55864  0.35210  Biso   1.000  C
  C160     1.0000 0.79670  0.44136  0.85210  Biso   1.000  C
  H105     1.0000 0.80780  0.05070  0.80240  Biso   1.000  H
  H106     1.0000 0.69220  0.94930  0.30240  Biso   1.000  H
  H107     1.0000 0.30780  0.44930  0.69760  Biso   1.000  H
  H108     1.0000 0.19220  0.55070  0.19760  Biso   1.000  H
  H109     1.0000 0.19220  0.94930  0.19760  Biso   1.000  H
  H110     1.0000 0.30780  0.05070  0.69760  Biso   1.000  H
  H111     1.0000 0.69220  0.55070  0.30240  Biso   1.000  H
  H112     1.0000 0.80780  0.44930  0.80240  Biso   1.000  H
  C161     1.0000 0.89200  0.10112  0.94960  Biso   1.000  C
  C162     1.0000 0.60800  0.89888  0.44960  Biso   1.000  C
  C163     1.0000 0.39200  0.39888  0.55040  Biso   1.000  C
  C164     1.0000 0.10800  0.60112  0.05040  Biso   1.000  C
  C165     1.0000 0.10800  0.89888  0.05040  Biso   1.000  C
  C166     1.0000 0.39200  0.10112  0.55040  Biso   1.000  C
  C167     1.0000 0.60800  0.60112  0.44960  Biso   1.000  C
  C168     1.0000 0.89200  0.39888  0.94960  Biso   1.000  C
  O17      1.0000 0.88457  0.10916  0.02440  Biso   1.000  O
  O18      1.0000 0.61543  0.89084  0.52440  Biso   1.000  O
  O19      1.0000 0.38457  0.39084  0.47560  Biso   1.000  O
  O20      1.0000 0.11543  0.60916  0.97560  Biso   1.000  O
  O21      1.0000 0.11543  0.89084  0.97560  Biso   1.000  O
  O22      1.0000 0.38457  0.10916  0.47560  Biso   1.000  O
  O23      1.0000 0.61543  0.60916  0.52440  Biso   1.000  O
  O24      1.0000 0.88457  0.39084  0.02440  Biso   1.000  O
  O25      1.0000 0.94461  0.10505  0.88450  Biso   1.000  O
  O26      1.0000 0.55539  0.89495  0.38450  Biso   1.000  O
  O27      1.0000 0.44461  0.39495  0.61550  Biso   1.000  O
  O28      1.0000 0.05539  0.60505  0.11550  Biso   1.000  O
  O29      1.0000 0.05539  0.89495  0.11550  Biso   1.000  O
  O30      1.0000 0.44461  0.10505  0.61550  Biso   1.000  O
  O31      1.0000 0.55539  0.60505  0.38450  Biso   1.000  O
  O32      1.0000 0.94461  0.39495  0.88450  Biso   1.000  O
  C169     1.0000 0.57820  0.75000  0.81410  Biso   1.000  C
  C170     1.0000 0.92180  0.25000  0.31410  Biso   1.000  C
  C171     1.0000 0.07820  0.75000  0.68590  Biso   1.000  C
  C172     1.0000 0.42180  0.25000  0.18590  Biso   1.000  C
  H113     1.0000 0.60790  0.75000  0.75290  Biso   1.000  H
  H114     1.0000 0.89210  0.25000  0.25290  Biso   1.000  H
  H115     1.0000 0.10790  0.75000  0.74710  Biso   1.000  H
  H116     1.0000 0.39210  0.25000  0.24710  Biso   1.000  H
  H117     1.0000 0.51400  0.75000  0.80340  Biso   1.000  H
  H118     1.0000 0.98600  0.25000  0.30340  Biso   1.000  H
  H119     1.0000 0.01400  0.75000  0.69660  Biso   1.000  H
  H120     1.0000 0.48600  0.25000  0.19660  Biso   1.000  H
  N33      1.0000 0.60310  0.76567  0.86560  Biso   1.000  N
  N34      1.0000 0.89690  0.23433  0.36560  Biso   1.000  N
  N35      1.0000 0.10310  0.73433  0.63440  Biso   1.000  N
  N36      1.0000 0.39690  0.26567  0.13440  Biso   1.000  N
  N37      1.0000 0.39690  0.23433  0.13440  Biso   1.000  N
  N38      1.0000 0.10310  0.76567  0.63440  Biso   1.000  N
  N39      1.0000 0.89690  0.26567  0.36560  Biso   1.000  N
  N40      1.0000 0.60310  0.73433  0.86560  Biso   1.000  N
  N41      1.0000 0.56610  0.76856  0.94980  Biso   1.000  N
  N42      1.0000 0.93390  0.23144  0.44980  Biso   1.000  N
  N43      1.0000 0.06610  0.73144  0.55020  Biso   1.000  N
  N44      1.0000 0.43390  0.26856  0.05020  Biso   1.000  N
  N45      1.0000 0.43390  0.23144  0.05020  Biso   1.000  N
  N46      1.0000 0.06610  0.76856  0.55020  Biso   1.000  N
  N47      1.0000 0.93390  0.26856  0.44980  Biso   1.000  N
  N48      1.0000 0.56610  0.73144  0.94980  Biso   1.000  N
  C173     1.0000 0.60270  0.78308  0.98320  Biso   1.000  C
  C174     1.0000 0.89730  0.21692  0.48320  Biso   1.000  C
  C175     1.0000 0.10270  0.71692  0.51680  Biso   1.000  C
  C176     1.0000 0.39730  0.28308  0.01680  Biso   1.000  C
  C177     1.0000 0.39730  0.21692  0.01680  Biso   1.000  C
  C178     1.0000 0.10270  0.78308  0.51680  Biso   1.000  C
  C179     1.0000 0.89730  0.28308  0.48320  Biso   1.000  C
  C180     1.0000 0.60270  0.71692  0.98320  Biso   1.000  C
  H121     1.0000 0.58900  0.78830  0.04150  Biso   1.000  H
  H122     1.0000 0.91100  0.21170  0.54150  Biso   1.000  H
  H123     1.0000 0.08900  0.71170  0.45850  Biso   1.000  H
  H124     1.0000 0.41100  0.28830  0.95850  Biso   1.000  H
  H125     1.0000 0.41100  0.21170  0.95850  Biso   1.000  H
  H126     1.0000 0.08900  0.78830  0.45850  Biso   1.000  H
  H127     1.0000 0.91100  0.28830  0.54150  Biso   1.000  H
  H128     1.0000 0.58900  0.71170  0.04150  Biso   1.000  H
  C181     1.0000 0.66580  0.78985  0.91890  Biso   1.000  C
  C182     1.0000 0.83420  0.21015  0.41890  Biso   1.000  C
  C183     1.0000 0.16580  0.71015  0.58110  Biso   1.000  C
  C184     1.0000 0.33420  0.28985  0.08110  Biso   1.000  C
  C185     1.0000 0.33420  0.21015  0.08110  Biso   1.000  C
  C186     1.0000 0.16580  0.78985  0.58110  Biso   1.000  C
  C187     1.0000 0.83420  0.28985  0.41890  Biso   1.000  C
  C188     1.0000 0.66580  0.71015  0.91890  Biso   1.000  C
  C189     1.0000 0.66350  0.77815  0.84600  Biso   1.000  C
  C190     1.0000 0.83650  0.22185  0.34600  Biso   1.000  C
  C191     1.0000 0.16350  0.72185  0.65400  Biso   1.000  C
  C192     1.0000 0.33650  0.27815  0.15400  Biso   1.000  C
  C193     1.0000 0.33650  0.22185  0.15400  Biso   1.000  C
  C194     1.0000 0.16350  0.77815  0.65400  Biso   1.000  C
  C195     1.0000 0.83650  0.27815  0.34600  Biso   1.000  C
  C196     1.0000 0.66350  0.72185  0.84600  Biso   1.000  C
  H129     1.0000 0.69830  0.77870  0.79130  Biso   1.000  H
  H130     1.0000 0.80170  0.22130  0.29130  Biso   1.000  H
  H131     1.0000 0.19830  0.72130  0.70870  Biso   1.000  H
  H132     1.0000 0.30170  0.27870  0.20870  Biso   1.000  H
  H133     1.0000 0.30170  0.22130  0.20870  Biso   1.000  H
  H134     1.0000 0.19830  0.77870  0.70870  Biso   1.000  H
  H135     1.0000 0.80170  0.27870  0.29130  Biso   1.000  H
  H136     1.0000 0.69830  0.72130  0.79130  Biso   1.000  H
  C197     1.0000 0.72270  0.80521  0.93390  Biso   1.000  C
  C198     1.0000 0.77730  0.19479  0.43390  Biso   1.000  C
  C199     1.0000 0.22270  0.69479  0.56610  Biso   1.000  C
  C200     1.0000 0.27730  0.30521  0.06610  Biso   1.000  C
  C201     1.0000 0.27730  0.19479  0.06610  Biso   1.000  C
  C202     1.0000 0.22270  0.80521  0.56610  Biso   1.000  C
  C203     1.0000 0.77730  0.30521  0.43390  Biso   1.000  C
  C204     1.0000 0.72270  0.69479  0.93390  Biso   1.000  C
  C205     1.0000 0.72300  0.81386  0.01940  Biso   1.000  C
  C206     1.0000 0.77700  0.18614  0.51940  Biso   1.000  C
  C207     1.0000 0.22300  0.68614  0.48060  Biso   1.000  C
  C208     1.0000 0.27700  0.31386  0.98060  Biso   1.000  C
  C209     1.0000 0.27700  0.18614  0.98060  Biso   1.000  C
  C210     1.0000 0.22300  0.81386  0.48060  Biso   1.000  C
  C211     1.0000 0.77700  0.31386  0.51940  Biso   1.000  C
  C212     1.0000 0.72300  0.68614  0.01940  Biso   1.000  C
  H137     1.0000 0.68480  0.81000  0.06750  Biso   1.000  H
  H138     1.0000 0.81520  0.19000  0.56750  Biso   1.000  H
  H139     1.0000 0.18480  0.69000  0.43250  Biso   1.000  H
  H140     1.0000 0.31520  0.31000  0.93250  Biso   1.000  H
  H141     1.0000 0.31520  0.19000  0.93250  Biso   1.000  H
  H142     1.0000 0.18480  0.81000  0.43250  Biso   1.000  H
  H143     1.0000 0.81520  0.31000  0.56750  Biso   1.000  H
  H144     1.0000 0.68480  0.69000  0.06750  Biso   1.000  H
  C213     1.0000 0.77900  0.82813  0.03460  Biso   1.000  C
  C214     1.0000 0.72100  0.17187  0.53460  Biso   1.000  C
  C215     1.0000 0.27900  0.67187  0.46540  Biso   1.000  C
  C216     1.0000 0.22100  0.32813  0.96540  Biso   1.000  C
  C217     1.0000 0.22100  0.17187  0.96540  Biso   1.000  C
  C218     1.0000 0.27900  0.82813  0.46540  Biso   1.000  C
  C219     1.0000 0.72100  0.32813  0.53460  Biso   1.000  C
  C220     1.0000 0.77900  0.67187  0.03460  Biso   1.000  C
  H145     1.0000 0.77980  0.83380  0.09360  Biso   1.000  H
  H146     1.0000 0.72020  0.16620  0.59360  Biso   1.000  H
  H147     1.0000 0.27980  0.66620  0.40640  Biso   1.000  H
  H148     1.0000 0.22020  0.33380  0.90640  Biso   1.000  H
  H149     1.0000 0.22020  0.16620  0.90640  Biso   1.000  H
  H150     1.0000 0.27980  0.83380  0.40640  Biso   1.000  H
  H151     1.0000 0.72020  0.33380  0.59360  Biso   1.000  H
  H152     1.0000 0.77980  0.66620  0.09360  Biso   1.000  H
  C221     1.0000 0.83400  0.83425  0.96420  Biso   1.000  C
  C222     1.0000 0.66600  0.16575  0.46420  Biso   1.000  C
  C223     1.0000 0.33400  0.66575  0.53580  Biso   1.000  C
  C224     1.0000 0.16600  0.33425  0.03580  Biso   1.000  C
  C225     1.0000 0.16600  0.16575  0.03580  Biso   1.000  C
  C226     1.0000 0.33400  0.83425  0.53580  Biso   1.000  C
  C227     1.0000 0.66600  0.33425  0.46420  Biso   1.000  C
  C228     1.0000 0.83400  0.66575  0.96420  Biso   1.000  C
  C229     1.0000 0.83220  0.82589  0.87870  Biso   1.000  C
  C230     1.0000 0.66780  0.17411  0.37870  Biso   1.000  C
  C231     1.0000 0.33220  0.67411  0.62130  Biso   1.000  C
  C232     1.0000 0.16780  0.32589  0.12130  Biso   1.000  C
  C233     1.0000 0.16780  0.17411  0.12130  Biso   1.000  C
  C234     1.0000 0.33220  0.82589  0.62130  Biso   1.000  C
  C235     1.0000 0.66780  0.32589  0.37870  Biso   1.000  C
  C236     1.0000 0.83220  0.67411  0.87870  Biso   1.000  C
  H153     1.0000 0.86920  0.83000  0.83020  Biso   1.000  H
  H154     1.0000 0.63080  0.17000  0.33020  Biso   1.000  H
  H155     1.0000 0.36920  0.67000  0.66980  Biso   1.000  H
  H156     1.0000 0.13080  0.33000  0.16980  Biso   1.000  H
  H157     1.0000 0.13080  0.17000  0.16980  Biso   1.000  H
  H158     1.0000 0.36920  0.83000  0.66980  Biso   1.000  H
  H159     1.0000 0.63080  0.33000  0.33020  Biso   1.000  H
  H160     1.0000 0.86920  0.67000  0.83020  Biso   1.000  H
  C237     1.0000 0.77730  0.81157  0.86280  Biso   1.000  C
  C238     1.0000 0.72270  0.18843  0.36280  Biso   1.000  C
  C239     1.0000 0.27730  0.68843  0.63720  Biso   1.000  C
  C240     1.0000 0.22270  0.31157  0.13720  Biso   1.000  C
  C241     1.0000 0.22270  0.18843  0.13720  Biso   1.000  C
  C242     1.0000 0.27730  0.81157  0.63720  Biso   1.000  C
  C243     1.0000 0.72270  0.31157  0.36280  Biso   1.000  C
  C244     1.0000 0.77730  0.68843  0.86280  Biso   1.000  C
  H161     1.0000 0.77670  0.80600  0.80350  Biso   1.000  H
  H162     1.0000 0.72330  0.19400  0.30350  Biso   1.000  H
  H163     1.0000 0.27670  0.69400  0.69650  Biso   1.000  H
  H164     1.0000 0.22330  0.30600  0.19650  Biso   1.000  H
  H165     1.0000 0.22330  0.19400  0.19650  Biso   1.000  H
  H166     1.0000 0.27670  0.80600  0.69650  Biso   1.000  H
  H167     1.0000 0.72330  0.30600  0.30350  Biso   1.000  H
  H168     1.0000 0.77670  0.69400  0.80350  Biso   1.000  H
  C245     1.0000 0.89490  0.84941  0.98300  Biso   1.000  C
  C246     1.0000 0.60510  0.15059  0.48300  Biso   1.000  C
  C247     1.0000 0.39490  0.65059  0.51700  Biso   1.000  C
  C248     1.0000 0.10510  0.34941  0.01700  Biso   1.000  C
  C249     1.0000 0.10510  0.15059  0.01700  Biso   1.000  C
  C250     1.0000 0.39490  0.84941  0.51700  Biso   1.000  C
  C251     1.0000 0.60510  0.34941  0.48300  Biso   1.000  C
  C252     1.0000 0.89490  0.65059  0.98300  Biso   1.000  C
  O33      1.0000 0.90431  0.85401  0.06586  Biso   1.000  O
  O34      1.0000 0.59569  0.14599  0.56586  Biso   1.000  O
  O35      1.0000 0.40431  0.64599  0.43414  Biso   1.000  O
  O36      1.0000 0.09569  0.35401  0.93414  Biso   1.000  O
  O37      1.0000 0.09569  0.14599  0.93414  Biso   1.000  O
  O38      1.0000 0.40431  0.85401  0.43414  Biso   1.000  O
  O39      1.0000 0.59569  0.35401  0.56586  Biso   1.000  O
  O40      1.0000 0.90431  0.64599  0.06586  Biso   1.000  O
  O41      1.0000 0.93265  0.85656  0.91360  Biso   1.000  O
  O42      1.0000 0.56735  0.14344  0.41360  Biso   1.000  O
  O43      1.0000 0.43265  0.64344  0.58640  Biso   1.000  O
  O44      1.0000 0.06735  0.35656  0.08640  Biso   1.000  O
  O45      1.0000 0.06735  0.14344  0.08640  Biso   1.000  O
  O46      1.0000 0.43265  0.85656  0.58640  Biso   1.000  O
  O47      1.0000 0.56735  0.35656  0.41360  Biso   1.000  O
  O48      1.0000 0.93265  0.64344  0.91360  Biso   1.000  O
  C253     1.0000 0.41730  0.75000  0.22560  Biso   1.000  C
  C254     1.0000 0.08270  0.25000  0.72560  Biso   1.000  C
  C255     1.0000 0.91730  0.75000  0.27440  Biso   1.000  C
  C256     1.0000 0.58270  0.25000  0.77440  Biso   1.000  C
  H169     1.0000 0.48120  0.75000  0.23840  Biso   1.000  H
  H170     1.0000 0.01880  0.25000  0.73840  Biso   1.000  H
  H171     1.0000 0.98120  0.75000  0.26160  Biso   1.000  H
  H172     1.0000 0.51880  0.25000  0.76160  Biso   1.000  H
  H173     1.0000 0.38600  0.75000  0.28590  Biso   1.000  H
  H174     1.0000 0.11400  0.25000  0.78590  Biso   1.000  H
  H175     1.0000 0.88600  0.75000  0.21410  Biso   1.000  H
  H176     1.0000 0.61400  0.25000  0.71410  Biso   1.000  H
  N49      1.0000 0.39440  0.76570  0.17430  Biso   1.000  N
  N50      1.0000 0.10560  0.23430  0.67430  Biso   1.000  N
  N51      1.0000 0.89440  0.73430  0.32570  Biso   1.000  N
  N52      1.0000 0.60560  0.26570  0.82570  Biso   1.000  N
  N53      1.0000 0.60560  0.23430  0.82570  Biso   1.000  N
  N54      1.0000 0.89440  0.76570  0.32570  Biso   1.000  N
  N55      1.0000 0.10560  0.26570  0.67430  Biso   1.000  N
  N56      1.0000 0.39440  0.73430  0.17430  Biso   1.000  N
  N57      1.0000 0.43190  0.76842  0.08840  Biso   1.000  N
  N58      1.0000 0.06810  0.23158  0.58840  Biso   1.000  N
  N59      1.0000 0.93190  0.73158  0.41160  Biso   1.000  N
  N60      1.0000 0.56810  0.26842  0.91160  Biso   1.000  N
  N61      1.0000 0.56810  0.23158  0.91160  Biso   1.000  N
  N62      1.0000 0.93190  0.76842  0.41160  Biso   1.000  N
  N63      1.0000 0.06810  0.26842  0.58840  Biso   1.000  N
  N64      1.0000 0.43190  0.73158  0.08840  Biso   1.000  N
  C257     1.0000 0.39560  0.78339  0.05750  Biso   1.000  C
  C258     1.0000 0.10440  0.21661  0.55750  Biso   1.000  C
  C259     1.0000 0.89560  0.71661  0.44250  Biso   1.000  C
  C260     1.0000 0.60440  0.28339  0.94250  Biso   1.000  C
  C261     1.0000 0.60440  0.21661  0.94250  Biso   1.000  C
  C262     1.0000 0.89560  0.78339  0.44250  Biso   1.000  C
  C263     1.0000 0.10440  0.28339  0.55750  Biso   1.000  C
  C264     1.0000 0.39560  0.71661  0.05750  Biso   1.000  C
  H177     1.0000 0.40730  0.78860  0.99870  Biso   1.000  H
  H178     1.0000 0.09270  0.21140  0.49870  Biso   1.000  H
  H179     1.0000 0.90730  0.71140  0.50130  Biso   1.000  H
  H180     1.0000 0.59270  0.28860  0.00130  Biso   1.000  H
  H181     1.0000 0.59270  0.21140  0.00130  Biso   1.000  H
  H182     1.0000 0.90730  0.78860  0.50130  Biso   1.000  H
  H183     1.0000 0.09270  0.28860  0.49870  Biso   1.000  H
  H184     1.0000 0.40730  0.71140  0.99870  Biso   1.000  H
  C265     1.0000 0.33690  0.79054  0.12450  Biso   1.000  C
  C266     1.0000 0.16310  0.20946  0.62450  Biso   1.000  C
  C267     1.0000 0.83690  0.70946  0.37550  Biso   1.000  C
  C268     1.0000 0.66310  0.29054  0.87550  Biso   1.000  C
  C269     1.0000 0.66310  0.20946  0.87550  Biso   1.000  C
  C270     1.0000 0.83690  0.79054  0.37550  Biso   1.000  C
  C271     1.0000 0.16310  0.29054  0.62450  Biso   1.000  C
  C272     1.0000 0.33690  0.70946  0.12450  Biso   1.000  C
  C273     1.0000 0.33760  0.77863  0.19630  Biso   1.000  C
  C274     1.0000 0.16240  0.22137  0.69630  Biso   1.000  C
  C275     1.0000 0.83760  0.72137  0.30370  Biso   1.000  C
  C276     1.0000 0.66240  0.27863  0.80370  Biso   1.000  C
  C277     1.0000 0.66240  0.22137  0.80370  Biso   1.000  C
  C278     1.0000 0.83760  0.77863  0.30370  Biso   1.000  C
  C279     1.0000 0.16240  0.27863  0.69630  Biso   1.000  C
  C280     1.0000 0.33760  0.72137  0.19630  Biso   1.000  C
  H185     1.0000 0.30400  0.77940  0.25180  Biso   1.000  H
  H186     1.0000 0.19600  0.22060  0.75180  Biso   1.000  H
  H187     1.0000 0.80400  0.72060  0.24820  Biso   1.000  H
  H188     1.0000 0.69600  0.27940  0.74820  Biso   1.000  H
  H189     1.0000 0.69600  0.22060  0.74820  Biso   1.000  H
  H190     1.0000 0.80400  0.77940  0.24820  Biso   1.000  H
  H191     1.0000 0.19600  0.27940  0.75180  Biso   1.000  H
  H192     1.0000 0.30400  0.72060  0.25180  Biso   1.000  H
  C281     1.0000 0.28360  0.80661  0.11180  Biso   1.000  C
  C282     1.0000 0.21640  0.19339  0.61180  Biso   1.000  C
  C283     1.0000 0.78360  0.69339  0.38820  Biso   1.000  C
  C284     1.0000 0.71640  0.30661  0.88820  Biso   1.000  C
  C285     1.0000 0.71640  0.19339  0.88820  Biso   1.000  C
  C286     1.0000 0.78360  0.80661  0.38820  Biso   1.000  C
  C287     1.0000 0.21640  0.30661  0.61180  Biso   1.000  C
  C288     1.0000 0.28360  0.69339  0.11180  Biso   1.000  C
  C289     1.0000 0.24600  0.81542  0.18720  Biso   1.000  C
  C290     1.0000 0.25400  0.18458  0.68720  Biso   1.000  C
  C291     1.0000 0.74600  0.68458  0.31280  Biso   1.000  C
  C292     1.0000 0.75400  0.31542  0.81280  Biso   1.000  C
  C293     1.0000 0.75400  0.18458  0.81280  Biso   1.000  C
  C294     1.0000 0.74600  0.81542  0.31280  Biso   1.000  C
  C295     1.0000 0.25400  0.31542  0.68720  Biso   1.000  C
  C296     1.0000 0.24600  0.68458  0.18720  Biso   1.000  C
  H193     1.0000 0.25710  0.81140  0.24860  Biso   1.000  H
  H194     1.0000 0.24290  0.18860  0.74860  Biso   1.000  H
  H195     1.0000 0.75710  0.68860  0.25140  Biso   1.000  H
  H196     1.0000 0.74290  0.31140  0.75140  Biso   1.000  H
  H197     1.0000 0.74290  0.18860  0.75140  Biso   1.000  H
  H198     1.0000 0.75710  0.81140  0.25140  Biso   1.000  H
  H199     1.0000 0.24290  0.31140  0.74860  Biso   1.000  H
  H200     1.0000 0.25710  0.68860  0.24860  Biso   1.000  H
  C297     1.0000 0.19260  0.82994  0.17270  Biso   1.000  C
  C298     1.0000 0.30740  0.17006  0.67270  Biso   1.000  C
  C299     1.0000 0.69260  0.67006  0.32730  Biso   1.000  C
  C300     1.0000 0.80740  0.32994  0.82730  Biso   1.000  C
  C301     1.0000 0.80740  0.17006  0.82730  Biso   1.000  C
  C302     1.0000 0.69260  0.82994  0.32730  Biso   1.000  C
  C303     1.0000 0.30740  0.32994  0.67270  Biso   1.000  C
  C304     1.0000 0.19260  0.67006  0.17270  Biso   1.000  C
  H201     1.0000 0.16790  0.83600  0.22430  Biso   1.000  H
  H202     1.0000 0.33210  0.16400  0.72430  Biso   1.000  H
  H203     1.0000 0.66790  0.66400  0.27570  Biso   1.000  H
  H204     1.0000 0.83210  0.33600  0.77570  Biso   1.000  H
  H205     1.0000 0.83210  0.16400  0.77570  Biso   1.000  H
  H206     1.0000 0.66790  0.83600  0.27570  Biso   1.000  H
  H207     1.0000 0.33210  0.33600  0.72430  Biso   1.000  H
  H208     1.0000 0.16790  0.66400  0.22430  Biso   1.000  H
  C305     1.0000 0.17470  0.83573  0.08310  Biso   1.000  C
  C306     1.0000 0.32530  0.16427  0.58310  Biso   1.000  C
  C307     1.0000 0.67470  0.66427  0.41690  Biso   1.000  C
  C308     1.0000 0.82530  0.33573  0.91690  Biso   1.000  C
  C309     1.0000 0.82530  0.16427  0.91690  Biso   1.000  C
  C310     1.0000 0.67470  0.83573  0.41690  Biso   1.000  C
  C311     1.0000 0.32530  0.33573  0.58310  Biso   1.000  C
  C312     1.0000 0.17470  0.66427  0.08310  Biso   1.000  C
  C313     1.0000 0.21190  0.82708  0.00930  Biso   1.000  C
  C314     1.0000 0.28810  0.17292  0.50930  Biso   1.000  C
  C315     1.0000 0.71190  0.67292  0.49070  Biso   1.000  C
  C316     1.0000 0.78810  0.32708  0.99070  Biso   1.000  C
  C317     1.0000 0.78810  0.17292  0.99070  Biso   1.000  C
  C318     1.0000 0.71190  0.82708  0.49070  Biso   1.000  C
  C319     1.0000 0.28810  0.32708  0.50930  Biso   1.000  C
  C320     1.0000 0.21190  0.67292  0.00930  Biso   1.000  C
  H209     1.0000 0.20060  0.83110  0.94800  Biso   1.000  H
  H210     1.0000 0.29940  0.16890  0.44800  Biso   1.000  H
  H211     1.0000 0.70060  0.66890  0.55200  Biso   1.000  H
  H212     1.0000 0.79940  0.33110  0.05200  Biso   1.000  H
  H213     1.0000 0.79940  0.16890  0.05200  Biso   1.000  H
  H214     1.0000 0.70060  0.83110  0.55200  Biso   1.000  H
  H215     1.0000 0.29940  0.33110  0.44800  Biso   1.000  H
  H216     1.0000 0.20060  0.66890  0.94800  Biso   1.000  H
  C321     1.0000 0.26580  0.81250  0.02240  Biso   1.000  C
  C322     1.0000 0.23420  0.18750  0.52240  Biso   1.000  C
  C323     1.0000 0.76580  0.68750  0.47760  Biso   1.000  C
  C324     1.0000 0.73420  0.31250  0.97760  Biso   1.000  C
  C325     1.0000 0.73420  0.18750  0.97760  Biso   1.000  C
  C326     1.0000 0.76580  0.81250  0.47760  Biso   1.000  C
  C327     1.0000 0.23420  0.31250  0.52240  Biso   1.000  C
  C328     1.0000 0.26580  0.68750  0.02240  Biso   1.000  C
  H217     1.0000 0.29050  0.80660  0.97040  Biso   1.000  H
  H218     1.0000 0.20950  0.19340  0.47040  Biso   1.000  H
  H219     1.0000 0.79050  0.69340  0.52960  Biso   1.000  H
  H220     1.0000 0.70950  0.30660  0.02960  Biso   1.000  H
  H221     1.0000 0.70950  0.19340  0.02960  Biso   1.000  H
  H222     1.0000 0.79050  0.80660  0.52960  Biso   1.000  H
  H223     1.0000 0.20950  0.30660  0.47040  Biso   1.000  H
  H224     1.0000 0.29050  0.69340  0.97040  Biso   1.000  H
  C329     1.0000 0.11110  0.85051  0.06540  Biso   1.000  C
  C330     1.0000 0.38890  0.14949  0.56540  Biso   1.000  C
  C331     1.0000 0.61110  0.64949  0.43460  Biso   1.000  C
  C332     1.0000 0.88890  0.35051  0.93460  Biso   1.000  C
  C333     1.0000 0.88890  0.14949  0.93460  Biso   1.000  C
  C334     1.0000 0.61110  0.85051  0.43460  Biso   1.000  C
  C335     1.0000 0.38890  0.35051  0.56540  Biso   1.000  C
  C336     1.0000 0.11110  0.64949  0.06540  Biso   1.000  C
  O49      1.0000 0.07327  0.85787  0.13320  Biso   1.000  O
  O50      1.0000 0.42673  0.14213  0.63320  Biso   1.000  O
  O51      1.0000 0.57327  0.64213  0.36680  Biso   1.000  O
  O52      1.0000 0.92673  0.35787  0.86680  Biso   1.000  O
  O53      1.0000 0.92673  0.14213  0.86680  Biso   1.000  O
  O54      1.0000 0.57327  0.85787  0.36680  Biso   1.000  O
  O55      1.0000 0.42673  0.35787  0.63320  Biso   1.000  O
  O56      1.0000 0.07327  0.64213  0.13320  Biso   1.000  O
  O57      1.0000 0.10004  0.85446  0.98090  Biso   1.000  O
  O58      1.0000 0.39996  0.14554  0.48090  Biso   1.000  O
  O59      1.0000 0.60004  0.64554  0.51910  Biso   1.000  O
  O60      1.0000 0.89996  0.35446  0.01910  Biso   1.000  O
  O61      1.0000 0.89996  0.14554  0.01910  Biso   1.000  O
  O62      1.0000 0.60004  0.85446  0.51910  Biso   1.000  O
  O63      1.0000 0.39996  0.35446  0.48090  Biso   1.000  O
  O64      1.0000 0.10004  0.64554  0.98090  Biso   1.000  O
  O65      1.0000 0.08640  0.87230  0.79980  Biso   1.000  O
  O66      1.0000 0.41360  0.12770  0.29980  Biso   1.000  O
  O67      1.0000 0.58640  0.62770  0.70020  Biso   1.000  O
  O68      1.0000 0.91360  0.37230  0.20020  Biso   1.000  O
  O69      1.0000 0.91360  0.12770  0.20020  Biso   1.000  O
  O70      1.0000 0.58640  0.87230  0.70020  Biso   1.000  O
  O71      1.0000 0.41360  0.37230  0.29980  Biso   1.000  O
  O72      1.0000 0.08640  0.62770  0.79980  Biso   1.000  O
  C337     1.0000 0.18200  0.87300  0.81960  Biso   1.000  C
  C338     1.0000 0.31800  0.12700  0.31960  Biso   1.000  C
  C339     1.0000 0.68200  0.62700  0.68040  Biso   1.000  C
  C340     1.0000 0.81800  0.37300  0.18040  Biso   1.000  C
  C341     1.0000 0.81800  0.12700  0.18040  Biso   1.000  C
  C342     1.0000 0.68200  0.87300  0.68040  Biso   1.000  C
  C343     1.0000 0.31800  0.37300  0.31960  Biso   1.000  C
  C344     1.0000 0.18200  0.62700  0.81960  Biso   1.000  C
  H225     1.0000 0.20200  0.87290  0.88210  Biso   1.000  H
  H226     1.0000 0.29800  0.12710  0.38210  Biso   1.000  H
  H227     1.0000 0.70200  0.62710  0.61790  Biso   1.000  H
  H228     1.0000 0.79800  0.37290  0.11790  Biso   1.000  H
  H229     1.0000 0.79800  0.12710  0.11790  Biso   1.000  H
  H230     1.0000 0.70200  0.87290  0.61790  Biso   1.000  H
  H231     1.0000 0.29800  0.37290  0.38210  Biso   1.000  H
  H232     1.0000 0.20200  0.62710  0.88210  Biso   1.000  H
  N65      1.0000 0.23850  0.87376  0.75200  Biso   1.000  N
  N66      1.0000 0.26150  0.12624  0.25200  Biso   1.000  N
  N67      1.0000 0.73850  0.62624  0.74800  Biso   1.000  N
  N68      1.0000 0.76150  0.37376  0.24800  Biso   1.000  N
  N69      1.0000 0.76150  0.12624  0.24800  Biso   1.000  N
  N70      1.0000 0.73850  0.87376  0.74800  Biso   1.000  N
  N71      1.0000 0.26150  0.37376  0.25200  Biso   1.000  N
  N72      1.0000 0.23850  0.62624  0.75200  Biso   1.000  N
  C345     1.0000 0.33040  0.87575  0.77300  Biso   1.000  C
  C346     1.0000 0.16960  0.12425  0.27300  Biso   1.000  C
  C347     1.0000 0.83040  0.62425  0.72700  Biso   1.000  C
  C348     1.0000 0.66960  0.37575  0.22700  Biso   1.000  C
  C349     1.0000 0.66960  0.12425  0.22700  Biso   1.000  C
  C350     1.0000 0.83040  0.87575  0.72700  Biso   1.000  C
  C351     1.0000 0.16960  0.37575  0.27300  Biso   1.000  C
  C352     1.0000 0.33040  0.62425  0.77300  Biso   1.000  C
  H233     1.0000 0.33710  0.88270  0.83010  Biso   1.000  H
  H234     1.0000 0.16290  0.11730  0.33010  Biso   1.000  H
  H235     1.0000 0.83710  0.61730  0.66990  Biso   1.000  H
  H236     1.0000 0.66290  0.38270  0.16990  Biso   1.000  H
  H237     1.0000 0.66290  0.11730  0.16990  Biso   1.000  H
  H238     1.0000 0.83710  0.88270  0.66990  Biso   1.000  H
  H239     1.0000 0.16290  0.38270  0.33010  Biso   1.000  H
  H240     1.0000 0.33710  0.61730  0.83010  Biso   1.000  H
  H241     1.0000 0.35970  0.88190  0.72170  Biso   1.000  H
  H242     1.0000 0.14030  0.11810  0.22170  Biso   1.000  H
  H243     1.0000 0.85970  0.61810  0.77830  Biso   1.000  H
  H244     1.0000 0.64030  0.38190  0.27830  Biso   1.000  H
  H245     1.0000 0.64030  0.11810  0.27830  Biso   1.000  H
  H246     1.0000 0.85970  0.88190  0.77830  Biso   1.000  H
  H247     1.0000 0.14030  0.38190  0.22170  Biso   1.000  H
  H248     1.0000 0.35970  0.61810  0.72170  Biso   1.000  H
  H249     1.0000 0.35700  0.86400  0.78150  Biso   1.000  H
  H250     1.0000 0.14300  0.13600  0.28150  Biso   1.000  H
  H251     1.0000 0.85700  0.63600  0.71850  Biso   1.000  H
  H252     1.0000 0.64300  0.36400  0.21850  Biso   1.000  H
  H253     1.0000 0.64300  0.13600  0.21850  Biso   1.000  H
  H254     1.0000 0.85700  0.86400  0.71850  Biso   1.000  H
  H255     1.0000 0.14300  0.36400  0.28150  Biso   1.000  H
  H256     1.0000 0.35700  0.63600  0.78150  Biso   1.000  H
  C353     1.0000 0.21760  0.87480  0.66060  Biso   1.000  C
  C354     1.0000 0.28240  0.12520  0.16060  Biso   1.000  C
  C355     1.0000 0.71760  0.62520  0.83940  Biso   1.000  C
  C356     1.0000 0.78240  0.37480  0.33940  Biso   1.000  C
  C357     1.0000 0.78240  0.12520  0.33940  Biso   1.000  C
  C358     1.0000 0.71760  0.87480  0.83940  Biso   1.000  C
  C359     1.0000 0.28240  0.37480  0.16060  Biso   1.000  C
  C360     1.0000 0.21760  0.62520  0.66060  Biso   1.000  C
  H257     1.0000 0.16080  0.88080  0.65360  Biso   1.000  H
  H258     1.0000 0.33920  0.11920  0.15360  Biso   1.000  H
  H259     1.0000 0.66080  0.61920  0.84640  Biso   1.000  H
  H260     1.0000 0.83920  0.38080  0.34640  Biso   1.000  H
  H261     1.0000 0.83920  0.11920  0.34640  Biso   1.000  H
  H262     1.0000 0.66080  0.88080  0.84640  Biso   1.000  H
  H263     1.0000 0.33920  0.38080  0.15360  Biso   1.000  H
  H264     1.0000 0.16080  0.61920  0.65360  Biso   1.000  H
  H265     1.0000 0.21380  0.86290  0.63440  Biso   1.000  H
  H266     1.0000 0.28620  0.13710  0.13440  Biso   1.000  H
  H267     1.0000 0.71380  0.63710  0.86560  Biso   1.000  H
  H268     1.0000 0.78620  0.36290  0.36560  Biso   1.000  H
  H269     1.0000 0.78620  0.13710  0.36560  Biso   1.000  H
  H270     1.0000 0.71380  0.86290  0.86560  Biso   1.000  H
  H271     1.0000 0.28620  0.36290  0.13440  Biso   1.000  H
  H272     1.0000 0.21380  0.63710  0.63440  Biso   1.000  H
  H273     1.0000 0.26300  0.88150  0.62770  Biso   1.000  H
  H274     1.0000 0.23700  0.11850  0.12770  Biso   1.000  H
  H275     1.0000 0.76300  0.61850  0.87230  Biso   1.000  H
  H276     1.0000 0.73700  0.38150  0.37230  Biso   1.000  H
  H277     1.0000 0.73700  0.11850  0.37230  Biso   1.000  H
  H278     1.0000 0.76300  0.88150  0.87230  Biso   1.000  H
  H279     1.0000 0.23700  0.38150  0.12770  Biso   1.000  H
  H280     1.0000 0.26300  0.61850  0.62770  Biso   1.000  H
  O73      1.0000 0.92470  0.87473  0.24490  Biso   1.000  O
  O74      1.0000 0.57530  0.12527  0.74490  Biso   1.000  O
  O75      1.0000 0.42470  0.62527  0.25510  Biso   1.000  O
  O76      1.0000 0.07530  0.37473  0.75510  Biso   1.000  O
  O77      1.0000 0.07530  0.12527  0.75510  Biso   1.000  O
  O78      1.0000 0.42470  0.87473  0.25510  Biso   1.000  O
  O79      1.0000 0.57530  0.37473  0.74490  Biso   1.000  O
  O80      1.0000 0.92470  0.62527  0.24490  Biso   1.000  O
  C361     1.0000 0.94190  0.86315  0.30160  Biso   1.000  C
  C362     1.0000 0.55810  0.13685  0.80160  Biso   1.000  C
  C363     1.0000 0.44190  0.63685  0.19840  Biso   1.000  C
  C364     1.0000 0.05810  0.36315  0.69840  Biso   1.000  C
  C365     1.0000 0.05810  0.13685  0.69840  Biso   1.000  C
  C366     1.0000 0.44190  0.86315  0.19840  Biso   1.000  C
  C367     1.0000 0.55810  0.36315  0.80160  Biso   1.000  C
  C368     1.0000 0.94190  0.63685  0.30160  Biso   1.000  C
  H281     1.0000 0.98240  0.85420  0.28360  Biso   1.000  H
  H282     1.0000 0.51760  0.14580  0.78360  Biso   1.000  H
  H283     1.0000 0.48240  0.64580  0.21640  Biso   1.000  H
  H284     1.0000 0.01760  0.35420  0.71640  Biso   1.000  H
  H285     1.0000 0.01760  0.14580  0.71640  Biso   1.000  H
  H286     1.0000 0.48240  0.85420  0.21640  Biso   1.000  H
  H287     1.0000 0.51760  0.35420  0.78360  Biso   1.000  H
  H288     1.0000 0.98240  0.64580  0.28360  Biso   1.000  H
  N73      1.0000 0.90790  0.86218  0.38670  Biso   1.000  N
  N74      1.0000 0.59210  0.13782  0.88670  Biso   1.000  N
  N75      1.0000 0.40790  0.63782  0.11330  Biso   1.000  N
  N76      1.0000 0.09210  0.36218  0.61330  Biso   1.000  N
  N77      1.0000 0.09210  0.13782  0.61330  Biso   1.000  N
  N78      1.0000 0.40790  0.86218  0.11330  Biso   1.000  N
  N79      1.0000 0.59210  0.36218  0.88670  Biso   1.000  N
  N80      1.0000 0.90790  0.63782  0.38670  Biso   1.000  N
  C369     1.0000 0.93810  0.84850  0.45120  Biso   1.000  C
  C370     1.0000 0.56190  0.15150  0.95120  Biso   1.000  C
  C371     1.0000 0.43810  0.65150  0.04880  Biso   1.000  C
  C372     1.0000 0.06190  0.34850  0.54880  Biso   1.000  C
  C373     1.0000 0.06190  0.15150  0.54880  Biso   1.000  C
  C374     1.0000 0.43810  0.84850  0.04880  Biso   1.000  C
  C375     1.0000 0.56190  0.34850  0.95120  Biso   1.000  C
  C376     1.0000 0.93810  0.65150  0.45120  Biso   1.000  C
  H289     1.0000 0.97310  0.83970  0.41740  Biso   1.000  H
  H290     1.0000 0.52690  0.16030  0.91740  Biso   1.000  H
  H291     1.0000 0.47310  0.66030  0.08260  Biso   1.000  H
  H292     1.0000 0.02690  0.33970  0.58260  Biso   1.000  H
  H293     1.0000 0.02690  0.16030  0.58260  Biso   1.000  H
  H294     1.0000 0.47310  0.83970  0.08260  Biso   1.000  H
  H295     1.0000 0.52690  0.33970  0.91740  Biso   1.000  H
  H296     1.0000 0.97310  0.66030  0.41740  Biso   1.000  H
  H297     1.0000 0.88730  0.84270  0.47960  Biso   1.000  H
  H298     1.0000 0.61270  0.15730  0.97960  Biso   1.000  H
  H299     1.0000 0.38730  0.65730  0.02040  Biso   1.000  H
  H300     1.0000 0.11270  0.34270  0.52040  Biso   1.000  H
  H301     1.0000 0.11270  0.15730  0.52040  Biso   1.000  H
  H302     1.0000 0.38730  0.84270  0.02040  Biso   1.000  H
  H303     1.0000 0.61270  0.34270  0.97960  Biso   1.000  H
  H304     1.0000 0.88730  0.65730  0.47960  Biso   1.000  H
  H305     1.0000 0.97430  0.85390  0.49980  Biso   1.000  H
  H306     1.0000 0.52570  0.14610  0.99980  Biso   1.000  H
  H307     1.0000 0.47430  0.64610  0.00020  Biso   1.000  H
  H308     1.0000 0.02570  0.35390  0.50020  Biso   1.000  H
  H309     1.0000 0.02570  0.14610  0.50020  Biso   1.000  H
  H310     1.0000 0.47430  0.85390  0.00020  Biso   1.000  H
  H311     1.0000 0.52570  0.35390  0.99980  Biso   1.000  H
  H312     1.0000 0.97430  0.64610  0.49980  Biso   1.000  H
  C377     1.0000 0.84320  0.87594  0.41680  Biso   1.000  C
  C378     1.0000 0.65680  0.12406  0.91680  Biso   1.000  C
  C379     1.0000 0.34320  0.62406  0.08320  Biso   1.000  C
  C380     1.0000 0.15680  0.37594  0.58320  Biso   1.000  C
  C381     1.0000 0.15680  0.12406  0.58320  Biso   1.000  C
  C382     1.0000 0.34320  0.87594  0.08320  Biso   1.000  C
  C383     1.0000 0.65680  0.37594  0.91680  Biso   1.000  C
  C384     1.0000 0.84320  0.62406  0.41680  Biso   1.000  C
  H313     1.0000 0.82310  0.88260  0.36260  Biso   1.000  H
  H314     1.0000 0.67690  0.11740  0.86260  Biso   1.000  H
  H315     1.0000 0.32310  0.61740  0.13740  Biso   1.000  H
  H316     1.0000 0.17690  0.38260  0.63740  Biso   1.000  H
  H317     1.0000 0.17690  0.11740  0.63740  Biso   1.000  H
  H318     1.0000 0.32310  0.88260  0.13740  Biso   1.000  H
  H319     1.0000 0.67690  0.38260  0.86260  Biso   1.000  H
  H320     1.0000 0.82310  0.61740  0.36260  Biso   1.000  H
  H321     1.0000 0.87130  0.88400  0.46110  Biso   1.000  H
  H322     1.0000 0.62870  0.11600  0.96110  Biso   1.000  H
  H323     1.0000 0.37130  0.61600  0.03890  Biso   1.000  H
  H324     1.0000 0.12870  0.38400  0.53890  Biso   1.000  H
  H325     1.0000 0.12870  0.11600  0.53890  Biso   1.000  H
  H326     1.0000 0.37130  0.88400  0.03890  Biso   1.000  H
  H327     1.0000 0.62870  0.38400  0.96110  Biso   1.000  H
  H328     1.0000 0.87130  0.61600  0.46110  Biso   1.000  H
  H329     1.0000 0.79280  0.87020  0.44660  Biso   1.000  H
  H330     1.0000 0.70720  0.12980  0.94660  Biso   1.000  H
  H331     1.0000 0.29280  0.62980  0.05340  Biso   1.000  H
  H332     1.0000 0.20720  0.37020  0.55340  Biso   1.000  H
  H333     1.0000 0.20720  0.12980  0.55340  Biso   1.000  H
  H334     1.0000 0.29280  0.87020  0.05340  Biso   1.000  H
  H335     1.0000 0.70720  0.37020  0.94660  Biso   1.000  H
  H336     1.0000 0.79280  0.62980  0.44660  Biso   1.000  H
  N81      1.0000 0.65630  0.99311  0.17170  Biso   1.000  N
  N82      1.0000 0.84370  0.00689  0.67170  Biso   1.000  N
  N83      1.0000 0.15630  0.50689  0.32830  Biso   1.000  N
  N84      1.0000 0.34370  0.49311  0.82830  Biso   1.000  N
  N85      1.0000 0.34370  0.00689  0.82830  Biso   1.000  N
  N86      1.0000 0.15630  0.99311  0.32830  Biso   1.000  N
  N87      1.0000 0.84370  0.49311  0.67170  Biso   1.000  N
  N88      1.0000 0.65630  0.50689  0.17170  Biso   1.000  N
  O81      1.0000 0.60540  0.00223  0.12900  Biso   1.000  O
  O82      1.0000 0.89460  0.99777  0.62900  Biso   1.000  O
  O83      1.0000 0.10540  0.49777  0.37100  Biso   1.000  O
  O84      1.0000 0.39460  0.50223  0.87100  Biso   1.000  O
  O85      1.0000 0.39460  0.99777  0.87100  Biso   1.000  O
  O86      1.0000 0.10540  0.00223  0.37100  Biso   1.000  O
  O87      1.0000 0.89460  0.50223  0.62900  Biso   1.000  O
  O88      1.0000 0.60540  0.49777  0.12900  Biso   1.000  O
  O89      1.0000 0.63880  0.97761  0.18570  Biso   1.000  O
  O90      1.0000 0.86120  0.02239  0.68570  Biso   1.000  O
  O91      1.0000 0.13880  0.52239  0.31430  Biso   1.000  O
  O92      1.0000 0.36120  0.47761  0.81430  Biso   1.000  O
  O93      1.0000 0.36120  0.02239  0.81430  Biso   1.000  O
  O94      1.0000 0.13880  0.97761  0.31430  Biso   1.000  O
  O95      1.0000 0.86120  0.47761  0.68570  Biso   1.000  O
  O96      1.0000 0.63880  0.52239  0.18570  Biso   1.000  O
  O97      1.0000 0.72230  0.00003  0.20640  Biso   1.000  O
  O98      1.0000 0.77770  0.99997  0.70640  Biso   1.000  O
  O99      1.0000 0.22230  0.49997  0.29360  Biso   1.000  O
  O100     1.0000 0.27770  0.50003  0.79360  Biso   1.000  O
  O101     1.0000 0.27770  0.99997  0.79360  Biso   1.000  O
  O102     1.0000 0.22230  0.00003  0.29360  Biso   1.000  O
  O103     1.0000 0.77770  0.50003  0.70640  Biso   1.000  O
  O104     1.0000 0.72230  0.49997  0.20640  Biso   1.000  O
  N89      1.0000 0.33270  0.76210  0.85240  Biso   1.000  N
  N90      1.0000 0.16730  0.23790  0.35240  Biso   1.000  N
  N91      1.0000 0.83270  0.73790  0.64760  Biso   1.000  N
  N92      1.0000 0.66730  0.26210  0.14760  Biso   1.000  N
  N93      1.0000 0.66730  0.23790  0.14760  Biso   1.000  N
  N94      1.0000 0.83270  0.76210  0.64760  Biso   1.000  N
  N95      1.0000 0.16730  0.26210  0.35240  Biso   1.000  N
  N96      1.0000 0.33270  0.73790  0.85240  Biso   1.000  N
  O105     1.0000 0.38230  0.75000  0.89130  Biso   1.000  O
  O106     1.0000 0.11770  0.25000  0.39130  Biso   1.000  O
  O107     1.0000 0.88230  0.75000  0.60870  Biso   1.000  O
  O108     1.0000 0.61770  0.25000  0.10870  Biso   1.000  O
  O109     1.0000 0.26770  0.75000  0.81370  Biso   1.000  O
  O110     1.0000 0.23230  0.25000  0.31370  Biso   1.000  O
  O111     1.0000 0.76770  0.75000  0.68630  Biso   1.000  O
  O112     1.0000 0.73230  0.25000  0.18630  Biso   1.000  O
  O113     1.0000 0.30890  0.77688  0.84520  Biso   1.000  O
  O114     1.0000 0.19110  0.22312  0.34520  Biso   1.000  O
  O115     1.0000 0.80890  0.72312  0.65480  Biso   1.000  O
  O116     1.0000 0.69110  0.27688  0.15480  Biso   1.000  O
  O117     1.0000 0.69110  0.22312  0.15480  Biso   1.000  O
  O118     1.0000 0.80890  0.77688  0.65480  Biso   1.000  O
  O119     1.0000 0.19110  0.27688  0.34520  Biso   1.000  O
  O120     1.0000 0.30890  0.72312  0.84520  Biso   1.000  O
  N97      1.0000 0.67340  0.75449  0.16670  Biso   1.000  N
  N98      1.0000 0.82660  0.24551  0.66670  Biso   1.000  N
  N99      1.0000 0.17340  0.74551  0.33330  Biso   1.000  N
  N100     1.0000 0.32660  0.25449  0.83330  Biso   1.000  N
  N101     1.0000 0.32660  0.24551  0.83330  Biso   1.000  N
  N102     1.0000 0.17340  0.75449  0.33330  Biso   1.000  N
  N103     1.0000 0.82660  0.25449  0.66670  Biso   1.000  N
  N104     1.0000 0.67340  0.74551  0.16670  Biso   1.000  N
  O121     1.0000 0.60450  0.75000  0.14700  Biso   1.000  O
  O122     1.0000 0.89550  0.25000  0.64700  Biso   1.000  O
  O123     1.0000 0.10450  0.75000  0.35300  Biso   1.000  O
  O124     1.0000 0.39550  0.25000  0.85300  Biso   1.000  O
  O125     1.0000 0.70070  0.76893  0.13710  Biso   1.000  O
  O126     1.0000 0.79930  0.23107  0.63710  Biso   1.000  O
  O127     1.0000 0.20070  0.73107  0.36290  Biso   1.000  O
  O128     1.0000 0.29930  0.26893  0.86290  Biso   1.000  O
  O129     1.0000 0.29930  0.23107  0.86290  Biso   1.000  O
  O130     1.0000 0.20070  0.76893  0.36290  Biso   1.000  O
  O131     1.0000 0.79930  0.26893  0.63710  Biso   1.000  O
  O132     1.0000 0.70070  0.73107  0.13710  Biso   1.000  O
  O133     1.0000 0.70600  0.75000  0.24010  Biso   1.000  O
  O134     1.0000 0.79400  0.25000  0.74010  Biso   1.000  O
  O135     1.0000 0.20600  0.75000  0.25990  Biso   1.000  O
  O136     1.0000 0.29400  0.25000  0.75990  Biso   1.000  O
