data_image0
_cell_length_a       24.926
_cell_length_b       24.926
_cell_length_c       15.189
_cell_angle_alpha    90
_cell_angle_beta     90
_cell_angle_gamma    120

_symmetry_space_group_name_H-M    "P 1"
_symmetry_int_tables_number       1

loop_
  _symmetry_equiv_pos_as_xyz
  'x, y, z'

loop_
  _atom_site_label
  _atom_site_occupancy
  _atom_site_fract_x
  _atom_site_fract_y
  _atom_site_fract_z
  _atom_site_thermal_displace_type
  _atom_site_B_iso_or_equiv
  _atom_site_type_symbol
  Cu1      1.0000 0.29265  0.09457  0.12006  Biso   1.000  Cu
  Cu2      1.0000 0.90543  0.19807  0.12006  Biso   1.000  Cu
  Cu3      1.0000 0.80193  0.70735  0.12006  Biso   1.000  Cu
  Cu4      1.0000 0.95931  0.42791  0.45339  Biso   1.000  Cu
  Cu5      1.0000 0.57209  0.53141  0.45339  Biso   1.000  Cu
  Cu6      1.0000 0.46859  0.04069  0.45339  Biso   1.000  Cu
  Cu7      1.0000 0.62598  0.76124  0.78673  Biso   1.000  Cu
  Cu8      1.0000 0.23876  0.86474  0.78673  Biso   1.000  Cu
  Cu9      1.0000 0.13526  0.37402  0.78673  Biso   1.000  Cu
  Cu10     1.0000 0.70735  0.90543  0.87994  Biso   1.000  Cu
  Cu11     1.0000 0.09457  0.80193  0.87994  Biso   1.000  Cu
  Cu12     1.0000 0.19807  0.29265  0.87994  Biso   1.000  Cu
  Cu13     1.0000 0.37402  0.23876  0.21327  Biso   1.000  Cu
  Cu14     1.0000 0.76124  0.13526  0.21327  Biso   1.000  Cu
  Cu15     1.0000 0.86474  0.62598  0.21327  Biso   1.000  Cu
  Cu16     1.0000 0.04069  0.57209  0.54661  Biso   1.000  Cu
  Cu17     1.0000 0.42791  0.46859  0.54661  Biso   1.000  Cu
  Cu18     1.0000 0.53141  0.95931  0.54661  Biso   1.000  Cu
  O1       1.0000 0.38977  0.06710  0.14423  Biso   1.000  O
  O2       1.0000 0.93290  0.32267  0.14423  Biso   1.000  O
  O3       1.0000 0.67733  0.61023  0.14423  Biso   1.000  O
  O4       1.0000 0.05644  0.40043  0.47756  Biso   1.000  O
  O5       1.0000 0.59957  0.65600  0.47756  Biso   1.000  O
  O6       1.0000 0.34400  0.94356  0.47756  Biso   1.000  O
  O7       1.0000 0.72310  0.73377  0.81090  Biso   1.000  O
  O8       1.0000 0.26623  0.98934  0.81090  Biso   1.000  O
  O9       1.0000 0.01066  0.27690  0.81090  Biso   1.000  O
  O10      1.0000 0.61023  0.93290  0.85577  Biso   1.000  O
  O11      1.0000 0.06710  0.67733  0.85577  Biso   1.000  O
  O12      1.0000 0.32267  0.38977  0.85577  Biso   1.000  O
  O13      1.0000 0.27690  0.26623  0.18910  Biso   1.000  O
  O14      1.0000 0.73377  0.01066  0.18910  Biso   1.000  O
  O15      1.0000 0.98934  0.72310  0.18910  Biso   1.000  O
  O16      1.0000 0.94356  0.59957  0.52244  Biso   1.000  O
  O17      1.0000 0.40043  0.34400  0.52244  Biso   1.000  O
  O18      1.0000 0.65600  0.05644  0.52244  Biso   1.000  O
  O19      1.0000 0.37211  0.14369  0.17966  Biso   1.000  O
  O20      1.0000 0.85631  0.22842  0.17966  Biso   1.000  O
  O21      1.0000 0.77158  0.62789  0.17966  Biso   1.000  O
  O22      1.0000 0.03878  0.47702  0.51299  Biso   1.000  O
  O23      1.0000 0.52298  0.56175  0.51299  Biso   1.000  O
  O24      1.0000 0.43825  0.96122  0.51299  Biso   1.000  O
  O25      1.0000 0.70544  0.81036  0.84633  Biso   1.000  O
  O26      1.0000 0.18964  0.89509  0.84633  Biso   1.000  O
  O27      1.0000 0.10491  0.29456  0.84633  Biso   1.000  O
  O28      1.0000 0.62789  0.85631  0.82034  Biso   1.000  O
  O29      1.0000 0.14369  0.77158  0.82034  Biso   1.000  O
  O30      1.0000 0.22842  0.37211  0.82034  Biso   1.000  O
  O31      1.0000 0.29456  0.18964  0.15367  Biso   1.000  O
  O32      1.0000 0.81036  0.10491  0.15367  Biso   1.000  O
  O33      1.0000 0.89509  0.70544  0.15367  Biso   1.000  O
  O34      1.0000 0.96122  0.52298  0.48701  Biso   1.000  O
  O35      1.0000 0.47702  0.43825  0.48701  Biso   1.000  O
  O36      1.0000 0.56175  0.03878  0.48701  Biso   1.000  O
  O37      1.0000 0.42077  0.09739  0.33999  Biso   1.000  O
  O38      1.0000 0.90261  0.32338  0.33999  Biso   1.000  O
  O39      1.0000 0.67662  0.57923  0.33999  Biso   1.000  O
  O40      1.0000 0.08744  0.43072  0.67332  Biso   1.000  O
  O41      1.0000 0.56928  0.65671  0.67332  Biso   1.000  O
  O42      1.0000 0.34329  0.91256  0.67332  Biso   1.000  O
  O43      1.0000 0.75410  0.76406  0.00666  Biso   1.000  O
  O44      1.0000 0.23594  0.99005  0.00666  Biso   1.000  O
  O45      1.0000 0.00995  0.24590  0.00666  Biso   1.000  O
  O46      1.0000 0.57923  0.90261  0.66001  Biso   1.000  O
  O47      1.0000 0.09739  0.67662  0.66001  Biso   1.000  O
  O48      1.0000 0.32338  0.42077  0.66001  Biso   1.000  O
  O49      1.0000 0.24590  0.23594  0.99334  Biso   1.000  O
  O50      1.0000 0.76406  0.00995  0.99334  Biso   1.000  O
  O51      1.0000 0.99005  0.75410  0.99334  Biso   1.000  O
  O52      1.0000 0.91256  0.56928  0.32668  Biso   1.000  O
  O53      1.0000 0.43072  0.34329  0.32668  Biso   1.000  O
  O54      1.0000 0.65671  0.08744  0.32668  Biso   1.000  O
  O55      1.0000 0.51326  0.11667  0.38736  Biso   1.000  O
  O56      1.0000 0.88333  0.39659  0.38736  Biso   1.000  O
  O57      1.0000 0.60341  0.48674  0.38736  Biso   1.000  O
  O58      1.0000 0.17993  0.45000  0.72069  Biso   1.000  O
  O59      1.0000 0.55000  0.72992  0.72069  Biso   1.000  O
  O60      1.0000 0.27008  0.82007  0.72069  Biso   1.000  O
  O61      1.0000 0.84659  0.78334  0.05403  Biso   1.000  O
  O62      1.0000 0.21666  0.06326  0.05403  Biso   1.000  O
  O63      1.0000 0.93674  0.15341  0.05403  Biso   1.000  O
  O64      1.0000 0.48674  0.88333  0.61264  Biso   1.000  O
  O65      1.0000 0.11667  0.60341  0.61264  Biso   1.000  O
  O66      1.0000 0.39659  0.51326  0.61264  Biso   1.000  O
  O67      1.0000 0.15341  0.21666  0.94597  Biso   1.000  O
  O68      1.0000 0.78334  0.93674  0.94597  Biso   1.000  O
  O69      1.0000 0.06326  0.84659  0.94597  Biso   1.000  O
  O70      1.0000 0.82007  0.55000  0.27931  Biso   1.000  O
  O71      1.0000 0.45000  0.27008  0.27931  Biso   1.000  O
  O72      1.0000 0.72992  0.17993  0.27931  Biso   1.000  O
  O73      1.0000 0.40251  0.23080  0.70788  Biso   1.000  O
  O74      1.0000 0.76920  0.17171  0.70788  Biso   1.000  O
  O75      1.0000 0.82829  0.59749  0.70788  Biso   1.000  O
  O76      1.0000 0.06918  0.56413  0.04121  Biso   1.000  O
  O77      1.0000 0.43587  0.50504  0.04121  Biso   1.000  O
  O78      1.0000 0.49496  0.93082  0.04121  Biso   1.000  O
  O79      1.0000 0.73584  0.89747  0.37455  Biso   1.000  O
  O80      1.0000 0.10253  0.83838  0.37455  Biso   1.000  O
  O81      1.0000 0.16162  0.26416  0.37455  Biso   1.000  O
  O82      1.0000 0.59749  0.76920  0.29212  Biso   1.000  O
  O83      1.0000 0.23080  0.82829  0.29212  Biso   1.000  O
  O84      1.0000 0.17171  0.40251  0.29212  Biso   1.000  O
  O85      1.0000 0.26416  0.10253  0.62545  Biso   1.000  O
  O86      1.0000 0.89747  0.16162  0.62545  Biso   1.000  O
  O87      1.0000 0.83838  0.73584  0.62545  Biso   1.000  O
  O88      1.0000 0.93082  0.43587  0.95879  Biso   1.000  O
  O89      1.0000 0.56413  0.49496  0.95879  Biso   1.000  O
  O90      1.0000 0.50504  0.06918  0.95879  Biso   1.000  O
  N1       1.0000 0.33560  0.12829  0.99955  Biso   1.000  N
  N2       1.0000 0.87171  0.20731  0.99955  Biso   1.000  N
  N3       1.0000 0.79269  0.66440  0.99955  Biso   1.000  N
  N4       1.0000 0.00227  0.46162  0.33288  Biso   1.000  N
  N5       1.0000 0.53838  0.54064  0.33288  Biso   1.000  N
  N6       1.0000 0.45936  0.99773  0.33288  Biso   1.000  N
  N7       1.0000 0.66893  0.79496  0.66622  Biso   1.000  N
  N8       1.0000 0.20504  0.87398  0.66622  Biso   1.000  N
  N9       1.0000 0.12602  0.33107  0.66622  Biso   1.000  N
  N10      1.0000 0.66440  0.87171  0.00045  Biso   1.000  N
  N11      1.0000 0.12829  0.79269  0.00045  Biso   1.000  N
  N12      1.0000 0.20731  0.33560  0.00045  Biso   1.000  N
  N13      1.0000 0.33107  0.20504  0.33378  Biso   1.000  N
  N14      1.0000 0.79496  0.12602  0.33378  Biso   1.000  N
  N15      1.0000 0.87398  0.66893  0.33378  Biso   1.000  N
  N16      1.0000 0.99773  0.53838  0.66712  Biso   1.000  N
  N17      1.0000 0.46162  0.45936  0.66712  Biso   1.000  N
  N18      1.0000 0.54064  0.00227  0.66712  Biso   1.000  N
  N19      1.0000 0.45060  0.08395  0.55523  Biso   1.000  N
  N20      1.0000 0.91605  0.36665  0.55523  Biso   1.000  N
  N21      1.0000 0.63335  0.54940  0.55523  Biso   1.000  N
  N22      1.0000 0.11727  0.41728  0.88856  Biso   1.000  N
  N23      1.0000 0.58272  0.69998  0.88856  Biso   1.000  N
  N24      1.0000 0.30002  0.88273  0.88856  Biso   1.000  N
  N25      1.0000 0.78393  0.75062  0.22190  Biso   1.000  N
  N26      1.0000 0.24938  0.03332  0.22190  Biso   1.000  N
  N27      1.0000 0.96668  0.21607  0.22190  Biso   1.000  N
  N28      1.0000 0.54940  0.91605  0.44477  Biso   1.000  N
  N29      1.0000 0.08395  0.63335  0.44477  Biso   1.000  N
  N30      1.0000 0.36665  0.45060  0.44477  Biso   1.000  N
  N31      1.0000 0.21607  0.24938  0.77810  Biso   1.000  N
  N32      1.0000 0.75062  0.96668  0.77810  Biso   1.000  N
  N33      1.0000 0.03332  0.78393  0.77810  Biso   1.000  N
  N34      1.0000 0.88273  0.58272  0.11144  Biso   1.000  N
  N35      1.0000 0.41728  0.30002  0.11144  Biso   1.000  N
  N36      1.0000 0.69998  0.11727  0.11144  Biso   1.000  N
  C1       1.0000 0.37012  0.10797  0.95970  Biso   1.000  C
  C2       1.0000 0.89203  0.26215  0.95970  Biso   1.000  C
  C3       1.0000 0.73785  0.62988  0.95970  Biso   1.000  C
  C4       1.0000 0.03679  0.44130  0.29303  Biso   1.000  C
  C5       1.0000 0.55870  0.59548  0.29303  Biso   1.000  C
  C6       1.0000 0.40452  0.96321  0.29303  Biso   1.000  C
  C7       1.0000 0.70345  0.77464  0.62637  Biso   1.000  C
  C8       1.0000 0.22536  0.92882  0.62637  Biso   1.000  C
  C9       1.0000 0.07118  0.29655  0.62637  Biso   1.000  C
  C10      1.0000 0.62988  0.89203  0.04030  Biso   1.000  C
  C11      1.0000 0.10797  0.73785  0.04030  Biso   1.000  C
  C12      1.0000 0.26215  0.37012  0.04030  Biso   1.000  C
  C13      1.0000 0.29655  0.22536  0.37363  Biso   1.000  C
  C14      1.0000 0.77464  0.07118  0.37363  Biso   1.000  C
  C15      1.0000 0.92882  0.70345  0.37363  Biso   1.000  C
  C16      1.0000 0.96321  0.55870  0.70697  Biso   1.000  C
  C17      1.0000 0.44130  0.40452  0.70697  Biso   1.000  C
  C18      1.0000 0.59548  0.03679  0.70697  Biso   1.000  C
  H1       1.0000 0.38060  0.08180  0.99180  Biso   1.000  H
  H2       1.0000 0.91820  0.29880  0.99180  Biso   1.000  H
  H3       1.0000 0.70120  0.61940  0.99180  Biso   1.000  H
  H4       1.0000 0.04727  0.41513  0.32513  Biso   1.000  H
  H5       1.0000 0.58487  0.63213  0.32513  Biso   1.000  H
  H6       1.0000 0.36787  0.95273  0.32513  Biso   1.000  H
  H7       1.0000 0.71393  0.74847  0.65847  Biso   1.000  H
  H8       1.0000 0.25153  0.96547  0.65847  Biso   1.000  H
  H9       1.0000 0.03453  0.28607  0.65847  Biso   1.000  H
  H10      1.0000 0.61940  0.91820  0.00820  Biso   1.000  H
  H11      1.0000 0.08180  0.70120  0.00820  Biso   1.000  H
  H12      1.0000 0.29880  0.38060  0.00820  Biso   1.000  H
  H13      1.0000 0.28607  0.25153  0.34153  Biso   1.000  H
  H14      1.0000 0.74847  0.03453  0.34153  Biso   1.000  H
  H15      1.0000 0.96547  0.71393  0.34153  Biso   1.000  H
  H16      1.0000 0.95273  0.58487  0.67487  Biso   1.000  H
  H17      1.0000 0.41513  0.36787  0.67487  Biso   1.000  H
  H18      1.0000 0.63213  0.04727  0.67487  Biso   1.000  H
  C19      1.0000 0.39101  0.12328  0.87430  Biso   1.000  C
  C20      1.0000 0.87672  0.26773  0.87430  Biso   1.000  C
  C21      1.0000 0.73227  0.60899  0.87430  Biso   1.000  C
  C22      1.0000 0.05768  0.45661  0.20763  Biso   1.000  C
  C23      1.0000 0.54339  0.60106  0.20763  Biso   1.000  C
  C24      1.0000 0.39894  0.94232  0.20763  Biso   1.000  C
  C25      1.0000 0.72434  0.78995  0.54097  Biso   1.000  C
  C26      1.0000 0.21005  0.93440  0.54097  Biso   1.000  C
  C27      1.0000 0.06560  0.27566  0.54097  Biso   1.000  C
  C28      1.0000 0.60899  0.87672  0.12570  Biso   1.000  C
  C29      1.0000 0.12328  0.73227  0.12570  Biso   1.000  C
  C30      1.0000 0.26773  0.39101  0.12570  Biso   1.000  C
  C31      1.0000 0.27566  0.21005  0.45903  Biso   1.000  C
  C32      1.0000 0.78995  0.06560  0.45903  Biso   1.000  C
  C33      1.0000 0.93440  0.72434  0.45903  Biso   1.000  C
  C34      1.0000 0.94232  0.54339  0.79237  Biso   1.000  C
  C35      1.0000 0.45661  0.39894  0.79237  Biso   1.000  C
  C36      1.0000 0.60106  0.05768  0.79237  Biso   1.000  C
  H19      1.0000 0.41540  0.10800  0.84850  Biso   1.000  H
  H20      1.0000 0.89200  0.30740  0.84850  Biso   1.000  H
  H21      1.0000 0.69260  0.58460  0.84850  Biso   1.000  H
  H22      1.0000 0.08207  0.44133  0.18183  Biso   1.000  H
  H23      1.0000 0.55867  0.64073  0.18183  Biso   1.000  H
  H24      1.0000 0.35927  0.91793  0.18183  Biso   1.000  H
  H25      1.0000 0.74873  0.77467  0.51517  Biso   1.000  H
  H26      1.0000 0.22533  0.97407  0.51517  Biso   1.000  H
  H27      1.0000 0.02593  0.25127  0.51517  Biso   1.000  H
  H28      1.0000 0.58460  0.89200  0.15150  Biso   1.000  H
  H29      1.0000 0.10800  0.69260  0.15150  Biso   1.000  H
  H30      1.0000 0.30740  0.41540  0.15150  Biso   1.000  H
  H31      1.0000 0.25127  0.22533  0.48483  Biso   1.000  H
  H32      1.0000 0.77467  0.02593  0.48483  Biso   1.000  H
  H33      1.0000 0.97407  0.74873  0.48483  Biso   1.000  H
  H34      1.0000 0.91793  0.55867  0.81817  Biso   1.000  H
  H35      1.0000 0.44133  0.35927  0.81817  Biso   1.000  H
  H36      1.0000 0.64073  0.08207  0.81817  Biso   1.000  H
  C37      1.0000 0.37592  0.16133  0.82660  Biso   1.000  C
  C38      1.0000 0.83867  0.21459  0.82660  Biso   1.000  C
  C39      1.0000 0.78541  0.62408  0.82660  Biso   1.000  C
  C40      1.0000 0.04259  0.49466  0.15993  Biso   1.000  C
  C41      1.0000 0.50534  0.54792  0.15993  Biso   1.000  C
  C42      1.0000 0.45208  0.95741  0.15993  Biso   1.000  C
  C43      1.0000 0.70925  0.82800  0.49327  Biso   1.000  C
  C44      1.0000 0.17200  0.88126  0.49327  Biso   1.000  C
  C45      1.0000 0.11874  0.29075  0.49327  Biso   1.000  C
  C46      1.0000 0.62408  0.83867  0.17340  Biso   1.000  C
  C47      1.0000 0.16133  0.78541  0.17340  Biso   1.000  C
  C48      1.0000 0.21459  0.37592  0.17340  Biso   1.000  C
  C49      1.0000 0.29075  0.17200  0.50673  Biso   1.000  C
  C50      1.0000 0.82800  0.11874  0.50673  Biso   1.000  C
  C51      1.0000 0.88126  0.70925  0.50673  Biso   1.000  C
  C52      1.0000 0.95741  0.50534  0.84007  Biso   1.000  C
  C53      1.0000 0.49466  0.45208  0.84007  Biso   1.000  C
  C54      1.0000 0.54792  0.04259  0.84007  Biso   1.000  C
  C55      1.0000 0.34048  0.18314  0.86810  Biso   1.000  C
  C56      1.0000 0.81686  0.15734  0.86810  Biso   1.000  C
  C57      1.0000 0.84266  0.65952  0.86810  Biso   1.000  C
  C58      1.0000 0.00715  0.51647  0.20143  Biso   1.000  C
  C59      1.0000 0.48353  0.49067  0.20143  Biso   1.000  C
  C60      1.0000 0.50933  0.99285  0.20143  Biso   1.000  C
  C61      1.0000 0.67381  0.84981  0.53477  Biso   1.000  C
  C62      1.0000 0.15019  0.82401  0.53477  Biso   1.000  C
  C63      1.0000 0.17599  0.32619  0.53477  Biso   1.000  C
  C64      1.0000 0.65952  0.81686  0.13190  Biso   1.000  C
  C65      1.0000 0.18314  0.84266  0.13190  Biso   1.000  C
  C66      1.0000 0.15734  0.34048  0.13190  Biso   1.000  C
  C67      1.0000 0.32619  0.15019  0.46523  Biso   1.000  C
  C68      1.0000 0.84981  0.17599  0.46523  Biso   1.000  C
  C69      1.0000 0.82401  0.67381  0.46523  Biso   1.000  C
  C70      1.0000 0.99285  0.48353  0.79857  Biso   1.000  C
  C71      1.0000 0.51647  0.50933  0.79857  Biso   1.000  C
  C72      1.0000 0.49067  0.00715  0.79857  Biso   1.000  C
  H37      1.0000 0.33010  0.21010  0.83810  Biso   1.000  H
  H38      1.0000 0.78990  0.12000  0.83810  Biso   1.000  H
  H39      1.0000 0.88000  0.66990  0.83810  Biso   1.000  H
  H40      1.0000 0.99677  0.54343  0.17143  Biso   1.000  H
  H41      1.0000 0.45657  0.45333  0.17143  Biso   1.000  H
  H42      1.0000 0.54667  0.00323  0.17143  Biso   1.000  H
  H43      1.0000 0.66343  0.87677  0.50477  Biso   1.000  H
  H44      1.0000 0.12323  0.78667  0.50477  Biso   1.000  H
  H45      1.0000 0.21333  0.33657  0.50477  Biso   1.000  H
  H46      1.0000 0.66990  0.78990  0.16190  Biso   1.000  H
  H47      1.0000 0.21010  0.88000  0.16190  Biso   1.000  H
  H48      1.0000 0.12000  0.33010  0.16190  Biso   1.000  H
  H49      1.0000 0.33657  0.12323  0.49523  Biso   1.000  H
  H50      1.0000 0.87677  0.21333  0.49523  Biso   1.000  H
  H51      1.0000 0.78667  0.66343  0.49523  Biso   1.000  H
  H52      1.0000 0.00323  0.45657  0.82857  Biso   1.000  H
  H53      1.0000 0.54343  0.54667  0.82857  Biso   1.000  H
  H54      1.0000 0.45333  0.99677  0.82857  Biso   1.000  H
  C73      1.0000 0.32088  0.16496  0.95320  Biso   1.000  C
  C74      1.0000 0.83504  0.15592  0.95320  Biso   1.000  C
  C75      1.0000 0.84408  0.67912  0.95320  Biso   1.000  C
  C76      1.0000 0.98755  0.49829  0.28653  Biso   1.000  C
  C77      1.0000 0.50171  0.48925  0.28653  Biso   1.000  C
  C78      1.0000 0.51075  0.01245  0.28653  Biso   1.000  C
  C79      1.0000 0.65421  0.83163  0.61987  Biso   1.000  C
  C80      1.0000 0.16837  0.82259  0.61987  Biso   1.000  C
  C81      1.0000 0.17741  0.34579  0.61987  Biso   1.000  C
  C82      1.0000 0.67912  0.83504  0.04680  Biso   1.000  C
  C83      1.0000 0.16496  0.84408  0.04680  Biso   1.000  C
  C84      1.0000 0.15592  0.32088  0.04680  Biso   1.000  C
  C85      1.0000 0.34579  0.16837  0.38013  Biso   1.000  C
  C86      1.0000 0.83163  0.17741  0.38013  Biso   1.000  C
  C87      1.0000 0.82259  0.65421  0.38013  Biso   1.000  C
  C88      1.0000 0.01245  0.50171  0.71347  Biso   1.000  C
  C89      1.0000 0.49829  0.51075  0.71347  Biso   1.000  C
  C90      1.0000 0.48925  0.98755  0.71347  Biso   1.000  C
  H55      1.0000 0.29580  0.17900  0.98030  Biso   1.000  H
  H56      1.0000 0.82100  0.11680  0.98030  Biso   1.000  H
  H57      1.0000 0.88320  0.70420  0.98030  Biso   1.000  H
  H58      1.0000 0.96247  0.51233  0.31363  Biso   1.000  H
  H59      1.0000 0.48767  0.45013  0.31363  Biso   1.000  H
  H60      1.0000 0.54987  0.03753  0.31363  Biso   1.000  H
  H61      1.0000 0.62913  0.84567  0.64697  Biso   1.000  H
  H62      1.0000 0.15433  0.78347  0.64697  Biso   1.000  H
  H63      1.0000 0.21653  0.37087  0.64697  Biso   1.000  H
  H64      1.0000 0.70420  0.82100  0.01970  Biso   1.000  H
  H65      1.0000 0.17900  0.88320  0.01970  Biso   1.000  H
  H66      1.0000 0.11680  0.29580  0.01970  Biso   1.000  H
  H67      1.0000 0.37087  0.15433  0.35303  Biso   1.000  H
  H68      1.0000 0.84567  0.21653  0.35303  Biso   1.000  H
  H69      1.0000 0.78347  0.62913  0.35303  Biso   1.000  H
  H70      1.0000 0.03753  0.48767  0.68637  Biso   1.000  H
  H71      1.0000 0.51233  0.54987  0.68637  Biso   1.000  H
  H72      1.0000 0.45013  0.96247  0.68637  Biso   1.000  H
  C91      1.0000 0.39833  0.18300  0.73520  Biso   1.000  C
  C92      1.0000 0.81700  0.21533  0.73520  Biso   1.000  C
  C93      1.0000 0.78467  0.60167  0.73520  Biso   1.000  C
  C94      1.0000 0.06500  0.51633  0.06853  Biso   1.000  C
  C95      1.0000 0.48367  0.54866  0.06853  Biso   1.000  C
  C96      1.0000 0.45134  0.93500  0.06853  Biso   1.000  C
  C97      1.0000 0.73166  0.84967  0.40187  Biso   1.000  C
  C98      1.0000 0.15033  0.88200  0.40187  Biso   1.000  C
  C99      1.0000 0.11800  0.26834  0.40187  Biso   1.000  C
  C100     1.0000 0.60167  0.81700  0.26480  Biso   1.000  C
  C101     1.0000 0.18300  0.78467  0.26480  Biso   1.000  C
  C102     1.0000 0.21533  0.39833  0.26480  Biso   1.000  C
  C103     1.0000 0.26834  0.15033  0.59813  Biso   1.000  C
  C104     1.0000 0.84967  0.11800  0.59813  Biso   1.000  C
  C105     1.0000 0.88200  0.73166  0.59813  Biso   1.000  C
  C106     1.0000 0.93500  0.48367  0.93147  Biso   1.000  C
  C107     1.0000 0.51633  0.45134  0.93147  Biso   1.000  C
  C108     1.0000 0.54866  0.06500  0.93147  Biso   1.000  C
  C109     1.0000 0.38759  0.08177  0.67580  Biso   1.000  C
  C110     1.0000 0.91823  0.30582  0.67580  Biso   1.000  C
  C111     1.0000 0.69418  0.61241  0.67580  Biso   1.000  C
  C112     1.0000 0.05426  0.41510  0.00913  Biso   1.000  C
  C113     1.0000 0.58490  0.63915  0.00913  Biso   1.000  C
  C114     1.0000 0.36085  0.94574  0.00913  Biso   1.000  C
  C115     1.0000 0.72092  0.74844  0.34247  Biso   1.000  C
  C116     1.0000 0.25156  0.97249  0.34247  Biso   1.000  C
  C117     1.0000 0.02751  0.27908  0.34247  Biso   1.000  C
  C118     1.0000 0.61241  0.91823  0.32420  Biso   1.000  C
  C119     1.0000 0.08177  0.69418  0.32420  Biso   1.000  C
  C120     1.0000 0.30582  0.38759  0.32420  Biso   1.000  C
  C121     1.0000 0.27908  0.25156  0.65753  Biso   1.000  C
  C122     1.0000 0.74844  0.02751  0.65753  Biso   1.000  C
  C123     1.0000 0.97249  0.72092  0.65753  Biso   1.000  C
  C124     1.0000 0.94574  0.58490  0.99087  Biso   1.000  C
  C125     1.0000 0.41510  0.36085  0.99087  Biso   1.000  C
  C126     1.0000 0.63915  0.05426  0.99087  Biso   1.000  C
  H73      1.0000 0.35630  0.05810  0.71780  Biso   1.000  H
  H74      1.0000 0.94190  0.29820  0.71780  Biso   1.000  H
  H75      1.0000 0.70180  0.64370  0.71780  Biso   1.000  H
  H76      1.0000 0.02297  0.39143  0.05113  Biso   1.000  H
  H77      1.0000 0.60857  0.63153  0.05113  Biso   1.000  H
  H78      1.0000 0.36847  0.97703  0.05113  Biso   1.000  H
  H79      1.0000 0.68963  0.72477  0.38447  Biso   1.000  H
  H80      1.0000 0.27523  0.96487  0.38447  Biso   1.000  H
  H81      1.0000 0.03513  0.31037  0.38447  Biso   1.000  H
  H82      1.0000 0.64370  0.94190  0.28220  Biso   1.000  H
  H83      1.0000 0.05810  0.70180  0.28220  Biso   1.000  H
  H84      1.0000 0.29820  0.35630  0.28220  Biso   1.000  H
  H85      1.0000 0.31037  0.27523  0.61553  Biso   1.000  H
  H86      1.0000 0.72477  0.03513  0.61553  Biso   1.000  H
  H87      1.0000 0.96487  0.68963  0.61553  Biso   1.000  H
  H88      1.0000 0.97703  0.60857  0.94887  Biso   1.000  H
  H89      1.0000 0.39143  0.36847  0.94887  Biso   1.000  H
  H90      1.0000 0.63153  0.02297  0.94887  Biso   1.000  H
  C127     1.0000 0.40580  0.05312  0.61460  Biso   1.000  C
  C128     1.0000 0.94688  0.35268  0.61460  Biso   1.000  C
  C129     1.0000 0.64732  0.59420  0.61460  Biso   1.000  C
  C130     1.0000 0.07247  0.38645  0.94793  Biso   1.000  C
  C131     1.0000 0.61355  0.68601  0.94793  Biso   1.000  C
  C132     1.0000 0.31399  0.92753  0.94793  Biso   1.000  C
  C133     1.0000 0.73913  0.71979  0.28127  Biso   1.000  C
  C134     1.0000 0.28021  0.01935  0.28127  Biso   1.000  C
  C135     1.0000 0.98065  0.26087  0.28127  Biso   1.000  C
  C136     1.0000 0.59420  0.94688  0.38540  Biso   1.000  C
  C137     1.0000 0.05312  0.64732  0.38540  Biso   1.000  C
  C138     1.0000 0.35268  0.40580  0.38540  Biso   1.000  C
  C139     1.0000 0.26087  0.28021  0.71873  Biso   1.000  C
  C140     1.0000 0.71979  0.98065  0.71873  Biso   1.000  C
  C141     1.0000 0.01935  0.73913  0.71873  Biso   1.000  C
  C142     1.0000 0.92753  0.61355  0.05207  Biso   1.000  C
  C143     1.0000 0.38645  0.31399  0.05207  Biso   1.000  C
  C144     1.0000 0.68601  0.07247  0.05207  Biso   1.000  C
  H91      1.0000 0.38540  0.00910  0.61450  Biso   1.000  H
  H92      1.0000 0.99090  0.37630  0.61450  Biso   1.000  H
  H93      1.0000 0.62370  0.61460  0.61450  Biso   1.000  H
  H94      1.0000 0.05207  0.34243  0.94783  Biso   1.000  H
  H95      1.0000 0.65757  0.70963  0.94783  Biso   1.000  H
  H96      1.0000 0.29037  0.94793  0.94783  Biso   1.000  H
  H97      1.0000 0.71873  0.67577  0.28117  Biso   1.000  H
  H98      1.0000 0.32423  0.04297  0.28117  Biso   1.000  H
  H99      1.0000 0.95703  0.28127  0.28117  Biso   1.000  H
  H100     1.0000 0.61460  0.99090  0.38550  Biso   1.000  H
  H101     1.0000 0.00910  0.62370  0.38550  Biso   1.000  H
  H102     1.0000 0.37630  0.38540  0.38550  Biso   1.000  H
  H103     1.0000 0.28127  0.32423  0.71883  Biso   1.000  H
  H104     1.0000 0.67577  0.95703  0.71883  Biso   1.000  H
  H105     1.0000 0.04297  0.71873  0.71883  Biso   1.000  H
  H106     1.0000 0.94793  0.65757  0.05217  Biso   1.000  H
  H107     1.0000 0.34243  0.29037  0.05217  Biso   1.000  H
  H108     1.0000 0.70963  0.05207  0.05217  Biso   1.000  H
  C145     1.0000 0.47800  0.14593  0.55560  Biso   1.000  C
  C146     1.0000 0.85407  0.33207  0.55560  Biso   1.000  C
  C147     1.0000 0.66793  0.52200  0.55560  Biso   1.000  C
  C148     1.0000 0.14467  0.47926  0.88893  Biso   1.000  C
  C149     1.0000 0.52074  0.66540  0.88893  Biso   1.000  C
  C150     1.0000 0.33460  0.85533  0.88893  Biso   1.000  C
  C151     1.0000 0.81133  0.81260  0.22227  Biso   1.000  C
  C152     1.0000 0.18740  0.99874  0.22227  Biso   1.000  C
  C153     1.0000 0.00126  0.18867  0.22227  Biso   1.000  C
  C154     1.0000 0.52200  0.85407  0.44440  Biso   1.000  C
  C155     1.0000 0.14593  0.66793  0.44440  Biso   1.000  C
  C156     1.0000 0.33207  0.47800  0.44440  Biso   1.000  C
  C157     1.0000 0.18867  0.18740  0.77773  Biso   1.000  C
  C158     1.0000 0.81260  0.00126  0.77773  Biso   1.000  C
  C159     1.0000 0.99874  0.81133  0.77773  Biso   1.000  C
  C160     1.0000 0.85533  0.52074  0.11107  Biso   1.000  C
  C161     1.0000 0.47926  0.33460  0.11107  Biso   1.000  C
  C162     1.0000 0.66540  0.14467  0.11107  Biso   1.000  C
  H109     1.0000 0.51020  0.16860  0.51430  Biso   1.000  H
  H110     1.0000 0.83140  0.34160  0.51430  Biso   1.000  H
  H111     1.0000 0.65840  0.48980  0.51430  Biso   1.000  H
  H112     1.0000 0.17687  0.50193  0.84763  Biso   1.000  H
  H113     1.0000 0.49807  0.67493  0.84763  Biso   1.000  H
  H114     1.0000 0.32507  0.82313  0.84763  Biso   1.000  H
  H115     1.0000 0.84353  0.83527  0.18097  Biso   1.000  H
  H116     1.0000 0.16473  0.00827  0.18097  Biso   1.000  H
  H117     1.0000 0.99173  0.15647  0.18097  Biso   1.000  H
  H118     1.0000 0.48980  0.83140  0.48570  Biso   1.000  H
  H119     1.0000 0.16860  0.65840  0.48570  Biso   1.000  H
  H120     1.0000 0.34160  0.51020  0.48570  Biso   1.000  H
  H121     1.0000 0.15647  0.16473  0.81903  Biso   1.000  H
  H122     1.0000 0.83527  0.99173  0.81903  Biso   1.000  H
  H123     1.0000 0.00827  0.84353  0.81903  Biso   1.000  H
  H124     1.0000 0.82313  0.49807  0.15237  Biso   1.000  H
  H125     1.0000 0.50193  0.32507  0.15237  Biso   1.000  H
  H126     1.0000 0.67493  0.17687  0.15237  Biso   1.000  H
  C163     1.0000 0.46192  0.17806  0.61260  Biso   1.000  C
  C164     1.0000 0.82194  0.28386  0.61260  Biso   1.000  C
  C165     1.0000 0.71614  0.53808  0.61260  Biso   1.000  C
  C166     1.0000 0.12859  0.51139  0.94593  Biso   1.000  C
  C167     1.0000 0.48861  0.61719  0.94593  Biso   1.000  C
  C168     1.0000 0.38281  0.87141  0.94593  Biso   1.000  C
  C169     1.0000 0.79525  0.84473  0.27927  Biso   1.000  C
  C170     1.0000 0.15527  0.95053  0.27927  Biso   1.000  C
  C171     1.0000 0.04947  0.20475  0.27927  Biso   1.000  C
  C172     1.0000 0.53808  0.82194  0.38740  Biso   1.000  C
  C173     1.0000 0.17806  0.71614  0.38740  Biso   1.000  C
  C174     1.0000 0.28386  0.46192  0.38740  Biso   1.000  C
  C175     1.0000 0.20475  0.15527  0.72073  Biso   1.000  C
  C176     1.0000 0.84473  0.04947  0.72073  Biso   1.000  C
  C177     1.0000 0.95053  0.79525  0.72073  Biso   1.000  C
  C178     1.0000 0.87141  0.48861  0.05407  Biso   1.000  C
  C179     1.0000 0.51139  0.38281  0.05407  Biso   1.000  C
  C180     1.0000 0.61719  0.12859  0.05407  Biso   1.000  C
  H127     1.0000 0.48200  0.22200  0.60970  Biso   1.000  H
  H128     1.0000 0.77800  0.26000  0.60970  Biso   1.000  H
  H129     1.0000 0.74000  0.51800  0.60970  Biso   1.000  H
  H130     1.0000 0.14867  0.55533  0.94303  Biso   1.000  H
  H131     1.0000 0.44467  0.59333  0.94303  Biso   1.000  H
  H132     1.0000 0.40667  0.85133  0.94303  Biso   1.000  H
  H133     1.0000 0.81533  0.88867  0.27637  Biso   1.000  H
  H134     1.0000 0.11133  0.92667  0.27637  Biso   1.000  H
  H135     1.0000 0.07333  0.18467  0.27637  Biso   1.000  H
  H136     1.0000 0.51800  0.77800  0.39030  Biso   1.000  H
  H137     1.0000 0.22200  0.74000  0.39030  Biso   1.000  H
  H138     1.0000 0.26000  0.48200  0.39030  Biso   1.000  H
  H139     1.0000 0.18467  0.11133  0.72363  Biso   1.000  H
  H140     1.0000 0.88867  0.07333  0.72363  Biso   1.000  H
  H141     1.0000 0.92667  0.81533  0.72363  Biso   1.000  H
  H142     1.0000 0.85133  0.44467  0.05697  Biso   1.000  H
  H143     1.0000 0.55533  0.40667  0.05697  Biso   1.000  H
  H144     1.0000 0.59333  0.14867  0.05697  Biso   1.000  H
  C181     1.0000 0.41589  0.14575  0.67490  Biso   1.000  C
  C182     1.0000 0.85425  0.27014  0.67490  Biso   1.000  C
  C183     1.0000 0.72986  0.58411  0.67490  Biso   1.000  C
  C184     1.0000 0.08256  0.47908  0.00823  Biso   1.000  C
  C185     1.0000 0.52092  0.60347  0.00823  Biso   1.000  C
  C186     1.0000 0.39653  0.91744  0.00823  Biso   1.000  C
  C187     1.0000 0.74922  0.81242  0.34157  Biso   1.000  C
  C188     1.0000 0.18758  0.93681  0.34157  Biso   1.000  C
  C189     1.0000 0.06319  0.25078  0.34157  Biso   1.000  C
  C190     1.0000 0.58411  0.85425  0.32510  Biso   1.000  C
  C191     1.0000 0.14575  0.72986  0.32510  Biso   1.000  C
  C192     1.0000 0.27014  0.41589  0.32510  Biso   1.000  C
  C193     1.0000 0.25078  0.18758  0.65843  Biso   1.000  C
  C194     1.0000 0.81242  0.06319  0.65843  Biso   1.000  C
  C195     1.0000 0.93681  0.74922  0.65843  Biso   1.000  C
  C196     1.0000 0.91744  0.52092  0.99177  Biso   1.000  C
  C197     1.0000 0.47908  0.39653  0.99177  Biso   1.000  C
  C198     1.0000 0.60347  0.08256  0.99177  Biso   1.000  C
  C199     1.0000 0.47771  0.12315  0.33250  Biso   1.000  C
  C200     1.0000 0.87685  0.35456  0.33250  Biso   1.000  C
  C201     1.0000 0.64544  0.52229  0.33250  Biso   1.000  C
  C202     1.0000 0.14438  0.45648  0.66583  Biso   1.000  C
  C203     1.0000 0.54352  0.68789  0.66583  Biso   1.000  C
  C204     1.0000 0.31211  0.85562  0.66583  Biso   1.000  C
  C205     1.0000 0.81104  0.78982  0.99917  Biso   1.000  C
  C206     1.0000 0.21018  0.02123  0.99917  Biso   1.000  C
  C207     1.0000 0.97877  0.18896  0.99917  Biso   1.000  C
  C208     1.0000 0.52229  0.87685  0.66750  Biso   1.000  C
  C209     1.0000 0.12315  0.64544  0.66750  Biso   1.000  C
  C210     1.0000 0.35456  0.47771  0.66750  Biso   1.000  C
  C211     1.0000 0.18896  0.21018  0.00083  Biso   1.000  C
  C212     1.0000 0.78982  0.97877  0.00083  Biso   1.000  C
  C213     1.0000 0.02123  0.81104  0.00083  Biso   1.000  C
  C214     1.0000 0.85562  0.54352  0.33417  Biso   1.000  C
  C215     1.0000 0.45648  0.31211  0.33417  Biso   1.000  C
  C216     1.0000 0.68789  0.14438  0.33417  Biso   1.000  C
  C217     1.0000 0.50961  0.16378  0.25460  Biso   1.000  C
  C218     1.0000 0.83622  0.34583  0.25460  Biso   1.000  C
  C219     1.0000 0.65417  0.49039  0.25460  Biso   1.000  C
  C220     1.0000 0.17628  0.49711  0.58793  Biso   1.000  C
  C221     1.0000 0.50289  0.67916  0.58793  Biso   1.000  C
  C222     1.0000 0.32084  0.82372  0.58793  Biso   1.000  C
  C223     1.0000 0.84294  0.83045  0.92127  Biso   1.000  C
  C224     1.0000 0.16955  0.01250  0.92127  Biso   1.000  C
  C225     1.0000 0.98750  0.15706  0.92127  Biso   1.000  C
  C226     1.0000 0.49039  0.83622  0.74540  Biso   1.000  C
  C227     1.0000 0.16378  0.65417  0.74540  Biso   1.000  C
  C228     1.0000 0.34583  0.50961  0.74540  Biso   1.000  C
  C229     1.0000 0.15706  0.16955  0.07873  Biso   1.000  C
  C230     1.0000 0.83045  0.98750  0.07873  Biso   1.000  C
  C231     1.0000 0.01250  0.84294  0.07873  Biso   1.000  C
  C232     1.0000 0.82372  0.50289  0.41207  Biso   1.000  C
  C233     1.0000 0.49711  0.32084  0.41207  Biso   1.000  C
  C234     1.0000 0.67916  0.17628  0.41207  Biso   1.000  C
  C235     1.0000 0.57395  0.20164  0.25610  Biso   1.000  C
  C236     1.0000 0.79836  0.37231  0.25610  Biso   1.000  C
  C237     1.0000 0.62769  0.42605  0.25610  Biso   1.000  C
  C238     1.0000 0.24062  0.53497  0.58943  Biso   1.000  C
  C239     1.0000 0.46503  0.70564  0.58943  Biso   1.000  C
  C240     1.0000 0.29436  0.75938  0.58943  Biso   1.000  C
  C241     1.0000 0.90728  0.86831  0.92277  Biso   1.000  C
  C242     1.0000 0.13169  0.03898  0.92277  Biso   1.000  C
  C243     1.0000 0.96102  0.09272  0.92277  Biso   1.000  C
  C244     1.0000 0.42605  0.79836  0.74390  Biso   1.000  C
  C245     1.0000 0.20164  0.62769  0.74390  Biso   1.000  C
  C246     1.0000 0.37231  0.57395  0.74390  Biso   1.000  C
  C247     1.0000 0.09272  0.13169  0.07723  Biso   1.000  C
  C248     1.0000 0.86831  0.96102  0.07723  Biso   1.000  C
  C249     1.0000 0.03898  0.90728  0.07723  Biso   1.000  C
  C250     1.0000 0.75938  0.46503  0.41057  Biso   1.000  C
  C251     1.0000 0.53497  0.29436  0.41057  Biso   1.000  C
  C252     1.0000 0.70564  0.24062  0.41057  Biso   1.000  C
  H145     1.0000 0.59690  0.20180  0.30620  Biso   1.000  H
  H146     1.0000 0.79820  0.39510  0.30620  Biso   1.000  H
  H147     1.0000 0.60490  0.40310  0.30620  Biso   1.000  H
  H148     1.0000 0.26357  0.53513  0.63953  Biso   1.000  H
  H149     1.0000 0.46487  0.72843  0.63953  Biso   1.000  H
  H150     1.0000 0.27157  0.73643  0.63953  Biso   1.000  H
  H151     1.0000 0.93023  0.86847  0.97287  Biso   1.000  H
  H152     1.0000 0.13153  0.06177  0.97287  Biso   1.000  H
  H153     1.0000 0.93823  0.06977  0.97287  Biso   1.000  H
  H154     1.0000 0.40310  0.79820  0.69380  Biso   1.000  H
  H155     1.0000 0.20180  0.60490  0.69380  Biso   1.000  H
  H156     1.0000 0.39510  0.59690  0.69380  Biso   1.000  H
  H157     1.0000 0.06977  0.13153  0.02713  Biso   1.000  H
  H158     1.0000 0.86847  0.93823  0.02713  Biso   1.000  H
  H159     1.0000 0.06177  0.93023  0.02713  Biso   1.000  H
  H160     1.0000 0.73643  0.46487  0.36047  Biso   1.000  H
  H161     1.0000 0.53513  0.27157  0.36047  Biso   1.000  H
  H162     1.0000 0.72843  0.26357  0.36047  Biso   1.000  H
  C253     1.0000 0.60448  0.23926  0.18390  Biso   1.000  C
  C254     1.0000 0.76074  0.36522  0.18390  Biso   1.000  C
  C255     1.0000 0.63478  0.39552  0.18390  Biso   1.000  C
  C256     1.0000 0.27115  0.57259  0.51723  Biso   1.000  C
  C257     1.0000 0.42741  0.69855  0.51723  Biso   1.000  C
  C258     1.0000 0.30145  0.72885  0.51723  Biso   1.000  C
  C259     1.0000 0.93781  0.90593  0.85057  Biso   1.000  C
  C260     1.0000 0.09407  0.03189  0.85057  Biso   1.000  C
  C261     1.0000 0.96811  0.06219  0.85057  Biso   1.000  C
  C262     1.0000 0.39552  0.76074  0.81610  Biso   1.000  C
  C263     1.0000 0.23926  0.63478  0.81610  Biso   1.000  C
  C264     1.0000 0.36522  0.60448  0.81610  Biso   1.000  C
  C265     1.0000 0.06219  0.09407  0.14943  Biso   1.000  C
  C266     1.0000 0.90593  0.96811  0.14943  Biso   1.000  C
  C267     1.0000 0.03189  0.93781  0.14943  Biso   1.000  C
  C268     1.0000 0.72885  0.42741  0.48277  Biso   1.000  C
  C269     1.0000 0.57259  0.30145  0.48277  Biso   1.000  C
  C270     1.0000 0.69855  0.27115  0.48277  Biso   1.000  C
  H163     1.0000 0.64830  0.26450  0.18460  Biso   1.000  H
  H164     1.0000 0.73550  0.38380  0.18460  Biso   1.000  H
  H165     1.0000 0.61620  0.35170  0.18460  Biso   1.000  H
  H166     1.0000 0.31497  0.59783  0.51793  Biso   1.000  H
  H167     1.0000 0.40217  0.71713  0.51793  Biso   1.000  H
  H168     1.0000 0.28287  0.68503  0.51793  Biso   1.000  H
  H169     1.0000 0.98163  0.93117  0.85127  Biso   1.000  H
  H170     1.0000 0.06883  0.05047  0.85127  Biso   1.000  H
  H171     1.0000 0.94953  0.01837  0.85127  Biso   1.000  H
  H172     1.0000 0.35170  0.73550  0.81540  Biso   1.000  H
  H173     1.0000 0.26450  0.61620  0.81540  Biso   1.000  H
  H174     1.0000 0.38380  0.64830  0.81540  Biso   1.000  H
  H175     1.0000 0.01837  0.06883  0.14873  Biso   1.000  H
  H176     1.0000 0.93117  0.94953  0.14873  Biso   1.000  H
  H177     1.0000 0.05047  0.98163  0.14873  Biso   1.000  H
  H178     1.0000 0.68503  0.40217  0.48207  Biso   1.000  H
  H179     1.0000 0.59783  0.28287  0.48207  Biso   1.000  H
  H180     1.0000 0.71713  0.31497  0.48207  Biso   1.000  H
  C271     1.0000 0.57166  0.24002  0.11200  Biso   1.000  C
  C272     1.0000 0.75998  0.33164  0.11200  Biso   1.000  C
  C273     1.0000 0.66836  0.42834  0.11200  Biso   1.000  C
  C274     1.0000 0.23833  0.57335  0.44533  Biso   1.000  C
  C275     1.0000 0.42665  0.66497  0.44533  Biso   1.000  C
  C276     1.0000 0.33503  0.76167  0.44533  Biso   1.000  C
  C277     1.0000 0.90499  0.90669  0.77867  Biso   1.000  C
  C278     1.0000 0.09331  0.99831  0.77867  Biso   1.000  C
  C279     1.0000 0.00169  0.09501  0.77867  Biso   1.000  C
  C280     1.0000 0.42834  0.75998  0.88800  Biso   1.000  C
  C281     1.0000 0.24002  0.66836  0.88800  Biso   1.000  C
  C282     1.0000 0.33164  0.57166  0.88800  Biso   1.000  C
  C283     1.0000 0.09501  0.09331  0.22133  Biso   1.000  C
  C284     1.0000 0.90669  0.00169  0.22133  Biso   1.000  C
  C285     1.0000 0.99831  0.90499  0.22133  Biso   1.000  C
  C286     1.0000 0.76167  0.42665  0.55467  Biso   1.000  C
  C287     1.0000 0.57335  0.33503  0.55467  Biso   1.000  C
  C288     1.0000 0.66497  0.23833  0.55467  Biso   1.000  C
  H181     1.0000 0.59260  0.26600  0.06320  Biso   1.000  H
  H182     1.0000 0.73400  0.32660  0.06320  Biso   1.000  H
  H183     1.0000 0.67340  0.40740  0.06320  Biso   1.000  H
  H184     1.0000 0.25927  0.59933  0.39653  Biso   1.000  H
  H185     1.0000 0.40067  0.65993  0.39653  Biso   1.000  H
  H186     1.0000 0.34007  0.74073  0.39653  Biso   1.000  H
  H187     1.0000 0.92593  0.93267  0.72987  Biso   1.000  H
  H188     1.0000 0.06733  0.99327  0.72987  Biso   1.000  H
  H189     1.0000 0.00673  0.07407  0.72987  Biso   1.000  H
  H190     1.0000 0.40740  0.73400  0.93680  Biso   1.000  H
  H191     1.0000 0.26600  0.67340  0.93680  Biso   1.000  H
  H192     1.0000 0.32660  0.59260  0.93680  Biso   1.000  H
  H193     1.0000 0.07407  0.06733  0.27013  Biso   1.000  H
  H194     1.0000 0.93267  0.00673  0.27013  Biso   1.000  H
  H195     1.0000 0.99327  0.92593  0.27013  Biso   1.000  H
  H196     1.0000 0.74073  0.40067  0.60347  Biso   1.000  H
  H197     1.0000 0.59933  0.34007  0.60347  Biso   1.000  H
  H198     1.0000 0.65993  0.25927  0.60347  Biso   1.000  H
  C289     1.0000 0.50761  0.20271  0.11080  Biso   1.000  C
  C290     1.0000 0.79729  0.30490  0.11080  Biso   1.000  C
  C291     1.0000 0.69510  0.49239  0.11080  Biso   1.000  C
  C292     1.0000 0.17428  0.53604  0.44413  Biso   1.000  C
  C293     1.0000 0.46396  0.63823  0.44413  Biso   1.000  C
  C294     1.0000 0.36177  0.82572  0.44413  Biso   1.000  C
  C295     1.0000 0.84094  0.86938  0.77747  Biso   1.000  C
  C296     1.0000 0.13062  0.97157  0.77747  Biso   1.000  C
  C297     1.0000 0.02843  0.15906  0.77747  Biso   1.000  C
  C298     1.0000 0.49239  0.79729  0.88920  Biso   1.000  C
  C299     1.0000 0.20271  0.69510  0.88920  Biso   1.000  C
  C300     1.0000 0.30490  0.50761  0.88920  Biso   1.000  C
  C301     1.0000 0.15906  0.13062  0.22253  Biso   1.000  C
  C302     1.0000 0.86938  0.02843  0.22253  Biso   1.000  C
  C303     1.0000 0.97157  0.84094  0.22253  Biso   1.000  C
  C304     1.0000 0.82572  0.46396  0.55587  Biso   1.000  C
  C305     1.0000 0.53604  0.36177  0.55587  Biso   1.000  C
  C306     1.0000 0.63823  0.17428  0.55587  Biso   1.000  C
  H199     1.0000 0.48490  0.20340  0.06100  Biso   1.000  H
  H200     1.0000 0.79660  0.28150  0.06100  Biso   1.000  H
  H201     1.0000 0.71850  0.51510  0.06100  Biso   1.000  H
  H202     1.0000 0.15157  0.53673  0.39433  Biso   1.000  H
  H203     1.0000 0.46327  0.61483  0.39433  Biso   1.000  H
  H204     1.0000 0.38517  0.84843  0.39433  Biso   1.000  H
  H205     1.0000 0.81823  0.87007  0.72767  Biso   1.000  H
  H206     1.0000 0.12993  0.94817  0.72767  Biso   1.000  H
  H207     1.0000 0.05183  0.18177  0.72767  Biso   1.000  H
  H208     1.0000 0.51510  0.79660  0.93900  Biso   1.000  H
  H209     1.0000 0.20340  0.71850  0.93900  Biso   1.000  H
  H210     1.0000 0.28150  0.48490  0.93900  Biso   1.000  H
  H211     1.0000 0.18177  0.12993  0.27233  Biso   1.000  H
  H212     1.0000 0.87007  0.05183  0.27233  Biso   1.000  H
  H213     1.0000 0.94817  0.81823  0.27233  Biso   1.000  H
  H214     1.0000 0.84843  0.46327  0.60567  Biso   1.000  H
  H215     1.0000 0.53673  0.38517  0.60567  Biso   1.000  H
  H216     1.0000 0.61483  0.15157  0.60567  Biso   1.000  H
  C307     1.0000 0.47649  0.16437  0.18160  Biso   1.000  C
  C308     1.0000 0.83563  0.31212  0.18160  Biso   1.000  C
  C309     1.0000 0.68788  0.52351  0.18160  Biso   1.000  C
  C310     1.0000 0.14316  0.49770  0.51493  Biso   1.000  C
  C311     1.0000 0.50230  0.64545  0.51493  Biso   1.000  C
  C312     1.0000 0.35455  0.85684  0.51493  Biso   1.000  C
  C313     1.0000 0.80982  0.83104  0.84827  Biso   1.000  C
  C314     1.0000 0.16896  0.97879  0.84827  Biso   1.000  C
  C315     1.0000 0.02121  0.19018  0.84827  Biso   1.000  C
  C316     1.0000 0.52351  0.83563  0.81840  Biso   1.000  C
  C317     1.0000 0.16437  0.68788  0.81840  Biso   1.000  C
  C318     1.0000 0.31212  0.47649  0.81840  Biso   1.000  C
  C319     1.0000 0.19018  0.16896  0.15173  Biso   1.000  C
  C320     1.0000 0.83104  0.02121  0.15173  Biso   1.000  C
  C321     1.0000 0.97879  0.80982  0.15173  Biso   1.000  C
  C322     1.0000 0.85684  0.50230  0.48507  Biso   1.000  C
  C323     1.0000 0.49770  0.35455  0.48507  Biso   1.000  C
  C324     1.0000 0.64545  0.14316  0.48507  Biso   1.000  C
  C325     1.0000 0.40808  0.12024  0.16931  Biso   1.000  C
  C326     1.0000 0.87976  0.28784  0.16931  Biso   1.000  C
  C327     1.0000 0.71216  0.59192  0.16931  Biso   1.000  C
  C328     1.0000 0.07475  0.45357  0.50264  Biso   1.000  C
  C329     1.0000 0.54643  0.62117  0.50264  Biso   1.000  C
  C330     1.0000 0.37883  0.92525  0.50264  Biso   1.000  C
  C331     1.0000 0.74141  0.78691  0.83598  Biso   1.000  C
  C332     1.0000 0.21309  0.95451  0.83598  Biso   1.000  C
  C333     1.0000 0.04549  0.25859  0.83598  Biso   1.000  C
  C334     1.0000 0.59192  0.87976  0.83069  Biso   1.000  C
  C335     1.0000 0.12024  0.71216  0.83069  Biso   1.000  C
  C336     1.0000 0.28784  0.40808  0.83069  Biso   1.000  C
  C337     1.0000 0.25859  0.21309  0.16402  Biso   1.000  C
  C338     1.0000 0.78691  0.04549  0.16402  Biso   1.000  C
  C339     1.0000 0.95451  0.74141  0.16402  Biso   1.000  C
  C340     1.0000 0.92525  0.54643  0.49736  Biso   1.000  C
  C341     1.0000 0.45357  0.37883  0.49736  Biso   1.000  C
  C342     1.0000 0.62117  0.07475  0.49736  Biso   1.000  C
  O91      1.0000 0.53790  0.28940  0.86210  Biso   1.000  O
  O92      1.0000 0.71060  0.24850  0.86210  Biso   1.000  O
  O93      1.0000 0.75150  0.46210  0.86210  Biso   1.000  O
  O94      1.0000 0.20457  0.62273  0.19543  Biso   1.000  O
  O95      1.0000 0.37727  0.58183  0.19543  Biso   1.000  O
  O96      1.0000 0.41817  0.79543  0.19543  Biso   1.000  O
  O97      1.0000 0.87123  0.95607  0.52877  Biso   1.000  O
  O98      1.0000 0.04393  0.91517  0.52877  Biso   1.000  O
  O99      1.0000 0.08483  0.12877  0.52877  Biso   1.000  O
  O100     1.0000 0.46210  0.71060  0.13790  Biso   1.000  O
  O101     1.0000 0.28940  0.75150  0.13790  Biso   1.000  O
  O102     1.0000 0.24850  0.53790  0.13790  Biso   1.000  O
  O103     1.0000 0.12877  0.04393  0.47123  Biso   1.000  O
  O104     1.0000 0.95607  0.08483  0.47123  Biso   1.000  O
  O105     1.0000 0.91517  0.87123  0.47123  Biso   1.000  O
  O106     1.0000 0.79543  0.37727  0.80457  Biso   1.000  O
  O107     1.0000 0.62273  0.41817  0.80457  Biso   1.000  O
  O108     1.0000 0.58183  0.20457  0.80457  Biso   1.000  O
  H217     1.0000 0.49950  0.27090  0.88170  Biso   1.000  H
  H218     1.0000 0.72910  0.22860  0.88170  Biso   1.000  H
  H219     1.0000 0.77140  0.50050  0.88170  Biso   1.000  H
  H220     1.0000 0.16617  0.60423  0.21503  Biso   1.000  H
  H221     1.0000 0.39577  0.56193  0.21503  Biso   1.000  H
  H222     1.0000 0.43807  0.83383  0.21503  Biso   1.000  H
  H223     1.0000 0.83283  0.93757  0.54837  Biso   1.000  H
  H224     1.0000 0.06243  0.89527  0.54837  Biso   1.000  H
  H225     1.0000 0.10473  0.16717  0.54837  Biso   1.000  H
  H226     1.0000 0.50050  0.72910  0.11830  Biso   1.000  H
  H227     1.0000 0.27090  0.77140  0.11830  Biso   1.000  H
  H228     1.0000 0.22860  0.49950  0.11830  Biso   1.000  H
  H229     1.0000 0.16717  0.06243  0.45163  Biso   1.000  H
  H230     1.0000 0.93757  0.10473  0.45163  Biso   1.000  H
  H231     1.0000 0.89527  0.83283  0.45163  Biso   1.000  H
  H232     1.0000 0.83383  0.39577  0.78497  Biso   1.000  H
  H233     1.0000 0.60423  0.43807  0.78497  Biso   1.000  H
  H234     1.0000 0.56193  0.16617  0.78497  Biso   1.000  H
  C343     1.0000 0.57400  0.35500  0.83300  Biso   1.000  C
  C344     1.0000 0.64500  0.21900  0.83300  Biso   1.000  C
  C345     1.0000 0.78100  0.42600  0.83300  Biso   1.000  C
  C346     1.0000 0.24067  0.68833  0.16633  Biso   1.000  C
  C347     1.0000 0.31167  0.55233  0.16633  Biso   1.000  C
  C348     1.0000 0.44767  0.75933  0.16633  Biso   1.000  C
  C349     1.0000 0.90733  0.02167  0.49967  Biso   1.000  C
  C350     1.0000 0.97833  0.88567  0.49967  Biso   1.000  C
  C351     1.0000 0.11433  0.09267  0.49967  Biso   1.000  C
  C352     1.0000 0.42600  0.64500  0.16700  Biso   1.000  C
  C353     1.0000 0.35500  0.78100  0.16700  Biso   1.000  C
  C354     1.0000 0.21900  0.57400  0.16700  Biso   1.000  C
  C355     1.0000 0.09267  0.97833  0.50033  Biso   1.000  C
  C356     1.0000 0.02167  0.11433  0.50033  Biso   1.000  C
  C357     1.0000 0.88567  0.90733  0.50033  Biso   1.000  C
  C358     1.0000 0.75933  0.31167  0.83367  Biso   1.000  C
  C359     1.0000 0.68833  0.44767  0.83367  Biso   1.000  C
  C360     1.0000 0.55233  0.24067  0.83367  Biso   1.000  C
  H235     1.0000 0.54880  0.36460  0.79360  Biso   1.000  H
  H236     1.0000 0.63540  0.18420  0.79360  Biso   1.000  H
  H237     1.0000 0.81580  0.45120  0.79360  Biso   1.000  H
  H238     1.0000 0.21547  0.69793  0.12693  Biso   1.000  H
  H239     1.0000 0.30207  0.51753  0.12693  Biso   1.000  H
  H240     1.0000 0.48247  0.78453  0.12693  Biso   1.000  H
  H241     1.0000 0.88213  0.03127  0.46027  Biso   1.000  H
  H242     1.0000 0.96873  0.85087  0.46027  Biso   1.000  H
  H243     1.0000 0.14913  0.11787  0.46027  Biso   1.000  H
  H244     1.0000 0.45120  0.63540  0.20640  Biso   1.000  H
  H245     1.0000 0.36460  0.81580  0.20640  Biso   1.000  H
  H246     1.0000 0.18420  0.54880  0.20640  Biso   1.000  H
  H247     1.0000 0.11787  0.96873  0.53973  Biso   1.000  H
  H248     1.0000 0.03127  0.14913  0.53973  Biso   1.000  H
  H249     1.0000 0.85087  0.88213  0.53973  Biso   1.000  H
  H250     1.0000 0.78453  0.30207  0.87307  Biso   1.000  H
  H251     1.0000 0.69793  0.48247  0.87307  Biso   1.000  H
  H252     1.0000 0.51753  0.21547  0.87307  Biso   1.000  H
  H253     1.0000 0.61140  0.36180  0.80130  Biso   1.000  H
  H254     1.0000 0.63820  0.24960  0.80130  Biso   1.000  H
  H255     1.0000 0.75040  0.38860  0.80130  Biso   1.000  H
  H256     1.0000 0.27807  0.69513  0.13463  Biso   1.000  H
  H257     1.0000 0.30487  0.58293  0.13463  Biso   1.000  H
  H258     1.0000 0.41707  0.72193  0.13463  Biso   1.000  H
  H259     1.0000 0.94473  0.02847  0.46797  Biso   1.000  H
  H260     1.0000 0.97153  0.91627  0.46797  Biso   1.000  H
  H261     1.0000 0.08373  0.05527  0.46797  Biso   1.000  H
  H262     1.0000 0.38860  0.63820  0.19870  Biso   1.000  H
  H263     1.0000 0.36180  0.75040  0.19870  Biso   1.000  H
  H264     1.0000 0.24960  0.61140  0.19870  Biso   1.000  H
  H265     1.0000 0.05527  0.97153  0.53203  Biso   1.000  H
  H266     1.0000 0.02847  0.08373  0.53203  Biso   1.000  H
  H267     1.0000 0.91627  0.94473  0.53203  Biso   1.000  H
  H268     1.0000 0.72193  0.30487  0.86537  Biso   1.000  H
  H269     1.0000 0.69513  0.41707  0.86537  Biso   1.000  H
  H270     1.0000 0.58293  0.27807  0.86537  Biso   1.000  H
  H271     1.0000 0.58650  0.38260  0.88430  Biso   1.000  H
  H272     1.0000 0.61740  0.20390  0.88430  Biso   1.000  H
  H273     1.0000 0.79610  0.41350  0.88430  Biso   1.000  H
  H274     1.0000 0.25317  0.71593  0.21763  Biso   1.000  H
  H275     1.0000 0.28407  0.53723  0.21763  Biso   1.000  H
  H276     1.0000 0.46277  0.74683  0.21763  Biso   1.000  H
  H277     1.0000 0.91983  0.04927  0.55097  Biso   1.000  H
  H278     1.0000 0.95073  0.87057  0.55097  Biso   1.000  H
  H279     1.0000 0.12943  0.08017  0.55097  Biso   1.000  H
  H280     1.0000 0.41350  0.61740  0.11570  Biso   1.000  H
  H281     1.0000 0.38260  0.79610  0.11570  Biso   1.000  H
  H282     1.0000 0.20390  0.58650  0.11570  Biso   1.000  H
  H283     1.0000 0.08017  0.95073  0.44903  Biso   1.000  H
  H284     1.0000 0.04927  0.12943  0.44903  Biso   1.000  H
  H285     1.0000 0.87057  0.91983  0.44903  Biso   1.000  H
  H286     1.0000 0.74683  0.28407  0.78237  Biso   1.000  H
  H287     1.0000 0.71593  0.46277  0.78237  Biso   1.000  H
  H288     1.0000 0.53723  0.25317  0.78237  Biso   1.000  H
