data_image0
_cell_length_a       26.2445
_cell_length_b       13.4325
_cell_length_c       22.781
_cell_angle_alpha    90
_cell_angle_beta     108.676
_cell_angle_gamma    90

_symmetry_space_group_name_H-M    "P 1"
_symmetry_int_tables_number       1

loop_
  _symmetry_equiv_pos_as_xyz
  'x, y, z'

loop_
  _atom_site_label
  _atom_site_occupancy
  _atom_site_fract_x
  _atom_site_fract_y
  _atom_site_fract_z
  _atom_site_thermal_displace_type
  _atom_site_B_iso_or_equiv
  _atom_site_type_symbol
  Cu1      1.0000 0.17389  0.93856  0.69792  Biso   1.000  Cu
  Cu2      1.0000 0.82611  0.93856  0.80208  Biso   1.000  Cu
  Cu3      1.0000 0.67389  0.43856  0.69792  Biso   1.000  Cu
  Cu4      1.0000 0.32611  0.43856  0.80208  Biso   1.000  Cu
  Cu5      1.0000 0.82611  0.06144  0.30208  Biso   1.000  Cu
  Cu6      1.0000 0.17389  0.06144  0.19792  Biso   1.000  Cu
  Cu7      1.0000 0.32611  0.56144  0.30208  Biso   1.000  Cu
  Cu8      1.0000 0.67389  0.56144  0.19792  Biso   1.000  Cu
  C1       1.0000 0.12980  0.81190  0.61780  Biso   1.000  C
  C2       1.0000 0.87020  0.81190  0.88220  Biso   1.000  C
  C3       1.0000 0.62980  0.31190  0.61780  Biso   1.000  C
  C4       1.0000 0.37020  0.31190  0.88220  Biso   1.000  C
  C5       1.0000 0.87020  0.18810  0.38220  Biso   1.000  C
  C6       1.0000 0.12980  0.18810  0.11780  Biso   1.000  C
  C7       1.0000 0.37020  0.68810  0.38220  Biso   1.000  C
  C8       1.0000 0.62980  0.68810  0.11780  Biso   1.000  C
  C9       1.0000 0.09740  0.74770  0.56460  Biso   1.000  C
  C10      1.0000 0.90260  0.74770  0.93540  Biso   1.000  C
  C11      1.0000 0.59740  0.24770  0.56460  Biso   1.000  C
  C12      1.0000 0.40260  0.24770  0.93540  Biso   1.000  C
  C13      1.0000 0.90260  0.25230  0.43540  Biso   1.000  C
  C14      1.0000 0.09740  0.25230  0.06460  Biso   1.000  C
  C15      1.0000 0.40260  0.75230  0.43540  Biso   1.000  C
  C16      1.0000 0.59740  0.75230  0.06460  Biso   1.000  C
  C17      1.0000 0.11890  0.66460  0.54840  Biso   1.000  C
  C18      1.0000 0.88110  0.66460  0.95160  Biso   1.000  C
  C19      1.0000 0.61890  0.16460  0.54840  Biso   1.000  C
  C20      1.0000 0.38110  0.16460  0.95160  Biso   1.000  C
  C21      1.0000 0.88110  0.33540  0.45160  Biso   1.000  C
  C22      1.0000 0.11890  0.33540  0.04840  Biso   1.000  C
  C23      1.0000 0.38110  0.83540  0.45160  Biso   1.000  C
  C24      1.0000 0.61890  0.83540  0.04840  Biso   1.000  C
  H1       1.0000 0.15440  0.64780  0.56970  Biso   1.000  H
  H2       1.0000 0.84560  0.64780  0.93030  Biso   1.000  H
  H3       1.0000 0.65440  0.14780  0.56970  Biso   1.000  H
  H4       1.0000 0.34560  0.14780  0.93030  Biso   1.000  H
  H5       1.0000 0.84560  0.35220  0.43030  Biso   1.000  H
  H6       1.0000 0.15440  0.35220  0.06970  Biso   1.000  H
  H7       1.0000 0.34560  0.85220  0.43030  Biso   1.000  H
  H8       1.0000 0.65440  0.85220  0.06970  Biso   1.000  H
  C25      1.0000 0.08870  0.60440  0.50050  Biso   1.000  C
  C26      1.0000 0.91130  0.60440  0.99950  Biso   1.000  C
  C27      1.0000 0.58870  0.10440  0.50050  Biso   1.000  C
  C28      1.0000 0.41130  0.10440  0.99950  Biso   1.000  C
  C29      1.0000 0.91130  0.39560  0.49950  Biso   1.000  C
  C30      1.0000 0.08870  0.39560  0.00050  Biso   1.000  C
  C31      1.0000 0.41130  0.89560  0.49950  Biso   1.000  C
  C32      1.0000 0.58870  0.89560  0.00050  Biso   1.000  C
  H9       1.0000 0.10430  0.54810  0.48970  Biso   1.000  H
  H10      1.0000 0.89570  0.54810  0.01030  Biso   1.000  H
  H11      1.0000 0.60430  0.04810  0.48970  Biso   1.000  H
  H12      1.0000 0.39570  0.04810  0.01030  Biso   1.000  H
  H13      1.0000 0.89570  0.45190  0.51030  Biso   1.000  H
  H14      1.0000 0.10430  0.45190  0.98970  Biso   1.000  H
  H15      1.0000 0.39570  0.95190  0.51030  Biso   1.000  H
  H16      1.0000 0.60430  0.95190  0.98970  Biso   1.000  H
  C33      1.0000 0.04420  0.77370  0.53080  Biso   1.000  C
  C34      1.0000 0.95580  0.77370  0.96920  Biso   1.000  C
  C35      1.0000 0.54420  0.27370  0.53080  Biso   1.000  C
  C36      1.0000 0.45580  0.27370  0.96920  Biso   1.000  C
  C37      1.0000 0.95580  0.22630  0.46920  Biso   1.000  C
  C38      1.0000 0.04420  0.22630  0.03080  Biso   1.000  C
  C39      1.0000 0.45580  0.72630  0.46920  Biso   1.000  C
  C40      1.0000 0.54420  0.72630  0.03080  Biso   1.000  C
  H17      1.0000 0.02930  0.83190  0.54040  Biso   1.000  H
  H18      1.0000 0.97070  0.83190  0.95960  Biso   1.000  H
  H19      1.0000 0.52930  0.33190  0.54040  Biso   1.000  H
  H20      1.0000 0.47070  0.33190  0.95960  Biso   1.000  H
  H21      1.0000 0.97070  0.16810  0.45960  Biso   1.000  H
  H22      1.0000 0.02930  0.16810  0.04040  Biso   1.000  H
  H23      1.0000 0.47070  0.66810  0.45960  Biso   1.000  H
  H24      1.0000 0.52930  0.66810  0.04040  Biso   1.000  H
  C41      1.0000 0.01410  0.71340  0.48370  Biso   1.000  C
  C42      1.0000 0.98590  0.71340  0.01630  Biso   1.000  C
  C43      1.0000 0.51410  0.21340  0.48370  Biso   1.000  C
  C44      1.0000 0.48590  0.21340  0.01630  Biso   1.000  C
  C45      1.0000 0.98590  0.28660  0.51630  Biso   1.000  C
  C46      1.0000 0.01410  0.28660  0.98370  Biso   1.000  C
  C47      1.0000 0.48590  0.78660  0.51630  Biso   1.000  C
  C48      1.0000 0.51410  0.78660  0.98370  Biso   1.000  C
  H25      1.0000 0.97880  0.73110  0.46180  Biso   1.000  H
  H26      1.0000 0.02120  0.73110  0.03820  Biso   1.000  H
  H27      1.0000 0.47880  0.23110  0.46180  Biso   1.000  H
  H28      1.0000 0.52120  0.23110  0.03820  Biso   1.000  H
  H29      1.0000 0.02120  0.26890  0.53820  Biso   1.000  H
  H30      1.0000 0.97880  0.26890  0.96180  Biso   1.000  H
  H31      1.0000 0.52120  0.76890  0.53820  Biso   1.000  H
  H32      1.0000 0.47880  0.76890  0.96180  Biso   1.000  H
  C49      1.0000 0.03530  0.62700  0.46840  Biso   1.000  C
  C50      1.0000 0.96470  0.62700  0.03160  Biso   1.000  C
  C51      1.0000 0.53530  0.12700  0.46840  Biso   1.000  C
  C52      1.0000 0.46470  0.12700  0.03160  Biso   1.000  C
  C53      1.0000 0.96470  0.37300  0.53160  Biso   1.000  C
  C54      1.0000 0.03530  0.37300  0.96840  Biso   1.000  C
  C55      1.0000 0.46470  0.87300  0.53160  Biso   1.000  C
  C56      1.0000 0.53530  0.87300  0.96840  Biso   1.000  C
  C57      1.0000 0.00280  0.55840  0.41900  Biso   1.000  C
  C58      1.0000 0.99720  0.55840  0.08100  Biso   1.000  C
  C59      1.0000 0.50280  0.05840  0.41900  Biso   1.000  C
  C60      1.0000 0.49720  0.05840  0.08100  Biso   1.000  C
  C61      1.0000 0.99720  0.44160  0.58100  Biso   1.000  C
  C62      1.0000 0.00280  0.44160  0.91900  Biso   1.000  C
  C63      1.0000 0.49720  0.94160  0.58100  Biso   1.000  C
  C64      1.0000 0.50280  0.94160  0.91900  Biso   1.000  C
  C65      1.0000 0.94750  0.57190  0.39200  Biso   1.000  C
  C66      1.0000 0.05250  0.57190  0.10800  Biso   1.000  C
  C67      1.0000 0.44750  0.07190  0.39200  Biso   1.000  C
  C68      1.0000 0.55250  0.07190  0.10800  Biso   1.000  C
  C69      1.0000 0.05250  0.42810  0.60800  Biso   1.000  C
  C70      1.0000 0.94750  0.42810  0.89200  Biso   1.000  C
  C71      1.0000 0.55250  0.92810  0.60800  Biso   1.000  C
  C72      1.0000 0.44750  0.92810  0.89200  Biso   1.000  C
  H33      1.0000 0.93070  0.62680  0.40270  Biso   1.000  H
  H34      1.0000 0.06930  0.62680  0.09730  Biso   1.000  H
  H35      1.0000 0.43070  0.12680  0.40270  Biso   1.000  H
  H36      1.0000 0.56930  0.12680  0.09730  Biso   1.000  H
  H37      1.0000 0.06930  0.37320  0.59730  Biso   1.000  H
  H38      1.0000 0.93070  0.37320  0.90270  Biso   1.000  H
  H39      1.0000 0.56930  0.87320  0.59730  Biso   1.000  H
  H40      1.0000 0.43070  0.87320  0.90270  Biso   1.000  H
  C73      1.0000 0.91750  0.50340  0.34900  Biso   1.000  C
  C74      1.0000 0.08250  0.50340  0.15100  Biso   1.000  C
  C75      1.0000 0.41750  0.00340  0.34900  Biso   1.000  C
  C76      1.0000 0.58250  0.00340  0.15100  Biso   1.000  C
  C77      1.0000 0.08250  0.49660  0.65100  Biso   1.000  C
  C78      1.0000 0.91750  0.49660  0.84900  Biso   1.000  C
  C79      1.0000 0.58250  0.99660  0.65100  Biso   1.000  C
  C80      1.0000 0.41750  0.99660  0.84900  Biso   1.000  C
  C81      1.0000 0.94540  0.42430  0.33510  Biso   1.000  C
  C82      1.0000 0.05460  0.42430  0.16490  Biso   1.000  C
  C83      1.0000 0.44540  0.92430  0.33510  Biso   1.000  C
  C84      1.0000 0.55460  0.92430  0.16490  Biso   1.000  C
  C85      1.0000 0.05460  0.57570  0.66490  Biso   1.000  C
  C86      1.0000 0.94540  0.57570  0.83510  Biso   1.000  C
  C87      1.0000 0.55460  0.07570  0.66490  Biso   1.000  C
  C88      1.0000 0.44540  0.07570  0.83510  Biso   1.000  C
  H41      1.0000 0.92710  0.37620  0.30680  Biso   1.000  H
  H42      1.0000 0.07290  0.37620  0.19320  Biso   1.000  H
  H43      1.0000 0.42710  0.87620  0.30680  Biso   1.000  H
  H44      1.0000 0.57290  0.87620  0.19320  Biso   1.000  H
  H45      1.0000 0.07290  0.62380  0.69320  Biso   1.000  H
  H46      1.0000 0.92710  0.62380  0.80680  Biso   1.000  H
  H47      1.0000 0.57290  0.12380  0.69320  Biso   1.000  H
  H48      1.0000 0.42710  0.12380  0.80680  Biso   1.000  H
  C89      1.0000 0.00040  0.41650  0.36300  Biso   1.000  C
  C90      1.0000 0.99960  0.41650  0.13700  Biso   1.000  C
  C91      1.0000 0.50040  0.91650  0.36300  Biso   1.000  C
  C92      1.0000 0.49960  0.91650  0.13700  Biso   1.000  C
  C93      1.0000 0.99960  0.58350  0.63700  Biso   1.000  C
  C94      1.0000 0.00040  0.58350  0.86300  Biso   1.000  C
  C95      1.0000 0.49960  0.08350  0.63700  Biso   1.000  C
  C96      1.0000 0.50040  0.08350  0.86300  Biso   1.000  C
  C97      1.0000 0.03130  0.33350  0.34580  Biso   1.000  C
  C98      1.0000 0.96870  0.33350  0.15420  Biso   1.000  C
  C99      1.0000 0.53130  0.83350  0.34580  Biso   1.000  C
  C100     1.0000 0.46870  0.83350  0.15420  Biso   1.000  C
  C101     1.0000 0.96870  0.66650  0.65420  Biso   1.000  C
  C102     1.0000 0.03130  0.66650  0.84580  Biso   1.000  C
  C103     1.0000 0.46870  0.16650  0.65420  Biso   1.000  C
  C104     1.0000 0.53130  0.16650  0.84580  Biso   1.000  C
  C105     1.0000 0.07950  0.35390  0.33410  Biso   1.000  C
  C106     1.0000 0.92050  0.35390  0.16590  Biso   1.000  C
  C107     1.0000 0.57950  0.85390  0.33410  Biso   1.000  C
  C108     1.0000 0.42050  0.85390  0.16590  Biso   1.000  C
  C109     1.0000 0.92050  0.64610  0.66590  Biso   1.000  C
  C110     1.0000 0.07950  0.64610  0.83410  Biso   1.000  C
  C111     1.0000 0.42050  0.14610  0.66590  Biso   1.000  C
  C112     1.0000 0.57950  0.14610  0.83410  Biso   1.000  C
  H49      1.0000 0.09450  0.41730  0.34140  Biso   1.000  H
  H50      1.0000 0.90550  0.41730  0.15860  Biso   1.000  H
  H51      1.0000 0.59450  0.91730  0.34140  Biso   1.000  H
  H52      1.0000 0.40550  0.91730  0.15860  Biso   1.000  H
  H53      1.0000 0.90550  0.58270  0.65860  Biso   1.000  H
  H54      1.0000 0.09450  0.58270  0.84140  Biso   1.000  H
  H55      1.0000 0.40550  0.08270  0.65860  Biso   1.000  H
  H56      1.0000 0.59450  0.08270  0.84140  Biso   1.000  H
  C113     1.0000 0.10490  0.27950  0.31160  Biso   1.000  C
  C114     1.0000 0.89510  0.27950  0.18840  Biso   1.000  C
  C115     1.0000 0.60490  0.77950  0.31160  Biso   1.000  C
  C116     1.0000 0.39510  0.77950  0.18840  Biso   1.000  C
  C117     1.0000 0.89510  0.72050  0.68840  Biso   1.000  C
  C118     1.0000 0.10490  0.72050  0.81160  Biso   1.000  C
  C119     1.0000 0.39510  0.22050  0.68840  Biso   1.000  C
  C120     1.0000 0.60490  0.22050  0.81160  Biso   1.000  C
  H57      1.0000 0.13710  0.29340  0.30440  Biso   1.000  H
  H58      1.0000 0.86290  0.29340  0.19560  Biso   1.000  H
  H59      1.0000 0.63710  0.79340  0.30440  Biso   1.000  H
  H60      1.0000 0.36290  0.79340  0.19560  Biso   1.000  H
  H61      1.0000 0.86290  0.70660  0.69560  Biso   1.000  H
  H62      1.0000 0.13710  0.70660  0.80440  Biso   1.000  H
  H63      1.0000 0.36290  0.20660  0.69560  Biso   1.000  H
  H64      1.0000 0.63710  0.20660  0.80440  Biso   1.000  H
  C121     1.0000 0.01180  0.23840  0.33700  Biso   1.000  C
  C122     1.0000 0.98820  0.23840  0.16300  Biso   1.000  C
  C123     1.0000 0.51180  0.73840  0.33700  Biso   1.000  C
  C124     1.0000 0.48820  0.73840  0.16300  Biso   1.000  C
  C125     1.0000 0.98820  0.76160  0.66300  Biso   1.000  C
  C126     1.0000 0.01180  0.76160  0.83700  Biso   1.000  C
  C127     1.0000 0.48820  0.26160  0.66300  Biso   1.000  C
  C128     1.0000 0.51180  0.26160  0.83700  Biso   1.000  C
  H65      1.0000 0.98070  0.22310  0.34630  Biso   1.000  H
  H66      1.0000 0.01930  0.22310  0.15370  Biso   1.000  H
  H67      1.0000 0.48070  0.72310  0.34630  Biso   1.000  H
  H68      1.0000 0.51930  0.72310  0.15370  Biso   1.000  H
  H69      1.0000 0.01930  0.77690  0.65370  Biso   1.000  H
  H70      1.0000 0.98070  0.77690  0.84630  Biso   1.000  H
  H71      1.0000 0.51930  0.27690  0.65370  Biso   1.000  H
  H72      1.0000 0.48070  0.27690  0.84630  Biso   1.000  H
  C129     1.0000 0.03710  0.16450  0.31450  Biso   1.000  C
  C130     1.0000 0.96290  0.16450  0.18550  Biso   1.000  C
  C131     1.0000 0.53710  0.66450  0.31450  Biso   1.000  C
  C132     1.0000 0.46290  0.66450  0.18550  Biso   1.000  C
  C133     1.0000 0.96290  0.83550  0.68550  Biso   1.000  C
  C134     1.0000 0.03710  0.83550  0.81450  Biso   1.000  C
  C135     1.0000 0.46290  0.33550  0.68550  Biso   1.000  C
  C136     1.0000 0.53710  0.33550  0.81450  Biso   1.000  C
  H73      1.0000 0.02300  0.10040  0.30920  Biso   1.000  H
  H74      1.0000 0.97700  0.10040  0.19080  Biso   1.000  H
  H75      1.0000 0.52300  0.60040  0.30920  Biso   1.000  H
  H76      1.0000 0.47700  0.60040  0.19080  Biso   1.000  H
  H77      1.0000 0.97700  0.89960  0.69080  Biso   1.000  H
  H78      1.0000 0.02300  0.89960  0.80920  Biso   1.000  H
  H79      1.0000 0.47700  0.39960  0.69080  Biso   1.000  H
  H80      1.0000 0.52300  0.39960  0.80920  Biso   1.000  H
  C137     1.0000 0.08320  0.18510  0.29980  Biso   1.000  C
  C138     1.0000 0.91680  0.18510  0.20020  Biso   1.000  C
  C139     1.0000 0.58320  0.68510  0.29980  Biso   1.000  C
  C140     1.0000 0.41680  0.68510  0.20020  Biso   1.000  C
  C141     1.0000 0.91680  0.81490  0.70020  Biso   1.000  C
  C142     1.0000 0.08320  0.81490  0.79980  Biso   1.000  C
  C143     1.0000 0.41680  0.31490  0.70020  Biso   1.000  C
  C144     1.0000 0.58320  0.31490  0.79980  Biso   1.000  C
  C145     1.0000 0.10460  0.10890  0.26460  Biso   1.000  C
  C146     1.0000 0.89540  0.10890  0.23540  Biso   1.000  C
  C147     1.0000 0.60460  0.60890  0.26460  Biso   1.000  C
  C148     1.0000 0.39540  0.60890  0.23540  Biso   1.000  C
  C149     1.0000 0.89540  0.89110  0.73540  Biso   1.000  C
  C150     1.0000 0.10460  0.89110  0.76460  Biso   1.000  C
  C151     1.0000 0.39540  0.39110  0.73540  Biso   1.000  C
  C152     1.0000 0.60460  0.39110  0.76460  Biso   1.000  C
  C153     1.0000 0.85880  0.51730  0.31810  Biso   1.000  C
  C154     1.0000 0.14120  0.51730  0.18190  Biso   1.000  C
  C155     1.0000 0.35880  0.01730  0.31810  Biso   1.000  C
  C156     1.0000 0.64120  0.01730  0.18190  Biso   1.000  C
  C157     1.0000 0.14120  0.48270  0.68190  Biso   1.000  C
  C158     1.0000 0.85880  0.48270  0.81810  Biso   1.000  C
  C159     1.0000 0.64120  0.98270  0.68190  Biso   1.000  C
  C160     1.0000 0.35880  0.98270  0.81810  Biso   1.000  C
  C161     1.0000 0.83520  0.61020  0.30810  Biso   1.000  C
  C162     1.0000 0.16480  0.61020  0.19190  Biso   1.000  C
  C163     1.0000 0.33520  0.11020  0.30810  Biso   1.000  C
  C164     1.0000 0.66480  0.11020  0.19190  Biso   1.000  C
  C165     1.0000 0.16480  0.38980  0.69190  Biso   1.000  C
  C166     1.0000 0.83520  0.38980  0.80810  Biso   1.000  C
  C167     1.0000 0.66480  0.88980  0.69190  Biso   1.000  C
  C168     1.0000 0.33520  0.88980  0.80810  Biso   1.000  C
  H81      1.0000 0.85580  0.66670  0.32290  Biso   1.000  H
  H82      1.0000 0.14420  0.66670  0.17710  Biso   1.000  H
  H83      1.0000 0.35580  0.16670  0.32290  Biso   1.000  H
  H84      1.0000 0.64420  0.16670  0.17710  Biso   1.000  H
  H85      1.0000 0.14420  0.33330  0.67710  Biso   1.000  H
  H86      1.0000 0.85580  0.33330  0.82290  Biso   1.000  H
  H87      1.0000 0.64420  0.83330  0.67710  Biso   1.000  H
  H88      1.0000 0.35580  0.83330  0.82290  Biso   1.000  H
  C169     1.0000 0.78100  0.61930  0.27600  Biso   1.000  C
  C170     1.0000 0.21900  0.61930  0.22400  Biso   1.000  C
  C171     1.0000 0.28100  0.11930  0.27600  Biso   1.000  C
  C172     1.0000 0.71900  0.11930  0.22400  Biso   1.000  C
  C173     1.0000 0.21900  0.38070  0.72400  Biso   1.000  C
  C174     1.0000 0.78100  0.38070  0.77600  Biso   1.000  C
  C175     1.0000 0.71900  0.88070  0.72400  Biso   1.000  C
  C176     1.0000 0.28100  0.88070  0.77600  Biso   1.000  C
  H89      1.0000 0.76610  0.68290  0.26950  Biso   1.000  H
  H90      1.0000 0.23390  0.68290  0.23050  Biso   1.000  H
  H91      1.0000 0.26610  0.18290  0.26950  Biso   1.000  H
  H92      1.0000 0.73390  0.18290  0.23050  Biso   1.000  H
  H93      1.0000 0.23390  0.31710  0.73050  Biso   1.000  H
  H94      1.0000 0.76610  0.31710  0.76950  Biso   1.000  H
  H95      1.0000 0.73390  0.81710  0.73050  Biso   1.000  H
  H96      1.0000 0.26610  0.81710  0.76950  Biso   1.000  H
  C177     1.0000 0.82510  0.43600  0.29660  Biso   1.000  C
  C178     1.0000 0.17490  0.43600  0.20340  Biso   1.000  C
  C179     1.0000 0.32510  0.93600  0.29660  Biso   1.000  C
  C180     1.0000 0.67490  0.93600  0.20340  Biso   1.000  C
  C181     1.0000 0.17490  0.56400  0.70340  Biso   1.000  C
  C182     1.0000 0.82510  0.56400  0.79660  Biso   1.000  C
  C183     1.0000 0.67490  0.06400  0.70340  Biso   1.000  C
  C184     1.0000 0.32510  0.06400  0.79660  Biso   1.000  C
  H97      1.0000 0.83890  0.37170  0.30270  Biso   1.000  H
  H98      1.0000 0.16110  0.37170  0.19730  Biso   1.000  H
  H99      1.0000 0.33890  0.87170  0.30270  Biso   1.000  H
  H100     1.0000 0.66110  0.87170  0.19730  Biso   1.000  H
  H101     1.0000 0.16110  0.62830  0.69730  Biso   1.000  H
  H102     1.0000 0.83890  0.62830  0.80270  Biso   1.000  H
  H103     1.0000 0.66110  0.12830  0.69730  Biso   1.000  H
  H104     1.0000 0.33890  0.12830  0.80270  Biso   1.000  H
  C185     1.0000 0.77150  0.45100  0.26670  Biso   1.000  C
  C186     1.0000 0.22850  0.45100  0.23330  Biso   1.000  C
  C187     1.0000 0.27150  0.95100  0.26670  Biso   1.000  C
  C188     1.0000 0.72850  0.95100  0.23330  Biso   1.000  C
  C189     1.0000 0.22850  0.54900  0.73330  Biso   1.000  C
  C190     1.0000 0.77150  0.54900  0.76670  Biso   1.000  C
  C191     1.0000 0.72850  0.04900  0.73330  Biso   1.000  C
  C192     1.0000 0.27150  0.04900  0.76670  Biso   1.000  C
  H105     1.0000 0.74940  0.39550  0.25450  Biso   1.000  H
  H106     1.0000 0.25060  0.39550  0.24550  Biso   1.000  H
  H107     1.0000 0.24940  0.89550  0.25450  Biso   1.000  H
  H108     1.0000 0.75060  0.89550  0.24550  Biso   1.000  H
  H109     1.0000 0.25060  0.60450  0.74550  Biso   1.000  H
  H110     1.0000 0.74940  0.60450  0.75450  Biso   1.000  H
  H111     1.0000 0.75060  0.10450  0.74550  Biso   1.000  H
  H112     1.0000 0.24940  0.10450  0.75450  Biso   1.000  H
  O1       1.0000 0.17644  0.78780  0.64720  Biso   1.000  O
  O2       1.0000 0.82356  0.78780  0.85280  Biso   1.000  O
  O3       1.0000 0.67644  0.28780  0.64720  Biso   1.000  O
  O4       1.0000 0.32356  0.28780  0.85280  Biso   1.000  O
  O5       1.0000 0.82356  0.21220  0.35280  Biso   1.000  O
  O6       1.0000 0.17644  0.21220  0.14720  Biso   1.000  O
  O7       1.0000 0.32356  0.71220  0.35280  Biso   1.000  O
  O8       1.0000 0.67644  0.71220  0.14720  Biso   1.000  O
  O9       1.0000 0.10839  0.89000  0.62976  Biso   1.000  O
  O10      1.0000 0.89161  0.89000  0.87024  Biso   1.000  O
  O11      1.0000 0.60839  0.39000  0.62976  Biso   1.000  O
  O12      1.0000 0.39161  0.39000  0.87024  Biso   1.000  O
  O13      1.0000 0.89161  0.11000  0.37024  Biso   1.000  O
  O14      1.0000 0.10839  0.11000  0.12976  Biso   1.000  O
  O15      1.0000 0.39161  0.61000  0.37024  Biso   1.000  O
  O16      1.0000 0.60839  0.61000  0.12976  Biso   1.000  O
  O17      1.0000 0.15051  0.12680  0.26074  Biso   1.000  O
  O18      1.0000 0.84949  0.12680  0.23926  Biso   1.000  O
  O19      1.0000 0.65051  0.62680  0.26074  Biso   1.000  O
  O20      1.0000 0.34949  0.62680  0.23926  Biso   1.000  O
  O21      1.0000 0.84949  0.87320  0.73926  Biso   1.000  O
  O22      1.0000 0.15051  0.87320  0.76074  Biso   1.000  O
  O23      1.0000 0.34949  0.37320  0.73926  Biso   1.000  O
  O24      1.0000 0.65051  0.37320  0.76074  Biso   1.000  O
  O25      1.0000 0.07445  0.03680  0.23998  Biso   1.000  O
  O26      1.0000 0.92555  0.03680  0.26002  Biso   1.000  O
  O27      1.0000 0.57445  0.53680  0.23998  Biso   1.000  O
  O28      1.0000 0.42555  0.53680  0.26002  Biso   1.000  O
  O29      1.0000 0.92555  0.96320  0.76002  Biso   1.000  O
  O30      1.0000 0.07445  0.96320  0.73998  Biso   1.000  O
  O31      1.0000 0.42555  0.46320  0.76002  Biso   1.000  O
  O32      1.0000 0.57445  0.46320  0.73998  Biso   1.000  O
  N1       1.0000 0.02916  0.48260  0.40420  Biso   1.000  N
  N2       1.0000 0.97084  0.48260  0.09580  Biso   1.000  N
  N3       1.0000 0.52916  0.98260  0.40420  Biso   1.000  N
  N4       1.0000 0.47084  0.98260  0.09580  Biso   1.000  N
  N5       1.0000 0.97084  0.51740  0.59580  Biso   1.000  N
  N6       1.0000 0.02916  0.51740  0.90420  Biso   1.000  N
  N7       1.0000 0.47084  0.01740  0.59580  Biso   1.000  N
  N8       1.0000 0.52916  0.01740  0.90420  Biso   1.000  N
  N9       1.0000 0.74897  0.54210  0.25390  Biso   1.000  N
  N10      1.0000 0.25103  0.54210  0.24610  Biso   1.000  N
  N11      1.0000 0.24897  0.04210  0.25390  Biso   1.000  N
  N12      1.0000 0.75103  0.04210  0.24610  Biso   1.000  N
  N13      1.0000 0.25103  0.45790  0.74610  Biso   1.000  N
  N14      1.0000 0.74897  0.45790  0.75390  Biso   1.000  N
  N15      1.0000 0.75103  0.95790  0.74610  Biso   1.000  N
  N16      1.0000 0.24897  0.95790  0.75390  Biso   1.000  N
  Cu9      1.0000 0.08380  0.92823  0.18387  Biso   1.000  Cu
  Cu10     1.0000 0.91620  0.92823  0.31613  Biso   1.000  Cu
  Cu11     1.0000 0.58380  0.42823  0.18387  Biso   1.000  Cu
  Cu12     1.0000 0.41620  0.42823  0.31613  Biso   1.000  Cu
  Cu13     1.0000 0.91620  0.07177  0.81613  Biso   1.000  Cu
  Cu14     1.0000 0.08380  0.07177  0.68387  Biso   1.000  Cu
  Cu15     1.0000 0.41620  0.57177  0.81613  Biso   1.000  Cu
  Cu16     1.0000 0.58380  0.57177  0.68387  Biso   1.000  Cu
  C193     1.0000 0.12390  0.80550  0.26620  Biso   1.000  C
  C194     1.0000 0.87610  0.80550  0.23380  Biso   1.000  C
  C195     1.0000 0.62390  0.30550  0.26620  Biso   1.000  C
  C196     1.0000 0.37610  0.30550  0.23380  Biso   1.000  C
  C197     1.0000 0.87610  0.19450  0.73380  Biso   1.000  C
  C198     1.0000 0.12390  0.19450  0.76620  Biso   1.000  C
  C199     1.0000 0.37610  0.69450  0.73380  Biso   1.000  C
  C200     1.0000 0.62390  0.69450  0.76620  Biso   1.000  C
  C201     1.0000 0.15660  0.74460  0.32100  Biso   1.000  C
  C202     1.0000 0.84340  0.74460  0.17900  Biso   1.000  C
  C203     1.0000 0.65660  0.24460  0.32100  Biso   1.000  C
  C204     1.0000 0.34340  0.24460  0.17900  Biso   1.000  C
  C205     1.0000 0.84340  0.25540  0.67900  Biso   1.000  C
  C206     1.0000 0.15660  0.25540  0.82100  Biso   1.000  C
  C207     1.0000 0.34340  0.75540  0.67900  Biso   1.000  C
  C208     1.0000 0.65660  0.75540  0.82100  Biso   1.000  C
  C209     1.0000 0.20440  0.78470  0.36180  Biso   1.000  C
  C210     1.0000 0.79560  0.78470  0.13820  Biso   1.000  C
  C211     1.0000 0.70440  0.28470  0.36180  Biso   1.000  C
  C212     1.0000 0.29560  0.28470  0.13820  Biso   1.000  C
  C213     1.0000 0.79560  0.21530  0.63820  Biso   1.000  C
  C214     1.0000 0.20440  0.21530  0.86180  Biso   1.000  C
  C215     1.0000 0.29560  0.71530  0.63820  Biso   1.000  C
  C216     1.0000 0.70440  0.71530  0.86180  Biso   1.000  C
  H113     1.0000 0.21560  0.84820  0.35520  Biso   1.000  H
  H114     1.0000 0.78440  0.84820  0.14480  Biso   1.000  H
  H115     1.0000 0.71560  0.34820  0.35520  Biso   1.000  H
  H116     1.0000 0.28440  0.34820  0.14480  Biso   1.000  H
  H117     1.0000 0.78440  0.15180  0.64480  Biso   1.000  H
  H118     1.0000 0.21560  0.15180  0.85520  Biso   1.000  H
  H119     1.0000 0.28440  0.65180  0.64480  Biso   1.000  H
  H120     1.0000 0.71560  0.65180  0.85520  Biso   1.000  H
  C217     1.0000 0.23410  0.73000  0.41090  Biso   1.000  C
  C218     1.0000 0.76590  0.73000  0.08910  Biso   1.000  C
  C219     1.0000 0.73410  0.23000  0.41090  Biso   1.000  C
  C220     1.0000 0.26590  0.23000  0.08910  Biso   1.000  C
  C221     1.0000 0.76590  0.27000  0.58910  Biso   1.000  C
  C222     1.0000 0.23410  0.27000  0.91090  Biso   1.000  C
  C223     1.0000 0.26590  0.77000  0.58910  Biso   1.000  C
  C224     1.0000 0.73410  0.77000  0.91090  Biso   1.000  C
  H121     1.0000 0.26440  0.75800  0.43940  Biso   1.000  H
  H122     1.0000 0.73560  0.75800  0.06060  Biso   1.000  H
  H123     1.0000 0.76440  0.25800  0.43940  Biso   1.000  H
  H124     1.0000 0.23560  0.25800  0.06060  Biso   1.000  H
  H125     1.0000 0.73560  0.24200  0.56060  Biso   1.000  H
  H126     1.0000 0.26440  0.24200  0.93940  Biso   1.000  H
  H127     1.0000 0.23560  0.74200  0.56060  Biso   1.000  H
  H128     1.0000 0.76440  0.74200  0.93940  Biso   1.000  H
  C225     1.0000 0.14000  0.65260  0.33150  Biso   1.000  C
  C226     1.0000 0.86000  0.65260  0.16850  Biso   1.000  C
  C227     1.0000 0.64000  0.15260  0.33150  Biso   1.000  C
  C228     1.0000 0.36000  0.15260  0.16850  Biso   1.000  C
  C229     1.0000 0.86000  0.34740  0.66850  Biso   1.000  C
  C230     1.0000 0.14000  0.34740  0.83150  Biso   1.000  C
  C231     1.0000 0.36000  0.84740  0.66850  Biso   1.000  C
  C232     1.0000 0.64000  0.84740  0.83150  Biso   1.000  C
  H129     1.0000 0.10770  0.62700  0.30540  Biso   1.000  H
  H130     1.0000 0.89230  0.62700  0.19460  Biso   1.000  H
  H131     1.0000 0.60770  0.12700  0.30540  Biso   1.000  H
  H132     1.0000 0.39230  0.12700  0.19460  Biso   1.000  H
  H133     1.0000 0.89230  0.37300  0.69460  Biso   1.000  H
  H134     1.0000 0.10770  0.37300  0.80540  Biso   1.000  H
  H135     1.0000 0.39230  0.87300  0.69460  Biso   1.000  H
  H136     1.0000 0.60770  0.87300  0.80540  Biso   1.000  H
  C233     1.0000 0.17120  0.59700  0.38110  Biso   1.000  C
  C234     1.0000 0.82880  0.59700  0.11890  Biso   1.000  C
  C235     1.0000 0.67120  0.09700  0.38110  Biso   1.000  C
  C236     1.0000 0.32880  0.09700  0.11890  Biso   1.000  C
  C237     1.0000 0.82880  0.40300  0.61890  Biso   1.000  C
  C238     1.0000 0.17120  0.40300  0.88110  Biso   1.000  C
  C239     1.0000 0.32880  0.90300  0.61890  Biso   1.000  C
  C240     1.0000 0.67120  0.90300  0.88110  Biso   1.000  C
  H137     1.0000 0.15940  0.53460  0.38890  Biso   1.000  H
  H138     1.0000 0.84060  0.53460  0.11110  Biso   1.000  H
  H139     1.0000 0.65940  0.03460  0.38890  Biso   1.000  H
  H140     1.0000 0.34060  0.03460  0.11110  Biso   1.000  H
  H141     1.0000 0.84060  0.46540  0.61110  Biso   1.000  H
  H142     1.0000 0.15940  0.46540  0.88890  Biso   1.000  H
  H143     1.0000 0.34060  0.96540  0.61110  Biso   1.000  H
  H144     1.0000 0.65940  0.96540  0.88890  Biso   1.000  H
  C241     1.0000 0.21980  0.63320  0.41940  Biso   1.000  C
  C242     1.0000 0.78020  0.63320  0.08060  Biso   1.000  C
  C243     1.0000 0.71980  0.13320  0.41940  Biso   1.000  C
  C244     1.0000 0.28020  0.13320  0.08060  Biso   1.000  C
  C245     1.0000 0.78020  0.36680  0.58060  Biso   1.000  C
  C246     1.0000 0.21980  0.36680  0.91940  Biso   1.000  C
  C247     1.0000 0.28020  0.86680  0.58060  Biso   1.000  C
  C248     1.0000 0.71980  0.86680  0.91940  Biso   1.000  C
  C249     1.0000 0.25470  0.56830  0.46870  Biso   1.000  C
  C250     1.0000 0.74530  0.56830  0.03130  Biso   1.000  C
  C251     1.0000 0.75470  0.06830  0.46870  Biso   1.000  C
  C252     1.0000 0.24530  0.06830  0.03130  Biso   1.000  C
  C253     1.0000 0.74530  0.43170  0.53130  Biso   1.000  C
  C254     1.0000 0.25470  0.43170  0.96870  Biso   1.000  C
  C255     1.0000 0.24530  0.93170  0.53130  Biso   1.000  C
  C256     1.0000 0.75470  0.93170  0.96870  Biso   1.000  C
  C257     1.0000 0.30960  0.58570  0.49260  Biso   1.000  C
  C258     1.0000 0.69040  0.58570  0.00740  Biso   1.000  C
  C259     1.0000 0.80960  0.08570  0.49260  Biso   1.000  C
  C260     1.0000 0.19040  0.08570  0.00740  Biso   1.000  C
  C261     1.0000 0.69040  0.41430  0.50740  Biso   1.000  C
  C262     1.0000 0.30960  0.41430  0.99260  Biso   1.000  C
  C263     1.0000 0.19040  0.91430  0.50740  Biso   1.000  C
  C264     1.0000 0.80960  0.91430  0.99260  Biso   1.000  C
  H145     1.0000 0.32470  0.63990  0.47890  Biso   1.000  H
  H146     1.0000 0.67530  0.63990  0.02110  Biso   1.000  H
  H147     1.0000 0.82470  0.13990  0.47890  Biso   1.000  H
  H148     1.0000 0.17530  0.13990  0.02110  Biso   1.000  H
  H149     1.0000 0.67530  0.36010  0.52110  Biso   1.000  H
  H150     1.0000 0.32470  0.36010  0.97890  Biso   1.000  H
  H151     1.0000 0.17530  0.86010  0.52110  Biso   1.000  H
  H152     1.0000 0.82470  0.86010  0.97890  Biso   1.000  H
  C265     1.0000 0.31690  0.44250  0.55520  Biso   1.000  C
  C266     1.0000 0.68310  0.44250  0.94480  Biso   1.000  C
  C267     1.0000 0.81690  0.94250  0.55520  Biso   1.000  C
  C268     1.0000 0.18310  0.94250  0.94480  Biso   1.000  C
  C269     1.0000 0.68310  0.55750  0.44480  Biso   1.000  C
  C270     1.0000 0.31690  0.55750  0.05520  Biso   1.000  C
  C271     1.0000 0.18310  0.05750  0.44480  Biso   1.000  C
  C272     1.0000 0.81690  0.05750  0.05520  Biso   1.000  C
  H153     1.0000 0.33710  0.39800  0.58480  Biso   1.000  H
  H154     1.0000 0.66290  0.39800  0.91520  Biso   1.000  H
  H155     1.0000 0.83710  0.89800  0.58480  Biso   1.000  H
  H156     1.0000 0.16290  0.89800  0.91520  Biso   1.000  H
  H157     1.0000 0.66290  0.60200  0.41520  Biso   1.000  H
  H158     1.0000 0.33710  0.60200  0.08480  Biso   1.000  H
  H159     1.0000 0.16290  0.10200  0.41520  Biso   1.000  H
  H160     1.0000 0.83710  0.10200  0.08480  Biso   1.000  H
  C273     1.0000 0.26180  0.42970  0.52920  Biso   1.000  C
  C274     1.0000 0.73820  0.42970  0.97080  Biso   1.000  C
  C275     1.0000 0.76180  0.92970  0.52920  Biso   1.000  C
  C276     1.0000 0.23820  0.92970  0.97080  Biso   1.000  C
  C277     1.0000 0.73820  0.57030  0.47080  Biso   1.000  C
  C278     1.0000 0.26180  0.57030  0.02920  Biso   1.000  C
  C279     1.0000 0.23820  0.07030  0.47080  Biso   1.000  C
  C280     1.0000 0.76180  0.07030  0.02920  Biso   1.000  C
  C281     1.0000 0.23350  0.34470  0.54830  Biso   1.000  C
  C282     1.0000 0.76650  0.34470  0.95170  Biso   1.000  C
  C283     1.0000 0.73350  0.84470  0.54830  Biso   1.000  C
  C284     1.0000 0.26650  0.84470  0.95170  Biso   1.000  C
  C285     1.0000 0.76650  0.65530  0.45170  Biso   1.000  C
  C286     1.0000 0.23350  0.65530  0.04830  Biso   1.000  C
  C287     1.0000 0.26650  0.15530  0.45170  Biso   1.000  C
  C288     1.0000 0.73350  0.15530  0.04830  Biso   1.000  C
  C289     1.0000 0.17760  0.33840  0.52770  Biso   1.000  C
  C290     1.0000 0.82240  0.33840  0.97230  Biso   1.000  C
  C291     1.0000 0.67760  0.83840  0.52770  Biso   1.000  C
  C292     1.0000 0.32240  0.83840  0.97230  Biso   1.000  C
  C293     1.0000 0.82240  0.66160  0.47230  Biso   1.000  C
  C294     1.0000 0.17760  0.66160  0.02770  Biso   1.000  C
  C295     1.0000 0.32240  0.16160  0.47230  Biso   1.000  C
  C296     1.0000 0.67760  0.16160  0.02770  Biso   1.000  C
  H161     1.0000 0.15740  0.38560  0.50010  Biso   1.000  H
  H162     1.0000 0.84260  0.38560  0.99990  Biso   1.000  H
  H163     1.0000 0.65740  0.88560  0.50010  Biso   1.000  H
  H164     1.0000 0.34260  0.88560  0.99990  Biso   1.000  H
  H165     1.0000 0.84260  0.61440  0.49990  Biso   1.000  H
  H166     1.0000 0.15740  0.61440  0.00010  Biso   1.000  H
  H167     1.0000 0.34260  0.11440  0.49990  Biso   1.000  H
  H168     1.0000 0.65740  0.11440  0.00010  Biso   1.000  H
  C297     1.0000 0.15200  0.26250  0.54810  Biso   1.000  C
  C298     1.0000 0.84800  0.26250  0.95190  Biso   1.000  C
  C299     1.0000 0.65200  0.76250  0.54810  Biso   1.000  C
  C300     1.0000 0.34800  0.76250  0.95190  Biso   1.000  C
  C301     1.0000 0.84800  0.73750  0.45190  Biso   1.000  C
  C302     1.0000 0.15200  0.73750  0.04810  Biso   1.000  C
  C303     1.0000 0.34800  0.23750  0.45190  Biso   1.000  C
  C304     1.0000 0.65200  0.23750  0.04810  Biso   1.000  C
  H169     1.0000 0.11460  0.25940  0.53450  Biso   1.000  H
  H170     1.0000 0.88540  0.25940  0.96550  Biso   1.000  H
  H171     1.0000 0.61460  0.75940  0.53450  Biso   1.000  H
  H172     1.0000 0.38540  0.75940  0.96550  Biso   1.000  H
  H173     1.0000 0.88540  0.74060  0.46550  Biso   1.000  H
  H174     1.0000 0.11460  0.74060  0.03450  Biso   1.000  H
  H175     1.0000 0.38540  0.24060  0.46550  Biso   1.000  H
  H176     1.0000 0.61460  0.24060  0.03450  Biso   1.000  H
  C305     1.0000 0.26240  0.27010  0.58690  Biso   1.000  C
  C306     1.0000 0.73760  0.27010  0.91310  Biso   1.000  C
  C307     1.0000 0.76240  0.77010  0.58690  Biso   1.000  C
  C308     1.0000 0.23760  0.77010  0.91310  Biso   1.000  C
  C309     1.0000 0.73760  0.72990  0.41310  Biso   1.000  C
  C310     1.0000 0.26240  0.72990  0.08690  Biso   1.000  C
  C311     1.0000 0.23760  0.22990  0.41310  Biso   1.000  C
  C312     1.0000 0.76240  0.22990  0.08690  Biso   1.000  C
  H177     1.0000 0.29980  0.27130  0.59930  Biso   1.000  H
  H178     1.0000 0.70020  0.27130  0.90070  Biso   1.000  H
  H179     1.0000 0.79980  0.77130  0.59930  Biso   1.000  H
  H180     1.0000 0.20020  0.77130  0.90070  Biso   1.000  H
  H181     1.0000 0.70020  0.72870  0.40070  Biso   1.000  H
  H182     1.0000 0.29980  0.72870  0.09930  Biso   1.000  H
  H183     1.0000 0.20020  0.22870  0.40070  Biso   1.000  H
  H184     1.0000 0.79980  0.22870  0.09930  Biso   1.000  H
  C313     1.0000 0.23710  0.19490  0.60710  Biso   1.000  C
  C314     1.0000 0.76290  0.19490  0.89290  Biso   1.000  C
  C315     1.0000 0.73710  0.69490  0.60710  Biso   1.000  C
  C316     1.0000 0.26290  0.69490  0.89290  Biso   1.000  C
  C317     1.0000 0.76290  0.80510  0.39290  Biso   1.000  C
  C318     1.0000 0.23710  0.80510  0.10710  Biso   1.000  C
  C319     1.0000 0.26290  0.30510  0.39290  Biso   1.000  C
  C320     1.0000 0.73710  0.30510  0.10710  Biso   1.000  C
  H185     1.0000 0.25750  0.14630  0.63330  Biso   1.000  H
  H186     1.0000 0.74250  0.14630  0.86670  Biso   1.000  H
  H187     1.0000 0.75750  0.64630  0.63330  Biso   1.000  H
  H188     1.0000 0.24250  0.64630  0.86670  Biso   1.000  H
  H189     1.0000 0.74250  0.85370  0.36670  Biso   1.000  H
  H190     1.0000 0.25750  0.85370  0.13330  Biso   1.000  H
  H191     1.0000 0.24250  0.35370  0.36670  Biso   1.000  H
  H192     1.0000 0.75750  0.35370  0.13330  Biso   1.000  H
  C321     1.0000 0.18190  0.19010  0.58930  Biso   1.000  C
  C322     1.0000 0.81810  0.19010  0.91070  Biso   1.000  C
  C323     1.0000 0.68190  0.69010  0.58930  Biso   1.000  C
  C324     1.0000 0.31810  0.69010  0.91070  Biso   1.000  C
  C325     1.0000 0.81810  0.80990  0.41070  Biso   1.000  C
  C326     1.0000 0.18190  0.80990  0.08930  Biso   1.000  C
  C327     1.0000 0.31810  0.30990  0.41070  Biso   1.000  C
  C328     1.0000 0.68190  0.30990  0.08930  Biso   1.000  C
  C329     1.0000 0.15630  0.11400  0.61900  Biso   1.000  C
  C330     1.0000 0.84370  0.11400  0.88100  Biso   1.000  C
  C331     1.0000 0.65630  0.61400  0.61900  Biso   1.000  C
  C332     1.0000 0.34370  0.61400  0.88100  Biso   1.000  C
  C333     1.0000 0.84370  0.88600  0.38100  Biso   1.000  C
  C334     1.0000 0.15630  0.88600  0.11900  Biso   1.000  C
  C335     1.0000 0.34370  0.38600  0.38100  Biso   1.000  C
  C336     1.0000 0.65630  0.38600  0.11900  Biso   1.000  C
  C337     1.0000 0.39980  0.53980  0.56590  Biso   1.000  C
  C338     1.0000 0.60020  0.53980  0.93410  Biso   1.000  C
  C339     1.0000 0.89980  0.03980  0.56590  Biso   1.000  C
  C340     1.0000 0.10020  0.03980  0.93410  Biso   1.000  C
  C341     1.0000 0.60020  0.46020  0.43410  Biso   1.000  C
  C342     1.0000 0.39980  0.46020  0.06590  Biso   1.000  C
  C343     1.0000 0.10020  0.96020  0.43410  Biso   1.000  C
  C344     1.0000 0.89980  0.96020  0.06590  Biso   1.000  C
  C345     1.0000 0.41720  0.60730  0.61070  Biso   1.000  C
  C346     1.0000 0.58280  0.60730  0.88930  Biso   1.000  C
  C347     1.0000 0.91720  0.10730  0.61070  Biso   1.000  C
  C348     1.0000 0.08280  0.10730  0.88930  Biso   1.000  C
  C349     1.0000 0.58280  0.39270  0.38930  Biso   1.000  C
  C350     1.0000 0.41720  0.39270  0.11070  Biso   1.000  C
  C351     1.0000 0.08280  0.89270  0.38930  Biso   1.000  C
  C352     1.0000 0.91720  0.89270  0.11070  Biso   1.000  C
  H193     1.0000 0.39280  0.64870  0.62070  Biso   1.000  H
  H194     1.0000 0.60720  0.64870  0.87930  Biso   1.000  H
  H195     1.0000 0.89280  0.14870  0.62070  Biso   1.000  H
  H196     1.0000 0.10720  0.14870  0.87930  Biso   1.000  H
  H197     1.0000 0.60720  0.35130  0.37930  Biso   1.000  H
  H198     1.0000 0.39280  0.35130  0.12070  Biso   1.000  H
  H199     1.0000 0.10720  0.85130  0.37930  Biso   1.000  H
  H200     1.0000 0.89280  0.85130  0.12070  Biso   1.000  H
  C353     1.0000 0.47210  0.61590  0.64250  Biso   1.000  C
  C354     1.0000 0.52790  0.61590  0.85750  Biso   1.000  C
  C355     1.0000 0.97210  0.11590  0.64250  Biso   1.000  C
  C356     1.0000 0.02790  0.11590  0.85750  Biso   1.000  C
  C357     1.0000 0.52790  0.38410  0.35750  Biso   1.000  C
  C358     1.0000 0.47210  0.38410  0.14250  Biso   1.000  C
  C359     1.0000 0.02790  0.88410  0.35750  Biso   1.000  C
  C360     1.0000 0.97210  0.88410  0.14250  Biso   1.000  C
  H201     1.0000 0.48280  0.66060  0.67530  Biso   1.000  H
  H202     1.0000 0.51720  0.66060  0.82470  Biso   1.000  H
  H203     1.0000 0.98280  0.16060  0.67530  Biso   1.000  H
  H204     1.0000 0.01720  0.16060  0.82470  Biso   1.000  H
  H205     1.0000 0.51720  0.33940  0.32470  Biso   1.000  H
  H206     1.0000 0.48280  0.33940  0.17530  Biso   1.000  H
  H207     1.0000 0.01720  0.83940  0.32470  Biso   1.000  H
  H208     1.0000 0.98280  0.83940  0.17530  Biso   1.000  H
  C361     1.0000 0.43940  0.49020  0.55080  Biso   1.000  C
  C362     1.0000 0.56060  0.49020  0.94920  Biso   1.000  C
  C363     1.0000 0.93940  0.99020  0.55080  Biso   1.000  C
  C364     1.0000 0.06060  0.99020  0.94920  Biso   1.000  C
  C365     1.0000 0.56060  0.50980  0.44920  Biso   1.000  C
  C366     1.0000 0.43940  0.50980  0.05080  Biso   1.000  C
  C367     1.0000 0.06060  0.00980  0.44920  Biso   1.000  C
  C368     1.0000 0.93940  0.00980  0.05080  Biso   1.000  C
  H209     1.0000 0.42990  0.44510  0.51810  Biso   1.000  H
  H210     1.0000 0.57010  0.44510  0.98190  Biso   1.000  H
  H211     1.0000 0.92990  0.94510  0.51810  Biso   1.000  H
  H212     1.0000 0.07010  0.94510  0.98190  Biso   1.000  H
  H213     1.0000 0.57010  0.55490  0.48190  Biso   1.000  H
  H214     1.0000 0.42990  0.55490  0.01810  Biso   1.000  H
  H215     1.0000 0.07010  0.05490  0.48190  Biso   1.000  H
  H216     1.0000 0.92990  0.05490  0.01810  Biso   1.000  H
  C369     1.0000 0.49180  0.50500  0.58200  Biso   1.000  C
  C370     1.0000 0.50820  0.50500  0.91800  Biso   1.000  C
  C371     1.0000 0.99180  0.00500  0.58200  Biso   1.000  C
  C372     1.0000 0.00820  0.00500  0.91800  Biso   1.000  C
  C373     1.0000 0.50820  0.49500  0.41800  Biso   1.000  C
  C374     1.0000 0.49180  0.49500  0.08200  Biso   1.000  C
  C375     1.0000 0.00820  0.99500  0.41800  Biso   1.000  C
  C376     1.0000 0.99180  0.99500  0.08200  Biso   1.000  C
  H217     1.0000 0.51740  0.47070  0.56960  Biso   1.000  H
  H218     1.0000 0.48260  0.47070  0.93040  Biso   1.000  H
  H219     1.0000 0.01740  0.97070  0.56960  Biso   1.000  H
  H220     1.0000 0.98260  0.97070  0.93040  Biso   1.000  H
  H221     1.0000 0.48260  0.52930  0.43040  Biso   1.000  H
  H222     1.0000 0.51740  0.52930  0.06960  Biso   1.000  H
  H223     1.0000 0.98260  0.02930  0.43040  Biso   1.000  H
  H224     1.0000 0.01740  0.02930  0.06960  Biso   1.000  H
  C377     1.0000 0.34150  0.52300  0.53630  Biso   1.000  C
  C378     1.0000 0.65850  0.52300  0.96370  Biso   1.000  C
  C379     1.0000 0.84150  0.02300  0.53630  Biso   1.000  C
  C380     1.0000 0.15850  0.02300  0.96370  Biso   1.000  C
  C381     1.0000 0.65850  0.47700  0.46370  Biso   1.000  C
  C382     1.0000 0.34150  0.47700  0.03630  Biso   1.000  C
  C383     1.0000 0.15850  0.97700  0.46370  Biso   1.000  C
  C384     1.0000 0.84150  0.97700  0.03630  Biso   1.000  C
  O33      1.0000 0.14697  0.87800  0.24990  Biso   1.000  O
  O34      1.0000 0.85303  0.87800  0.25010  Biso   1.000  O
  O35      1.0000 0.64697  0.37800  0.24990  Biso   1.000  O
  O36      1.0000 0.35303  0.37800  0.25010  Biso   1.000  O
  O37      1.0000 0.85303  0.12200  0.75010  Biso   1.000  O
  O38      1.0000 0.14697  0.12200  0.74990  Biso   1.000  O
  O39      1.0000 0.35303  0.62200  0.75010  Biso   1.000  O
  O40      1.0000 0.64697  0.62200  0.74990  Biso   1.000  O
  O41      1.0000 0.07707  0.78420  0.23930  Biso   1.000  O
  O42      1.0000 0.92293  0.78420  0.26070  Biso   1.000  O
  O43      1.0000 0.57707  0.28420  0.23930  Biso   1.000  O
  O44      1.0000 0.42293  0.28420  0.26070  Biso   1.000  O
  O45      1.0000 0.92293  0.21580  0.76070  Biso   1.000  O
  O46      1.0000 0.07707  0.21580  0.73930  Biso   1.000  O
  O47      1.0000 0.42293  0.71580  0.76070  Biso   1.000  O
  O48      1.0000 0.57707  0.71580  0.73930  Biso   1.000  O
  O49      1.0000 0.10893  0.12780  0.61716  Biso   1.000  O
  O50      1.0000 0.89107  0.12780  0.88284  Biso   1.000  O
  O51      1.0000 0.60893  0.62780  0.61716  Biso   1.000  O
  O52      1.0000 0.39107  0.62780  0.88284  Biso   1.000  O
  O53      1.0000 0.89107  0.87220  0.38284  Biso   1.000  O
  O54      1.0000 0.10893  0.87220  0.11716  Biso   1.000  O
  O55      1.0000 0.39107  0.37220  0.38284  Biso   1.000  O
  O56      1.0000 0.60893  0.37220  0.11716  Biso   1.000  O
  O57      1.0000 0.18593  0.04340  0.64488  Biso   1.000  O
  O58      1.0000 0.81407  0.04340  0.85512  Biso   1.000  O
  O59      1.0000 0.68593  0.54340  0.64488  Biso   1.000  O
  O60      1.0000 0.31407  0.54340  0.85512  Biso   1.000  O
  O61      1.0000 0.81407  0.95660  0.35512  Biso   1.000  O
  O62      1.0000 0.18593  0.95660  0.14488  Biso   1.000  O
  O63      1.0000 0.31407  0.45660  0.35512  Biso   1.000  O
  O64      1.0000 0.68593  0.45660  0.14488  Biso   1.000  O
  N17      1.0000 0.23086  0.49090  0.48700  Biso   1.000  N
  N18      1.0000 0.76914  0.49090  0.01300  Biso   1.000  N
  N19      1.0000 0.73086  0.99090  0.48700  Biso   1.000  N
  N20      1.0000 0.26914  0.99090  0.01300  Biso   1.000  N
  N21      1.0000 0.76914  0.50910  0.51300  Biso   1.000  N
  N22      1.0000 0.23086  0.50910  0.98700  Biso   1.000  N
  N23      1.0000 0.26914  0.00910  0.51300  Biso   1.000  N
  N24      1.0000 0.73086  0.00910  0.98700  Biso   1.000  N
  N25      1.0000 0.50825  0.56670  0.62960  Biso   1.000  N
  N26      1.0000 0.49175  0.56670  0.87040  Biso   1.000  N
  N27      1.0000 0.00825  0.06670  0.62960  Biso   1.000  N
  N28      1.0000 0.99175  0.06670  0.87040  Biso   1.000  N
  N29      1.0000 0.49175  0.43330  0.37040  Biso   1.000  N
  N30      1.0000 0.50825  0.43330  0.12960  Biso   1.000  N
  N31      1.0000 0.99175  0.93330  0.37040  Biso   1.000  N
  N32      1.0000 0.00825  0.93330  0.12960  Biso   1.000  N
