data_image0
_cell_length_a       24.7781
_cell_length_b       13.2036
_cell_length_c       24.8406
_cell_angle_alpha    90
_cell_angle_beta     96.109
_cell_angle_gamma    90

_symmetry_space_group_name_H-M    "P 1"
_symmetry_int_tables_number       1

loop_
  _symmetry_equiv_pos_as_xyz
  'x, y, z'

loop_
  _atom_site_label
  _atom_site_occupancy
  _atom_site_fract_x
  _atom_site_fract_y
  _atom_site_fract_z
  _atom_site_thermal_displace_type
  _atom_site_B_iso_or_equiv
  _atom_site_type_symbol
  Mo1      1.0000 0.09903  0.77293  0.05666  Biso   1.000  Mo
  Mo2      1.0000 0.90097  0.27293  0.44334  Biso   1.000  Mo
  Mo3      1.0000 0.90097  0.22707  0.94334  Biso   1.000  Mo
  Mo4      1.0000 0.09903  0.72707  0.55666  Biso   1.000  Mo
  Mo5      1.0000 0.19649  0.77162  0.97058  Biso   1.000  Mo
  Mo6      1.0000 0.80351  0.27162  0.52942  Biso   1.000  Mo
  Mo7      1.0000 0.80351  0.22838  0.02942  Biso   1.000  Mo
  Mo8      1.0000 0.19649  0.72838  0.47058  Biso   1.000  Mo
  Mo9      1.0000 0.32709  0.64181  0.00999  Biso   1.000  Mo
  Mo10     1.0000 0.67291  0.14181  0.49001  Biso   1.000  Mo
  Mo11     1.0000 0.67291  0.35819  0.99001  Biso   1.000  Mo
  Mo12     1.0000 0.32709  0.85819  0.50999  Biso   1.000  Mo
  Mo13     1.0000 0.29024  0.99239  0.26071  Biso   1.000  Mo
  Mo14     1.0000 0.70976  0.49239  0.23929  Biso   1.000  Mo
  Mo15     1.0000 0.70976  0.00761  0.73929  Biso   1.000  Mo
  Mo16     1.0000 0.29024  0.50761  0.76071  Biso   1.000  Mo
  Mo17     1.0000 0.26603  0.10042  0.13669  Biso   1.000  Mo
  Mo18     1.0000 0.73397  0.60042  0.36331  Biso   1.000  Mo
  Mo19     1.0000 0.73397  0.89958  0.86331  Biso   1.000  Mo
  Mo20     1.0000 0.26603  0.39958  0.63669  Biso   1.000  Mo
  Mo21     1.0000 0.38621  0.98333  0.17357  Biso   1.000  Mo
  Mo22     1.0000 0.61379  0.48333  0.32643  Biso   1.000  Mo
  Mo23     1.0000 0.61379  0.01667  0.82643  Biso   1.000  Mo
  Mo24     1.0000 0.38621  0.51667  0.67357  Biso   1.000  Mo
  Mo25     1.0000 0.16589  0.98927  0.03136  Biso   1.000  Mo
  Mo26     1.0000 0.83411  0.48927  0.46864  Biso   1.000  Mo
  Mo27     1.0000 0.83411  0.01073  0.96864  Biso   1.000  Mo
  Mo28     1.0000 0.16589  0.51073  0.53136  Biso   1.000  Mo
  Mo29     1.0000 0.12295  0.65034  0.19126  Biso   1.000  Mo
  Mo30     1.0000 0.87705  0.15034  0.30874  Biso   1.000  Mo
  Mo31     1.0000 0.87705  0.34966  0.80874  Biso   1.000  Mo
  Mo32     1.0000 0.12295  0.84966  0.69126  Biso   1.000  Mo
  Mo33     1.0000 0.34892  0.53457  0.13357  Biso   1.000  Mo
  Mo34     1.0000 0.65108  0.03457  0.36643  Biso   1.000  Mo
  Mo35     1.0000 0.65108  0.46543  0.86643  Biso   1.000  Mo
  Mo36     1.0000 0.34892  0.96543  0.63357  Biso   1.000  Mo
  Mo37     1.0000 0.24492  0.53848  0.23011  Biso   1.000  Mo
  Mo38     1.0000 0.75508  0.03848  0.26989  Biso   1.000  Mo
  Mo39     1.0000 0.75508  0.46152  0.76989  Biso   1.000  Mo
  Mo40     1.0000 0.24492  0.96152  0.73011  Biso   1.000  Mo
  Mo41     1.0000 0.41891  0.74514  0.10481  Biso   1.000  Mo
  Mo42     1.0000 0.58109  0.24514  0.39519  Biso   1.000  Mo
  Mo43     1.0000 0.58109  0.25486  0.89519  Biso   1.000  Mo
  Mo44     1.0000 0.41891  0.75486  0.60481  Biso   1.000  Mo
  Mo45     1.0000 0.21450  0.75918  0.28636  Biso   1.000  Mo
  Mo46     1.0000 0.78550  0.25918  0.21364  Biso   1.000  Mo
  Mo47     1.0000 0.78550  0.24082  0.71364  Biso   1.000  Mo
  Mo48     1.0000 0.21450  0.74082  0.78636  Biso   1.000  Mo
  As1      1.0000 0.30665  0.90181  0.05039  Biso   1.000  As
  As2      1.0000 0.69335  0.40181  0.44961  Biso   1.000  As
  As3      1.0000 0.69335  0.09819  0.94961  Biso   1.000  As
  As4      1.0000 0.30665  0.59819  0.55039  Biso   1.000  As
  As5      1.0000 0.33722  0.74525  0.22242  Biso   1.000  As
  As6      1.0000 0.66278  0.24525  0.27758  Biso   1.000  As
  As7      1.0000 0.66278  0.25475  0.77758  Biso   1.000  As
  As8      1.0000 0.33722  0.75475  0.72242  Biso   1.000  As
  As9      1.0000 0.17019  0.91233  0.16990  Biso   1.000  As
  As10     1.0000 0.82981  0.41233  0.33010  Biso   1.000  As
  As11     1.0000 0.82981  0.08767  0.83010  Biso   1.000  As
  As12     1.0000 0.17019  0.58767  0.66990  Biso   1.000  As
  As13     1.0000 0.21258  0.60360  0.08698  Biso   1.000  As
  As14     1.0000 0.78742  0.10360  0.41302  Biso   1.000  As
  As15     1.0000 0.78742  0.39640  0.91302  Biso   1.000  As
  As16     1.0000 0.21258  0.89640  0.58698  Biso   1.000  As
  Cu1      1.0000 0.37291  0.26530  0.10334  Biso   1.000  Cu
  Cu2      1.0000 0.62709  0.76530  0.39666  Biso   1.000  Cu
  Cu3      1.0000 0.62709  0.73470  0.89666  Biso   1.000  Cu
  Cu4      1.0000 0.37291  0.23470  0.60334  Biso   1.000  Cu
  Cu5      1.0000 0.09826  0.68238  0.85915  Biso   1.000  Cu
  Cu6      1.0000 0.90174  0.18238  0.64085  Biso   1.000  Cu
  Cu7      1.0000 0.90174  0.31762  0.14085  Biso   1.000  Cu
  Cu8      1.0000 0.09826  0.81762  0.35915  Biso   1.000  Cu
  O1       1.0000 0.15754  0.88817  0.10274  Biso   1.000  O
  O2       1.0000 0.84246  0.38817  0.39726  Biso   1.000  O
  O3       1.0000 0.84246  0.11183  0.89726  Biso   1.000  O
  O4       1.0000 0.15754  0.61183  0.60274  Biso   1.000  O
  O5       1.0000 0.17351  0.80109  0.20358  Biso   1.000  O
  O6       1.0000 0.82649  0.30109  0.29642  Biso   1.000  O
  O7       1.0000 0.82649  0.19891  0.79642  Biso   1.000  O
  O8       1.0000 0.17351  0.69891  0.70358  Biso   1.000  O
  O9       1.0000 0.23025  0.97458  0.18154  Biso   1.000  O
  O10      1.0000 0.76975  0.47458  0.31846  Biso   1.000  O
  O11      1.0000 0.76975  0.02542  0.81846  Biso   1.000  O
  O12      1.0000 0.23025  0.52542  0.68154  Biso   1.000  O
  O13      1.0000 0.18201  0.70179  0.05215  Biso   1.000  O
  O14      1.0000 0.81799  0.20179  0.44785  Biso   1.000  O
  O15      1.0000 0.81799  0.29821  0.94785  Biso   1.000  O
  O16      1.0000 0.18201  0.79821  0.55215  Biso   1.000  O
  O17      1.0000 0.19885  0.60797  0.15207  Biso   1.000  O
  O18      1.0000 0.80115  0.10797  0.34793  Biso   1.000  O
  O19      1.0000 0.80115  0.39203  0.84793  Biso   1.000  O
  O20      1.0000 0.19885  0.89203  0.65207  Biso   1.000  O
  O21      1.0000 0.28033  0.61467  0.08401  Biso   1.000  O
  O22      1.0000 0.71967  0.11467  0.41599  Biso   1.000  O
  O23      1.0000 0.71967  0.38533  0.91599  Biso   1.000  O
  O24      1.0000 0.28033  0.88533  0.58401  Biso   1.000  O
  O25      1.0000 0.33721  0.78812  0.06015  Biso   1.000  O
  O26      1.0000 0.66279  0.28812  0.43985  Biso   1.000  O
  O27      1.0000 0.66279  0.21188  0.93985  Biso   1.000  O
  O28      1.0000 0.33721  0.71188  0.56015  Biso   1.000  O
  O29      1.0000 0.24001  0.88455  0.03029  Biso   1.000  O
  O30      1.0000 0.75999  0.38455  0.46971  Biso   1.000  O
  O31      1.0000 0.75999  0.11545  0.96971  Biso   1.000  O
  O32      1.0000 0.24001  0.61545  0.53029  Biso   1.000  O
  O33      1.0000 0.31312  0.96543  0.11024  Biso   1.000  O
  O34      1.0000 0.68688  0.46543  0.38976  Biso   1.000  O
  O35      1.0000 0.68688  0.03457  0.88976  Biso   1.000  O
  O36      1.0000 0.31312  0.53457  0.61024  Biso   1.000  O
  O37      1.0000 0.35671  0.69613  0.16483  Biso   1.000  O
  O38      1.0000 0.64329  0.19613  0.33517  Biso   1.000  O
  O39      1.0000 0.64329  0.30387  0.83517  Biso   1.000  O
  O40      1.0000 0.35671  0.80387  0.66483  Biso   1.000  O
  O41      1.0000 0.27388  0.70355  0.23225  Biso   1.000  O
  O42      1.0000 0.72612  0.20355  0.26775  Biso   1.000  O
  O43      1.0000 0.72612  0.29645  0.76775  Biso   1.000  O
  O44      1.0000 0.27388  0.79645  0.73225  Biso   1.000  O
  O45      1.0000 0.33289  0.87254  0.21538  Biso   1.000  O
  O46      1.0000 0.66711  0.37254  0.28462  Biso   1.000  O
  O47      1.0000 0.66711  0.12746  0.78462  Biso   1.000  O
  O48      1.0000 0.33289  0.62746  0.71538  Biso   1.000  O
  O49      1.0000 0.10609  0.04714  0.03895  Biso   1.000  O
  O50      1.0000 0.89391  0.54714  0.46105  Biso   1.000  O
  O51      1.0000 0.89391  0.95286  0.96105  Biso   1.000  O
  O52      1.0000 0.10609  0.45286  0.53895  Biso   1.000  O
  O53      1.0000 0.04650  0.85523  0.05715  Biso   1.000  O
  O54      1.0000 0.95350  0.35523  0.44285  Biso   1.000  O
  O55      1.0000 0.95350  0.14477  0.94285  Biso   1.000  O
  O56      1.0000 0.04650  0.64477  0.55715  Biso   1.000  O
  O57      1.0000 0.23380  0.18506  0.17345  Biso   1.000  O
  O58      1.0000 0.76620  0.68506  0.32655  Biso   1.000  O
  O59      1.0000 0.76620  0.81494  0.82655  Biso   1.000  O
  O60      1.0000 0.23380  0.31494  0.67345  Biso   1.000  O
  O61      1.0000 0.25057  0.08979  0.27772  Biso   1.000  O
  O62      1.0000 0.74943  0.58979  0.22228  Biso   1.000  O
  O63      1.0000 0.74943  0.91021  0.72228  Biso   1.000  O
  O64      1.0000 0.25057  0.41021  0.77772  Biso   1.000  O
  O65      1.0000 0.07930  0.70165  0.23214  Biso   1.000  O
  O66      1.0000 0.92070  0.20165  0.26786  Biso   1.000  O
  O67      1.0000 0.92070  0.29835  0.76786  Biso   1.000  O
  O68      1.0000 0.07930  0.79835  0.73214  Biso   1.000  O
  O69      1.0000 0.15547  0.79488  0.31432  Biso   1.000  O
  O70      1.0000 0.84453  0.29488  0.18568  Biso   1.000  O
  O71      1.0000 0.84453  0.20512  0.68568  Biso   1.000  O
  O72      1.0000 0.15547  0.70512  0.81432  Biso   1.000  O
  O73      1.0000 0.10072  0.52972  0.18347  Biso   1.000  O
  O74      1.0000 0.89928  0.02972  0.31653  Biso   1.000  O
  O75      1.0000 0.89928  0.47028  0.81653  Biso   1.000  O
  O76      1.0000 0.10072  0.97028  0.68347  Biso   1.000  O
  O77      1.0000 0.18408  0.62928  0.25173  Biso   1.000  O
  O78      1.0000 0.81592  0.12928  0.24827  Biso   1.000  O
  O79      1.0000 0.81592  0.37072  0.74827  Biso   1.000  O
  O80      1.0000 0.18408  0.87072  0.75173  Biso   1.000  O
  O81      1.0000 0.25146  0.70411  0.33882  Biso   1.000  O
  O82      1.0000 0.74854  0.20411  0.16118  Biso   1.000  O
  O83      1.0000 0.74854  0.29589  0.66118  Biso   1.000  O
  O84      1.0000 0.25146  0.79589  0.83882  Biso   1.000  O
  O85      1.0000 0.24987  0.88258  0.28452  Biso   1.000  O
  O86      1.0000 0.75013  0.38258  0.21548  Biso   1.000  O
  O87      1.0000 0.75013  0.11742  0.71548  Biso   1.000  O
  O88      1.0000 0.24987  0.61742  0.78452  Biso   1.000  O
  O89      1.0000 0.34449  0.99783  0.30808  Biso   1.000  O
  O90      1.0000 0.65551  0.49783  0.19192  Biso   1.000  O
  O91      1.0000 0.65551  0.00217  0.69192  Biso   1.000  O
  O92      1.0000 0.34449  0.50217  0.80808  Biso   1.000  O
  O93      1.0000 0.32223  0.06124  0.19912  Biso   1.000  O
  O94      1.0000 0.67777  0.56124  0.30088  Biso   1.000  O
  O95      1.0000 0.67777  0.93876  0.80088  Biso   1.000  O
  O96      1.0000 0.32223  0.43876  0.69912  Biso   1.000  O
  O97      1.0000 0.30961  0.17927  0.10516  Biso   1.000  O
  O98      1.0000 0.69039  0.67927  0.39484  Biso   1.000  O
  O99      1.0000 0.69039  0.82073  0.89484  Biso   1.000  O
  O100     1.0000 0.30961  0.32073  0.60516  Biso   1.000  O
  O101     1.0000 0.21341  0.06777  0.08135  Biso   1.000  O
  O102     1.0000 0.78659  0.56777  0.41865  Biso   1.000  O
  O103     1.0000 0.78659  0.93223  0.91865  Biso   1.000  O
  O104     1.0000 0.21341  0.43223  0.58135  Biso   1.000  O
  O105     1.0000 0.18278  0.03931  0.97247  Biso   1.000  O
  O106     1.0000 0.81722  0.53931  0.52753  Biso   1.000  O
  O107     1.0000 0.81722  0.96069  0.02753  Biso   1.000  O
  O108     1.0000 0.18278  0.46069  0.47247  Biso   1.000  O
  O109     1.0000 0.13795  0.85433  0.00273  Biso   1.000  O
  O110     1.0000 0.86205  0.35433  0.49727  Biso   1.000  O
  O111     1.0000 0.86205  0.14567  0.99727  Biso   1.000  O
  O112     1.0000 0.13795  0.64567  0.50273  Biso   1.000  O
  O113     1.0000 0.20411  0.85736  0.92169  Biso   1.000  O
  O114     1.0000 0.79589  0.35736  0.57831  Biso   1.000  O
  O115     1.0000 0.79589  0.14264  0.07831  Biso   1.000  O
  O116     1.0000 0.20411  0.64264  0.42169  Biso   1.000  O
  O117     1.0000 0.15294  0.68478  0.93765  Biso   1.000  O
  O118     1.0000 0.84706  0.18478  0.56235  Biso   1.000  O
  O119     1.0000 0.84706  0.31522  0.06235  Biso   1.000  O
  O120     1.0000 0.15294  0.81522  0.43765  Biso   1.000  O
  O121     1.0000 0.07278  0.67936  0.01508  Biso   1.000  O
  O122     1.0000 0.92722  0.17936  0.48492  Biso   1.000  O
  O123     1.0000 0.92722  0.32064  0.98492  Biso   1.000  O
  O124     1.0000 0.07278  0.82064  0.51508  Biso   1.000  O
  O125     1.0000 0.09855  0.70904  0.12435  Biso   1.000  O
  O126     1.0000 0.90145  0.20904  0.37565  Biso   1.000  O
  O127     1.0000 0.90145  0.29096  0.87565  Biso   1.000  O
  O128     1.0000 0.09855  0.79096  0.62435  Biso   1.000  O
  O129     1.0000 0.20715  0.43142  0.21881  Biso   1.000  O
  O130     1.0000 0.79285  0.93142  0.28119  Biso   1.000  O
  O131     1.0000 0.79285  0.56858  0.78119  Biso   1.000  O
  O132     1.0000 0.20715  0.06858  0.71881  Biso   1.000  O
  O133     1.0000 0.31869  0.51934  0.99134  Biso   1.000  O
  O134     1.0000 0.68131  0.01934  0.50866  Biso   1.000  O
  O135     1.0000 0.68131  0.48066  0.00866  Biso   1.000  O
  O136     1.0000 0.31869  0.98066  0.49134  Biso   1.000  O
  O137     1.0000 0.33448  0.42520  0.09786  Biso   1.000  O
  O138     1.0000 0.66552  0.92520  0.40214  Biso   1.000  O
  O139     1.0000 0.66552  0.57480  0.90214  Biso   1.000  O
  O140     1.0000 0.33448  0.07480  0.59786  Biso   1.000  O
  O141     1.0000 0.37165  0.68602  0.96862  Biso   1.000  O
  O142     1.0000 0.62835  0.18602  0.53138  Biso   1.000  O
  O143     1.0000 0.62835  0.31398  0.03138  Biso   1.000  O
  O144     1.0000 0.37165  0.81398  0.46862  Biso   1.000  O
  O145     1.0000 0.40952  0.50934  0.16900  Biso   1.000  O
  O146     1.0000 0.59048  0.00934  0.33100  Biso   1.000  O
  O147     1.0000 0.59048  0.49066  0.83100  Biso   1.000  O
  O148     1.0000 0.40952  0.99066  0.66900  Biso   1.000  O
  O149     1.0000 0.45057  0.77709  0.05005  Biso   1.000  O
  O150     1.0000 0.54943  0.27709  0.44995  Biso   1.000  O
  O151     1.0000 0.54943  0.22291  0.94995  Biso   1.000  O
  O152     1.0000 0.45057  0.72291  0.55005  Biso   1.000  O
  O153     1.0000 0.46904  0.68749  0.14538  Biso   1.000  O
  O154     1.0000 0.53096  0.18749  0.35462  Biso   1.000  O
  O155     1.0000 0.53096  0.31251  0.85462  Biso   1.000  O
  O156     1.0000 0.46904  0.81251  0.64538  Biso   1.000  O
  O157     1.0000 0.41469  0.87180  0.14004  Biso   1.000  O
  O158     1.0000 0.58531  0.37180  0.35996  Biso   1.000  O
  O159     1.0000 0.58531  0.12820  0.85996  Biso   1.000  O
  O160     1.0000 0.41469  0.62820  0.64004  Biso   1.000  O
  O161     1.0000 0.42719  0.98953  0.23276  Biso   1.000  O
  O162     1.0000 0.57281  0.48953  0.26724  Biso   1.000  O
  O163     1.0000 0.57281  0.01047  0.76724  Biso   1.000  O
  O164     1.0000 0.42719  0.51047  0.73276  Biso   1.000  O
  O165     1.0000 0.40863  0.08145  0.13710  Biso   1.000  O
  O166     1.0000 0.59137  0.58145  0.36290  Biso   1.000  O
  O167     1.0000 0.59137  0.91855  0.86290  Biso   1.000  O
  O168     1.0000 0.40863  0.41855  0.63710  Biso   1.000  O
  O169     1.0000 0.38162  0.61636  0.07560  Biso   1.000  O
  O170     1.0000 0.61838  0.11636  0.42440  Biso   1.000  O
  O171     1.0000 0.61838  0.38364  0.92440  Biso   1.000  O
  O172     1.0000 0.38162  0.88364  0.57560  Biso   1.000  O
  O173     1.0000 0.26143  0.70093  0.97835  Biso   1.000  O
  O174     1.0000 0.73857  0.20093  0.52165  Biso   1.000  O
  O175     1.0000 0.73857  0.29907  0.02165  Biso   1.000  O
  O176     1.0000 0.26143  0.79907  0.47835  Biso   1.000  O
  O177     1.0000 0.30121  0.51930  0.18700  Biso   1.000  O
  O178     1.0000 0.69879  0.01930  0.31300  Biso   1.000  O
  O179     1.0000 0.69879  0.48070  0.81300  Biso   1.000  O
  O180     1.0000 0.30121  0.98070  0.68700  Biso   1.000  O
  O181     1.0000 0.27669  0.51889  0.29285  Biso   1.000  O
  O182     1.0000 0.72331  0.01889  0.20715  Biso   1.000  O
  O183     1.0000 0.72331  0.48111  0.70715  Biso   1.000  O
  O184     1.0000 0.27669  0.98111  0.79285  Biso   1.000  O
  N1       1.0000 0.39379  0.28746  0.18357  Biso   1.000  N
  N2       1.0000 0.60621  0.78746  0.31643  Biso   1.000  N
  N3       1.0000 0.60621  0.71254  0.81643  Biso   1.000  N
  N4       1.0000 0.39379  0.21254  0.68357  Biso   1.000  N
  N5       1.0000 0.44485  0.31781  0.10094  Biso   1.000  N
  N6       1.0000 0.55515  0.81781  0.39906  Biso   1.000  N
  N7       1.0000 0.55515  0.68219  0.89906  Biso   1.000  N
  N8       1.0000 0.44485  0.18219  0.60094  Biso   1.000  N
  N9       1.0000 0.37234  0.27888  0.02278  Biso   1.000  N
  N10      1.0000 0.62766  0.77888  0.47722  Biso   1.000  N
  N11      1.0000 0.62766  0.72112  0.97722  Biso   1.000  N
  N12      1.0000 0.37234  0.22112  0.52278  Biso   1.000  N
  N13      1.0000 0.07591  0.82584  0.87044  Biso   1.000  N
  N14      1.0000 0.92409  0.32584  0.62956  Biso   1.000  N
  N15      1.0000 0.92409  0.17416  0.12956  Biso   1.000  N
  N16      1.0000 0.07591  0.67416  0.37044  Biso   1.000  N
  N17      1.0000 0.03347  0.65778  0.89351  Biso   1.000  N
  N18      1.0000 0.96653  0.15778  0.60649  Biso   1.000  N
  N19      1.0000 0.96653  0.34222  0.10649  Biso   1.000  N
  N20      1.0000 0.03347  0.84222  0.39351  Biso   1.000  N
  N21      1.0000 0.09669  0.53008  0.85506  Biso   1.000  N
  N22      1.0000 0.90331  0.03008  0.64494  Biso   1.000  N
  N23      1.0000 0.90331  0.46992  0.14494  Biso   1.000  N
  N24      1.0000 0.09669  0.96992  0.35506  Biso   1.000  N
  C1       1.0000 0.38700  0.70192  0.28135  Biso   1.000  C
  C2       1.0000 0.61300  0.20192  0.21865  Biso   1.000  C
  C3       1.0000 0.61300  0.29808  0.71865  Biso   1.000  C
  C4       1.0000 0.38700  0.79808  0.78135  Biso   1.000  C
  C5       1.0000 0.43367  0.65139  0.26927  Biso   1.000  C
  C6       1.0000 0.56633  0.15139  0.23073  Biso   1.000  C
  C7       1.0000 0.56633  0.34861  0.73073  Biso   1.000  C
  C8       1.0000 0.43367  0.84861  0.76927  Biso   1.000  C
  H1       1.0000 0.44110  0.64380  0.23280  Biso   1.000  H
  H2       1.0000 0.55890  0.14380  0.26720  Biso   1.000  H
  H3       1.0000 0.55890  0.35620  0.76720  Biso   1.000  H
  H4       1.0000 0.44110  0.85620  0.73280  Biso   1.000  H
  C9       1.0000 0.46905  0.61240  0.31120  Biso   1.000  C
  C10      1.0000 0.53095  0.11240  0.18880  Biso   1.000  C
  C11      1.0000 0.53095  0.38760  0.68880  Biso   1.000  C
  C12      1.0000 0.46905  0.88760  0.81120  Biso   1.000  C
  H5       1.0000 0.50120  0.57880  0.30340  Biso   1.000  H
  H6       1.0000 0.49880  0.07880  0.19660  Biso   1.000  H
  H7       1.0000 0.49880  0.42120  0.69660  Biso   1.000  H
  H8       1.0000 0.50120  0.92120  0.80340  Biso   1.000  H
  C13      1.0000 0.45769  0.62230  0.36428  Biso   1.000  C
  C14      1.0000 0.54231  0.12230  0.13572  Biso   1.000  C
  C15      1.0000 0.54231  0.37770  0.63572  Biso   1.000  C
  C16      1.0000 0.45769  0.87770  0.86428  Biso   1.000  C
  H9       1.0000 0.48190  0.59440  0.39270  Biso   1.000  H
  H10      1.0000 0.51810  0.09440  0.10730  Biso   1.000  H
  H11      1.0000 0.51810  0.40560  0.60730  Biso   1.000  H
  H12      1.0000 0.48190  0.90560  0.89270  Biso   1.000  H
  C17      1.0000 0.41125  0.67270  0.37654  Biso   1.000  C
  C18      1.0000 0.58875  0.17270  0.12346  Biso   1.000  C
  C19      1.0000 0.58875  0.32730  0.62346  Biso   1.000  C
  C20      1.0000 0.41125  0.82730  0.87654  Biso   1.000  C
  H13      1.0000 0.40390  0.67920  0.41310  Biso   1.000  H
  H14      1.0000 0.59610  0.17920  0.08690  Biso   1.000  H
  H15      1.0000 0.59610  0.32080  0.58690  Biso   1.000  H
  H16      1.0000 0.40390  0.82080  0.91310  Biso   1.000  H
  C21      1.0000 0.37559  0.71360  0.33509  Biso   1.000  C
  C22      1.0000 0.62441  0.21360  0.16491  Biso   1.000  C
  C23      1.0000 0.62441  0.28640  0.66491  Biso   1.000  C
  C24      1.0000 0.37559  0.78640  0.83509  Biso   1.000  C
  H17      1.0000 0.34400  0.74890  0.34310  Biso   1.000  H
  H18      1.0000 0.65600  0.24890  0.15690  Biso   1.000  H
  H19      1.0000 0.65600  0.25110  0.65690  Biso   1.000  H
  H20      1.0000 0.34400  0.75110  0.84310  Biso   1.000  H
  C25      1.0000 0.34215  0.97509  0.99828  Biso   1.000  C
  C26      1.0000 0.65785  0.47509  0.50172  Biso   1.000  C
  C27      1.0000 0.65785  0.02491  0.00172  Biso   1.000  C
  C28      1.0000 0.34215  0.52491  0.49828  Biso   1.000  C
  C29      1.0000 0.39569  0.00550  0.01321  Biso   1.000  C
  C30      1.0000 0.60431  0.50550  0.48679  Biso   1.000  C
  C31      1.0000 0.60431  0.99450  0.98679  Biso   1.000  C
  C32      1.0000 0.39569  0.49450  0.51321  Biso   1.000  C
  H21      1.0000 0.41280  0.99200  0.04850  Biso   1.000  H
  H22      1.0000 0.58720  0.49200  0.45150  Biso   1.000  H
  H23      1.0000 0.58720  0.00800  0.95150  Biso   1.000  H
  H24      1.0000 0.41280  0.50800  0.54850  Biso   1.000  H
  C33      1.0000 0.42342  0.05570  0.97536  Biso   1.000  C
  C34      1.0000 0.57658  0.55570  0.52464  Biso   1.000  C
  C35      1.0000 0.57658  0.94430  0.02464  Biso   1.000  C
  C36      1.0000 0.42342  0.44430  0.47536  Biso   1.000  C
  H25      1.0000 0.45980  0.07740  0.98470  Biso   1.000  H
  H26      1.0000 0.54020  0.57740  0.51530  Biso   1.000  H
  H27      1.0000 0.54020  0.92260  0.01530  Biso   1.000  H
  H28      1.0000 0.45980  0.42260  0.48470  Biso   1.000  H
  C37      1.0000 0.39773  0.07400  0.92389  Biso   1.000  C
  C38      1.0000 0.60227  0.57400  0.57611  Biso   1.000  C
  C39      1.0000 0.60227  0.92600  0.07611  Biso   1.000  C
  C40      1.0000 0.39773  0.42600  0.42389  Biso   1.000  C
  H29      1.0000 0.41680  0.10810  0.89810  Biso   1.000  H
  H30      1.0000 0.58320  0.60810  0.60190  Biso   1.000  H
  H31      1.0000 0.58320  0.89190  0.10190  Biso   1.000  H
  H32      1.0000 0.41680  0.39190  0.39810  Biso   1.000  H
  C41      1.0000 0.34500  0.04360  0.90961  Biso   1.000  C
  C42      1.0000 0.65500  0.54360  0.59039  Biso   1.000  C
  C43      1.0000 0.65500  0.95640  0.09039  Biso   1.000  C
  C44      1.0000 0.34500  0.45640  0.40961  Biso   1.000  C
  H33      1.0000 0.32810  0.05710  0.87420  Biso   1.000  H
  H34      1.0000 0.67190  0.55710  0.62580  Biso   1.000  H
  H35      1.0000 0.67190  0.94290  0.12580  Biso   1.000  H
  H36      1.0000 0.32810  0.44290  0.37420  Biso   1.000  H
  C45      1.0000 0.31627  0.99310  0.94667  Biso   1.000  C
  C46      1.0000 0.68373  0.49310  0.55333  Biso   1.000  C
  C47      1.0000 0.68373  0.00690  0.05333  Biso   1.000  C
  C48      1.0000 0.31627  0.50690  0.44667  Biso   1.000  C
  H37      1.0000 0.28000  0.97160  0.93700  Biso   1.000  H
  H38      1.0000 0.72000  0.47160  0.56300  Biso   1.000  H
  H39      1.0000 0.72000  0.02840  0.06300  Biso   1.000  H
  H40      1.0000 0.28000  0.52840  0.43700  Biso   1.000  H
  C49      1.0000 0.19132  0.47737  0.05477  Biso   1.000  C
  C50      1.0000 0.80868  0.97737  0.44523  Biso   1.000  C
  C51      1.0000 0.80868  0.52263  0.94523  Biso   1.000  C
  C52      1.0000 0.19132  0.02263  0.55477  Biso   1.000  C
  C53      1.0000 0.18244  0.39460  0.08751  Biso   1.000  C
  C54      1.0000 0.81756  0.89460  0.41249  Biso   1.000  C
  C55      1.0000 0.81756  0.60540  0.91249  Biso   1.000  C
  C56      1.0000 0.18244  0.10540  0.58751  Biso   1.000  C
  H41      1.0000 0.18240  0.40250  0.12550  Biso   1.000  H
  H42      1.0000 0.81760  0.90250  0.37450  Biso   1.000  H
  H43      1.0000 0.81760  0.59750  0.87450  Biso   1.000  H
  H44      1.0000 0.18240  0.09750  0.62550  Biso   1.000  H
  C57      1.0000 0.17371  0.30010  0.06345  Biso   1.000  C
  C58      1.0000 0.82629  0.80010  0.43655  Biso   1.000  C
  C59      1.0000 0.82629  0.69990  0.93655  Biso   1.000  C
  C60      1.0000 0.17371  0.19990  0.56345  Biso   1.000  C
  H45      1.0000 0.16730  0.24300  0.08510  Biso   1.000  H
  H46      1.0000 0.83270  0.74300  0.41490  Biso   1.000  H
  H47      1.0000 0.83270  0.75700  0.91490  Biso   1.000  H
  H48      1.0000 0.16730  0.25700  0.58510  Biso   1.000  H
  C61      1.0000 0.17430  0.28870  0.00809  Biso   1.000  C
  C62      1.0000 0.82570  0.78870  0.49191  Biso   1.000  C
  C63      1.0000 0.82570  0.71130  0.99191  Biso   1.000  C
  C64      1.0000 0.17430  0.21130  0.50809  Biso   1.000  C
  H49      1.0000 0.16860  0.22370  0.99210  Biso   1.000  H
  H50      1.0000 0.83140  0.72370  0.50790  Biso   1.000  H
  H51      1.0000 0.83140  0.77630  0.00790  Biso   1.000  H
  H52      1.0000 0.16860  0.27630  0.49210  Biso   1.000  H
  C65      1.0000 0.18325  0.37180  0.97587  Biso   1.000  C
  C66      1.0000 0.81675  0.87180  0.52413  Biso   1.000  C
  C67      1.0000 0.81675  0.62820  0.02413  Biso   1.000  C
  C68      1.0000 0.18325  0.12820  0.47587  Biso   1.000  C
  H53      1.0000 0.18360  0.36350  0.93790  Biso   1.000  H
  H54      1.0000 0.81640  0.86350  0.56210  Biso   1.000  H
  H55      1.0000 0.81640  0.63650  0.06210  Biso   1.000  H
  H56      1.0000 0.18360  0.13650  0.43790  Biso   1.000  H
  C69      1.0000 0.19168  0.46670  0.99902  Biso   1.000  C
  C70      1.0000 0.80832  0.96670  0.50098  Biso   1.000  C
  C71      1.0000 0.80832  0.53330  0.00098  Biso   1.000  C
  C72      1.0000 0.19168  0.03330  0.49902  Biso   1.000  C
  H57      1.0000 0.19760  0.52380  0.97720  Biso   1.000  H
  H58      1.0000 0.80240  0.02380  0.52280  Biso   1.000  H
  H59      1.0000 0.80240  0.47620  0.02280  Biso   1.000  H
  H60      1.0000 0.19760  0.97620  0.47720  Biso   1.000  H
  C73      1.0000 0.11329  0.99340  0.19242  Biso   1.000  C
  C74      1.0000 0.88671  0.49340  0.30758  Biso   1.000  C
  C75      1.0000 0.88671  0.00660  0.80758  Biso   1.000  C
  C76      1.0000 0.11329  0.50660  0.69242  Biso   1.000  C
  C77      1.0000 0.06921  0.94710  0.21334  Biso   1.000  C
  C78      1.0000 0.93079  0.44710  0.28666  Biso   1.000  C
  C79      1.0000 0.93079  0.05290  0.78666  Biso   1.000  C
  C80      1.0000 0.06921  0.55290  0.71334  Biso   1.000  C
  H61      1.0000 0.06800  0.87560  0.21750  Biso   1.000  H
  H62      1.0000 0.93200  0.37560  0.28250  Biso   1.000  H
  H63      1.0000 0.93200  0.12440  0.78250  Biso   1.000  H
  H64      1.0000 0.06800  0.62440  0.71750  Biso   1.000  H
  C81      1.0000 0.02715  0.00790  0.22797  Biso   1.000  C
  C82      1.0000 0.97285  0.50790  0.27203  Biso   1.000  C
  C83      1.0000 0.97285  0.99210  0.77203  Biso   1.000  C
  C84      1.0000 0.02715  0.49210  0.72797  Biso   1.000  C
  H65      1.0000 0.99670  0.97740  0.24170  Biso   1.000  H
  H66      1.0000 0.00330  0.47740  0.25830  Biso   1.000  H
  H67      1.0000 0.00330  0.02260  0.75830  Biso   1.000  H
  H68      1.0000 0.99670  0.52260  0.74170  Biso   1.000  H
  C85      1.0000 0.02925  0.11100  0.22271  Biso   1.000  C
  C86      1.0000 0.97075  0.61100  0.27729  Biso   1.000  C
  C87      1.0000 0.97075  0.88900  0.77729  Biso   1.000  C
  C88      1.0000 0.02925  0.38900  0.72271  Biso   1.000  C
  H69      1.0000 0.00060  0.15150  0.23350  Biso   1.000  H
  H70      1.0000 0.99940  0.65150  0.26650  Biso   1.000  H
  H71      1.0000 0.99940  0.84850  0.76650  Biso   1.000  H
  H72      1.0000 0.00060  0.34850  0.73350  Biso   1.000  H
  C89      1.0000 0.07309  0.15720  0.20171  Biso   1.000  C
  C90      1.0000 0.92691  0.65720  0.29829  Biso   1.000  C
  C91      1.0000 0.92691  0.84280  0.79829  Biso   1.000  C
  C92      1.0000 0.07309  0.34280  0.70171  Biso   1.000  C
  H73      1.0000 0.07410  0.22870  0.19790  Biso   1.000  H
  H74      1.0000 0.92590  0.72870  0.30210  Biso   1.000  H
  H75      1.0000 0.92590  0.77130  0.80210  Biso   1.000  H
  H76      1.0000 0.07410  0.27130  0.69790  Biso   1.000  H
  C93      1.0000 0.11521  0.09840  0.18645  Biso   1.000  C
  C94      1.0000 0.88479  0.59840  0.31355  Biso   1.000  C
  C95      1.0000 0.88479  0.90160  0.81355  Biso   1.000  C
  C96      1.0000 0.11521  0.40160  0.68645  Biso   1.000  C
  H77      1.0000 0.14520  0.12930  0.17200  Biso   1.000  H
  H78      1.0000 0.85480  0.62930  0.32800  Biso   1.000  H
  H79      1.0000 0.85480  0.87070  0.82800  Biso   1.000  H
  H80      1.0000 0.14520  0.37070  0.67200  Biso   1.000  H
  C97      1.0000 0.36222  0.27900  0.22366  Biso   1.000  C
  C98      1.0000 0.63778  0.77900  0.27634  Biso   1.000  C
  C99      1.0000 0.63778  0.72100  0.77634  Biso   1.000  C
  C100     1.0000 0.36222  0.22100  0.72366  Biso   1.000  C
  H81      1.0000 0.32500  0.26260  0.21500  Biso   1.000  H
  H82      1.0000 0.67500  0.76260  0.28500  Biso   1.000  H
  H83      1.0000 0.67500  0.73740  0.78500  Biso   1.000  H
  H84      1.0000 0.32500  0.23740  0.71500  Biso   1.000  H
  C101     1.0000 0.38206  0.29330  0.27776  Biso   1.000  C
  C102     1.0000 0.61794  0.79330  0.22224  Biso   1.000  C
  C103     1.0000 0.61794  0.70670  0.72224  Biso   1.000  C
  C104     1.0000 0.38206  0.20670  0.77776  Biso   1.000  C
  H85      1.0000 0.35890  0.28710  0.30570  Biso   1.000  H
  H86      1.0000 0.64110  0.78710  0.19430  Biso   1.000  H
  H87      1.0000 0.64110  0.71290  0.69430  Biso   1.000  H
  H88      1.0000 0.35890  0.21290  0.80570  Biso   1.000  H
  C105     1.0000 0.43644  0.31690  0.28957  Biso   1.000  C
  C106     1.0000 0.56356  0.81690  0.21043  Biso   1.000  C
  C107     1.0000 0.56356  0.68310  0.71043  Biso   1.000  C
  C108     1.0000 0.43644  0.18310  0.78957  Biso   1.000  C
  H89      1.0000 0.45160  0.32350  0.32620  Biso   1.000  H
  H90      1.0000 0.54840  0.82350  0.17380  Biso   1.000  H
  H91      1.0000 0.54840  0.67650  0.67380  Biso   1.000  H
  H92      1.0000 0.45160  0.17650  0.82620  Biso   1.000  H
  C109     1.0000 0.46872  0.33070  0.24810  Biso   1.000  C
  C110     1.0000 0.53128  0.83070  0.25190  Biso   1.000  C
  C111     1.0000 0.53128  0.66930  0.75190  Biso   1.000  C
  C112     1.0000 0.46872  0.16930  0.74810  Biso   1.000  C
  H93      1.0000 0.50580  0.34920  0.25570  Biso   1.000  H
  H94      1.0000 0.49420  0.84920  0.24430  Biso   1.000  H
  H95      1.0000 0.49420  0.65080  0.74430  Biso   1.000  H
  H96      1.0000 0.50580  0.15080  0.75570  Biso   1.000  H
  C113     1.0000 0.44610  0.31709  0.19568  Biso   1.000  C
  C114     1.0000 0.55390  0.81709  0.30432  Biso   1.000  C
  C115     1.0000 0.55390  0.68291  0.80432  Biso   1.000  C
  C116     1.0000 0.44610  0.18291  0.69568  Biso   1.000  C
  C117     1.0000 0.47464  0.34021  0.14749  Biso   1.000  C
  C118     1.0000 0.52536  0.84021  0.35251  Biso   1.000  C
  C119     1.0000 0.52536  0.65979  0.85251  Biso   1.000  C
  C120     1.0000 0.47464  0.15979  0.64749  Biso   1.000  C
  C121     1.0000 0.52464  0.38710  0.14726  Biso   1.000  C
  C122     1.0000 0.47536  0.88710  0.35274  Biso   1.000  C
  C123     1.0000 0.47536  0.61290  0.85274  Biso   1.000  C
  C124     1.0000 0.52464  0.11290  0.64726  Biso   1.000  C
  H97      1.0000 0.54530  0.40580  0.18020  Biso   1.000  H
  H98      1.0000 0.45470  0.90580  0.31980  Biso   1.000  H
  H99      1.0000 0.45470  0.59420  0.81980  Biso   1.000  H
  H100     1.0000 0.54530  0.09420  0.68020  Biso   1.000  H
  C125     1.0000 0.54376  0.40600  0.09752  Biso   1.000  C
  C126     1.0000 0.45624  0.90600  0.40248  Biso   1.000  C
  C127     1.0000 0.45624  0.59400  0.90248  Biso   1.000  C
  C128     1.0000 0.54376  0.09400  0.59752  Biso   1.000  C
  H101     1.0000 0.57870  0.43510  0.09640  Biso   1.000  H
  H102     1.0000 0.42130  0.93510  0.40360  Biso   1.000  H
  H103     1.0000 0.42130  0.56490  0.90360  Biso   1.000  H
  H104     1.0000 0.57870  0.06490  0.59640  Biso   1.000  H
  C129     1.0000 0.51222  0.38290  0.04953  Biso   1.000  C
  C130     1.0000 0.48778  0.88290  0.45047  Biso   1.000  C
  C131     1.0000 0.48778  0.61710  0.95047  Biso   1.000  C
  C132     1.0000 0.51222  0.11710  0.54953  Biso   1.000  C
  H105     1.0000 0.52510  0.39600  0.01550  Biso   1.000  H
  H106     1.0000 0.47490  0.89600  0.48450  Biso   1.000  H
  H107     1.0000 0.47490  0.60400  0.98450  Biso   1.000  H
  H108     1.0000 0.52510  0.10400  0.51550  Biso   1.000  H
  C133     1.0000 0.46131  0.34000  0.05233  Biso   1.000  C
  C134     1.0000 0.53869  0.84000  0.44767  Biso   1.000  C
  C135     1.0000 0.53869  0.66000  0.94767  Biso   1.000  C
  C136     1.0000 0.46131  0.16000  0.55233  Biso   1.000  C
  C137     1.0000 0.41879  0.31980  0.00703  Biso   1.000  C
  C138     1.0000 0.58121  0.81980  0.49297  Biso   1.000  C
  C139     1.0000 0.58121  0.68020  0.99297  Biso   1.000  C
  C140     1.0000 0.41879  0.18020  0.50703  Biso   1.000  C
  C141     1.0000 0.42318  0.34620  0.95381  Biso   1.000  C
  C142     1.0000 0.57682  0.84620  0.54619  Biso   1.000  C
  C143     1.0000 0.57682  0.65380  0.04619  Biso   1.000  C
  C144     1.0000 0.42318  0.15380  0.45381  Biso   1.000  C
  H109     1.0000 0.45640  0.37130  0.94330  Biso   1.000  H
  H110     1.0000 0.54360  0.87130  0.55670  Biso   1.000  H
  H111     1.0000 0.54360  0.62870  0.05670  Biso   1.000  H
  H112     1.0000 0.45640  0.12870  0.44330  Biso   1.000  H
  C145     1.0000 0.37759  0.33520  0.91579  Biso   1.000  C
  C146     1.0000 0.62241  0.83520  0.58421  Biso   1.000  C
  C147     1.0000 0.62241  0.66480  0.08421  Biso   1.000  C
  C148     1.0000 0.37759  0.16480  0.41579  Biso   1.000  C
  H113     1.0000 0.37910  0.35490  0.87920  Biso   1.000  H
  H114     1.0000 0.62090  0.85490  0.62080  Biso   1.000  H
  H115     1.0000 0.62090  0.64510  0.12080  Biso   1.000  H
  H116     1.0000 0.37910  0.14510  0.37920  Biso   1.000  H
  C149     1.0000 0.33078  0.29580  0.93190  Biso   1.000  C
  C150     1.0000 0.66922  0.79580  0.56810  Biso   1.000  C
  C151     1.0000 0.66922  0.70420  0.06810  Biso   1.000  C
  C152     1.0000 0.33078  0.20420  0.43190  Biso   1.000  C
  H117     1.0000 0.29940  0.28840  0.90660  Biso   1.000  H
  H118     1.0000 0.70060  0.78840  0.59340  Biso   1.000  H
  H119     1.0000 0.70060  0.71160  0.09340  Biso   1.000  H
  H120     1.0000 0.29940  0.21160  0.40660  Biso   1.000  H
  C153     1.0000 0.32948  0.26650  0.98591  Biso   1.000  C
  C154     1.0000 0.67052  0.76650  0.51409  Biso   1.000  C
  C155     1.0000 0.67052  0.73350  0.01409  Biso   1.000  C
  C156     1.0000 0.32948  0.23350  0.48591  Biso   1.000  C
  H121     1.0000 0.29730  0.23700  0.99660  Biso   1.000  H
  H122     1.0000 0.70270  0.73700  0.50340  Biso   1.000  H
  H123     1.0000 0.70270  0.76300  0.00340  Biso   1.000  H
  H124     1.0000 0.29730  0.26300  0.49660  Biso   1.000  H
  C157     1.0000 0.10176  0.90890  0.85660  Biso   1.000  C
  C158     1.0000 0.89824  0.40890  0.64340  Biso   1.000  C
  C159     1.0000 0.89824  0.09110  0.14340  Biso   1.000  C
  C160     1.0000 0.10176  0.59110  0.35660  Biso   1.000  C
  H125     1.0000 0.13050  0.90220  0.83440  Biso   1.000  H
  H126     1.0000 0.86950  0.40220  0.66560  Biso   1.000  H
  H127     1.0000 0.86950  0.09780  0.16560  Biso   1.000  H
  H128     1.0000 0.13050  0.59780  0.33440  Biso   1.000  H
  C161     1.0000 0.08798  0.00480  0.87351  Biso   1.000  C
  C162     1.0000 0.91202  0.50480  0.62649  Biso   1.000  C
  C163     1.0000 0.91202  0.99520  0.12649  Biso   1.000  C
  C164     1.0000 0.08798  0.49520  0.37351  Biso   1.000  C
  H129     1.0000 0.10720  0.06290  0.86340  Biso   1.000  H
  H130     1.0000 0.89280  0.56290  0.63660  Biso   1.000  H
  H131     1.0000 0.89280  0.93710  0.13660  Biso   1.000  H
  H132     1.0000 0.10720  0.43710  0.36340  Biso   1.000  H
  C165     1.0000 0.04576  0.01430  0.90539  Biso   1.000  C
  C166     1.0000 0.95424  0.51430  0.59461  Biso   1.000  C
  C167     1.0000 0.95424  0.98570  0.09461  Biso   1.000  C
  C168     1.0000 0.04576  0.48570  0.40539  Biso   1.000  C
  H133     1.0000 0.03590  0.07910  0.91780  Biso   1.000  H
  H134     1.0000 0.96410  0.57910  0.58220  Biso   1.000  H
  H135     1.0000 0.96410  0.92090  0.08220  Biso   1.000  H
  H136     1.0000 0.03590  0.42090  0.41780  Biso   1.000  H
  C169     1.0000 0.01803  0.92850  0.91906  Biso   1.000  C
  C170     1.0000 0.98197  0.42850  0.58094  Biso   1.000  C
  C171     1.0000 0.98197  0.07150  0.08094  Biso   1.000  C
  C172     1.0000 0.01803  0.57150  0.41906  Biso   1.000  C
  H137     1.0000 0.98860  0.93400  0.94040  Biso   1.000  H
  H138     1.0000 0.01140  0.43400  0.55960  Biso   1.000  H
  H139     1.0000 0.01140  0.06600  0.05960  Biso   1.000  H
  H140     1.0000 0.98860  0.56600  0.44040  Biso   1.000  H
  C173     1.0000 0.03375  0.83500  0.90121  Biso   1.000  C
  C174     1.0000 0.96625  0.33500  0.59879  Biso   1.000  C
  C175     1.0000 0.96625  0.16500  0.09879  Biso   1.000  C
  C176     1.0000 0.03375  0.66500  0.40121  Biso   1.000  C
  C177     1.0000 0.00894  0.73700  0.91402  Biso   1.000  C
  C178     1.0000 0.99106  0.23700  0.58598  Biso   1.000  C
  C179     1.0000 0.99106  0.26300  0.08598  Biso   1.000  C
  C180     1.0000 0.00894  0.76300  0.41402  Biso   1.000  C
  C181     1.0000 0.96592  0.72110  0.94492  Biso   1.000  C
  C182     1.0000 0.03408  0.22110  0.55508  Biso   1.000  C
  C183     1.0000 0.03408  0.27890  0.05508  Biso   1.000  C
  C184     1.0000 0.96592  0.77890  0.44492  Biso   1.000  C
  H141     1.0000 0.94740  0.77640  0.95910  Biso   1.000  H
  H142     1.0000 0.05260  0.27640  0.54090  Biso   1.000  H
  H143     1.0000 0.05260  0.22360  0.04090  Biso   1.000  H
  H144     1.0000 0.94740  0.72360  0.45910  Biso   1.000  H
  C185     1.0000 0.95108  0.62250  0.95424  Biso   1.000  C
  C186     1.0000 0.04892  0.12250  0.54576  Biso   1.000  C
  C187     1.0000 0.04892  0.37750  0.04576  Biso   1.000  C
  C188     1.0000 0.95108  0.87750  0.45424  Biso   1.000  C
  H145     1.0000 0.92220  0.61010  0.97560  Biso   1.000  H
  H146     1.0000 0.07780  0.11010  0.52440  Biso   1.000  H
  H147     1.0000 0.07780  0.38990  0.02440  Biso   1.000  H
  H148     1.0000 0.92220  0.88990  0.47560  Biso   1.000  H
  C189     1.0000 0.97714  0.54110  0.93325  Biso   1.000  C
  C190     1.0000 0.02286  0.04110  0.56675  Biso   1.000  C
  C191     1.0000 0.02286  0.45890  0.06675  Biso   1.000  C
  C192     1.0000 0.97714  0.95890  0.43325  Biso   1.000  C
  H149     1.0000 0.96650  0.47350  0.93980  Biso   1.000  H
  H150     1.0000 0.03350  0.97350  0.56020  Biso   1.000  H
  H151     1.0000 0.03350  0.52650  0.06020  Biso   1.000  H
  H152     1.0000 0.96650  0.02650  0.43980  Biso   1.000  H
  C193     1.0000 0.01955  0.56170  0.90210  Biso   1.000  C
  C194     1.0000 0.98045  0.06170  0.59790  Biso   1.000  C
  C195     1.0000 0.98045  0.43830  0.09790  Biso   1.000  C
  C196     1.0000 0.01955  0.93830  0.40210  Biso   1.000  C
  C197     1.0000 0.05431  0.48770  0.87797  Biso   1.000  C
  C198     1.0000 0.94569  0.98770  0.62203  Biso   1.000  C
  C199     1.0000 0.94569  0.51230  0.12203  Biso   1.000  C
  C200     1.0000 0.05431  0.01230  0.37797  Biso   1.000  C
  C201     1.0000 0.04663  0.38420  0.87817  Biso   1.000  C
  C202     1.0000 0.95337  0.88420  0.62183  Biso   1.000  C
  C203     1.0000 0.95337  0.61580  0.12183  Biso   1.000  C
  C204     1.0000 0.04663  0.11580  0.37817  Biso   1.000  C
  H153     1.0000 0.01670  0.35550  0.89360  Biso   1.000  H
  H154     1.0000 0.98330  0.85550  0.60640  Biso   1.000  H
  H155     1.0000 0.98330  0.64450  0.10640  Biso   1.000  H
  H156     1.0000 0.01670  0.14450  0.39360  Biso   1.000  H
  C205     1.0000 0.08377  0.32290  0.85515  Biso   1.000  C
  C206     1.0000 0.91623  0.82290  0.64485  Biso   1.000  C
  C207     1.0000 0.91623  0.67710  0.14485  Biso   1.000  C
  C208     1.0000 0.08377  0.17710  0.35515  Biso   1.000  C
  H157     1.0000 0.07930  0.25140  0.85490  Biso   1.000  H
  H158     1.0000 0.92070  0.75140  0.64510  Biso   1.000  H
  H159     1.0000 0.92070  0.74860  0.14510  Biso   1.000  H
  H160     1.0000 0.07930  0.24860  0.35490  Biso   1.000  H
  C209     1.0000 0.12687  0.36570  0.83276  Biso   1.000  C
  C210     1.0000 0.87313  0.86570  0.66724  Biso   1.000  C
  C211     1.0000 0.87313  0.63430  0.16724  Biso   1.000  C
  C212     1.0000 0.12687  0.13430  0.33276  Biso   1.000  C
  H161     1.0000 0.15270  0.32430  0.81750  Biso   1.000  H
  H162     1.0000 0.84730  0.82430  0.68250  Biso   1.000  H
  H163     1.0000 0.84730  0.67570  0.18250  Biso   1.000  H
  H164     1.0000 0.15270  0.17570  0.31750  Biso   1.000  H
  C213     1.0000 0.13193  0.47010  0.83293  Biso   1.000  C
  C214     1.0000 0.86807  0.97010  0.66707  Biso   1.000  C
  C215     1.0000 0.86807  0.52990  0.16707  Biso   1.000  C
  C216     1.0000 0.13193  0.02990  0.33293  Biso   1.000  C
  H165     1.0000 0.16120  0.50000  0.81690  Biso   1.000  H
  H166     1.0000 0.83880  0.00000  0.68310  Biso   1.000  H
  H167     1.0000 0.83880  0.50000  0.18310  Biso   1.000  H
  H168     1.0000 0.16120  0.00000  0.31690  Biso   1.000  H
  O185     1.0000 0.25192  0.29170  0.30120  Biso   1.000  O
  O186     1.0000 0.74808  0.79170  0.19880  Biso   1.000  O
  O187     1.0000 0.74808  0.70830  0.69880  Biso   1.000  O
  O188     1.0000 0.25192  0.20830  0.80120  Biso   1.000  O
  O189     1.0000 0.19159  0.17310  0.88346  Biso   1.000  O
  O190     1.0000 0.80841  0.67310  0.61654  Biso   1.000  O
  O191     1.0000 0.80841  0.82690  0.11654  Biso   1.000  O
  O192     1.0000 0.19159  0.32690  0.38346  Biso   1.000  O
  O193     1.0000 0.10710  0.37000  0.27000  Biso   1.000  O
  O194     1.0000 0.89290  0.87000  0.23000  Biso   1.000  O
  O195     1.0000 0.89290  0.63000  0.73000  Biso   1.000  O
  O196     1.0000 0.10710  0.13000  0.77000  Biso   1.000  O
