data_image0
_cell_length_a       60.91
_cell_length_b       60.91
_cell_length_c       60.91
_cell_angle_alpha    90
_cell_angle_beta     90
_cell_angle_gamma    90

_symmetry_space_group_name_H-M    "P 1"
_symmetry_int_tables_number       1

loop_
  _symmetry_equiv_pos_as_xyz
  'x, y, z'

loop_
  _atom_site_label
  _atom_site_occupancy
  _atom_site_fract_x
  _atom_site_fract_y
  _atom_site_fract_z
  _atom_site_thermal_displace_type
  _atom_site_B_iso_or_equiv
  _atom_site_type_symbol
  Cu1      1.0000 0.00000  0.76524  0.23476  Biso   1.000  Cu
  Cu2      1.0000 0.00000  0.23476  0.23476  Biso   1.000  Cu
  Cu3      1.0000 0.00000  0.76524  0.76524  Biso   1.000  Cu
  Cu4      1.0000 0.00000  0.23476  0.76524  Biso   1.000  Cu
  Cu5      1.0000 0.23476  0.00000  0.76524  Biso   1.000  Cu
  Cu6      1.0000 0.23476  0.00000  0.23476  Biso   1.000  Cu
  Cu7      1.0000 0.76524  0.00000  0.76524  Biso   1.000  Cu
  Cu8      1.0000 0.76524  0.00000  0.23476  Biso   1.000  Cu
  Cu9      1.0000 0.76524  0.23476  0.00000  Biso   1.000  Cu
  Cu10     1.0000 0.23476  0.23476  0.00000  Biso   1.000  Cu
  Cu11     1.0000 0.76524  0.76524  0.00000  Biso   1.000  Cu
  Cu12     1.0000 0.23476  0.76524  0.00000  Biso   1.000  Cu
  Cu13     1.0000 0.00000  0.26524  0.73476  Biso   1.000  Cu
  Cu14     1.0000 0.00000  0.73476  0.73476  Biso   1.000  Cu
  Cu15     1.0000 0.00000  0.26524  0.26524  Biso   1.000  Cu
  Cu16     1.0000 0.00000  0.73476  0.26524  Biso   1.000  Cu
  Cu17     1.0000 0.23476  0.50000  0.26524  Biso   1.000  Cu
  Cu18     1.0000 0.23476  0.50000  0.73476  Biso   1.000  Cu
  Cu19     1.0000 0.76524  0.50000  0.26524  Biso   1.000  Cu
  Cu20     1.0000 0.76524  0.50000  0.73476  Biso   1.000  Cu
  Cu21     1.0000 0.76524  0.73476  0.50000  Biso   1.000  Cu
  Cu22     1.0000 0.23476  0.73476  0.50000  Biso   1.000  Cu
  Cu23     1.0000 0.76524  0.26524  0.50000  Biso   1.000  Cu
  Cu24     1.0000 0.23476  0.26524  0.50000  Biso   1.000  Cu
  Cu25     1.0000 0.50000  0.76524  0.73476  Biso   1.000  Cu
  Cu26     1.0000 0.50000  0.23476  0.73476  Biso   1.000  Cu
  Cu27     1.0000 0.50000  0.76524  0.26524  Biso   1.000  Cu
  Cu28     1.0000 0.50000  0.23476  0.26524  Biso   1.000  Cu
  Cu29     1.0000 0.73476  0.00000  0.26524  Biso   1.000  Cu
  Cu30     1.0000 0.73476  0.00000  0.73476  Biso   1.000  Cu
  Cu31     1.0000 0.26524  0.00000  0.26524  Biso   1.000  Cu
  Cu32     1.0000 0.26524  0.00000  0.73476  Biso   1.000  Cu
  Cu33     1.0000 0.26524  0.23476  0.50000  Biso   1.000  Cu
  Cu34     1.0000 0.73476  0.23476  0.50000  Biso   1.000  Cu
  Cu35     1.0000 0.26524  0.76524  0.50000  Biso   1.000  Cu
  Cu36     1.0000 0.73476  0.76524  0.50000  Biso   1.000  Cu
  Cu37     1.0000 0.50000  0.26524  0.23476  Biso   1.000  Cu
  Cu38     1.0000 0.50000  0.73476  0.23476  Biso   1.000  Cu
  Cu39     1.0000 0.50000  0.26524  0.76524  Biso   1.000  Cu
  Cu40     1.0000 0.50000  0.73476  0.76524  Biso   1.000  Cu
  Cu41     1.0000 0.73476  0.50000  0.76524  Biso   1.000  Cu
  Cu42     1.0000 0.73476  0.50000  0.23476  Biso   1.000  Cu
  Cu43     1.0000 0.26524  0.50000  0.76524  Biso   1.000  Cu
  Cu44     1.0000 0.26524  0.50000  0.23476  Biso   1.000  Cu
  Cu45     1.0000 0.26524  0.73476  0.00000  Biso   1.000  Cu
  Cu46     1.0000 0.73476  0.73476  0.00000  Biso   1.000  Cu
  Cu47     1.0000 0.26524  0.26524  0.00000  Biso   1.000  Cu
  Cu48     1.0000 0.73476  0.26524  0.00000  Biso   1.000  Cu
  O1       1.0000 0.01716  0.74529  0.22161  Biso   1.000  O
  O2       1.0000 0.98284  0.25471  0.22161  Biso   1.000  O
  O3       1.0000 0.98284  0.74529  0.77839  Biso   1.000  O
  O4       1.0000 0.01716  0.25471  0.77839  Biso   1.000  O
  O5       1.0000 0.22161  0.01716  0.74529  Biso   1.000  O
  O6       1.0000 0.22161  0.98284  0.25471  Biso   1.000  O
  O7       1.0000 0.77839  0.98284  0.74529  Biso   1.000  O
  O8       1.0000 0.77839  0.01716  0.25471  Biso   1.000  O
  O9       1.0000 0.74529  0.22161  0.01716  Biso   1.000  O
  O10      1.0000 0.25471  0.22161  0.98284  Biso   1.000  O
  O11      1.0000 0.74529  0.77839  0.98284  Biso   1.000  O
  O12      1.0000 0.25471  0.77839  0.01716  Biso   1.000  O
  O13      1.0000 0.74529  0.01716  0.77839  Biso   1.000  O
  O14      1.0000 0.25471  0.98284  0.77839  Biso   1.000  O
  O15      1.0000 0.74529  0.98284  0.22161  Biso   1.000  O
  O16      1.0000 0.25471  0.01716  0.22161  Biso   1.000  O
  O17      1.0000 0.01716  0.22161  0.25471  Biso   1.000  O
  O18      1.0000 0.98284  0.22161  0.74529  Biso   1.000  O
  O19      1.0000 0.98284  0.77839  0.25471  Biso   1.000  O
  O20      1.0000 0.01716  0.77839  0.74529  Biso   1.000  O
  O21      1.0000 0.22161  0.74529  0.98284  Biso   1.000  O
  O22      1.0000 0.22161  0.25471  0.01716  Biso   1.000  O
  O23      1.0000 0.77839  0.74529  0.01716  Biso   1.000  O
  O24      1.0000 0.77839  0.25471  0.98284  Biso   1.000  O
  O25      1.0000 0.01716  0.24529  0.72161  Biso   1.000  O
  O26      1.0000 0.98284  0.75471  0.72161  Biso   1.000  O
  O27      1.0000 0.98284  0.24529  0.27839  Biso   1.000  O
  O28      1.0000 0.01716  0.75471  0.27839  Biso   1.000  O
  O29      1.0000 0.22161  0.51716  0.24529  Biso   1.000  O
  O30      1.0000 0.22161  0.48284  0.75471  Biso   1.000  O
  O31      1.0000 0.77839  0.48284  0.24529  Biso   1.000  O
  O32      1.0000 0.77839  0.51716  0.75471  Biso   1.000  O
  O33      1.0000 0.74529  0.72161  0.51716  Biso   1.000  O
  O34      1.0000 0.25471  0.72161  0.48284  Biso   1.000  O
  O35      1.0000 0.74529  0.27839  0.48284  Biso   1.000  O
  O36      1.0000 0.25471  0.27839  0.51716  Biso   1.000  O
  O37      1.0000 0.74529  0.51716  0.27839  Biso   1.000  O
  O38      1.0000 0.25471  0.48284  0.27839  Biso   1.000  O
  O39      1.0000 0.74529  0.48284  0.72161  Biso   1.000  O
  O40      1.0000 0.25471  0.51716  0.72161  Biso   1.000  O
  O41      1.0000 0.01716  0.72161  0.75471  Biso   1.000  O
  O42      1.0000 0.98284  0.72161  0.24529  Biso   1.000  O
  O43      1.0000 0.98284  0.27839  0.75471  Biso   1.000  O
  O44      1.0000 0.01716  0.27839  0.24529  Biso   1.000  O
  O45      1.0000 0.22161  0.24529  0.48284  Biso   1.000  O
  O46      1.0000 0.22161  0.75471  0.51716  Biso   1.000  O
  O47      1.0000 0.77839  0.24529  0.51716  Biso   1.000  O
  O48      1.0000 0.77839  0.75471  0.48284  Biso   1.000  O
  O49      1.0000 0.51716  0.74529  0.72161  Biso   1.000  O
  O50      1.0000 0.48284  0.25471  0.72161  Biso   1.000  O
  O51      1.0000 0.48284  0.74529  0.27839  Biso   1.000  O
  O52      1.0000 0.51716  0.25471  0.27839  Biso   1.000  O
  O53      1.0000 0.72161  0.01716  0.24529  Biso   1.000  O
  O54      1.0000 0.72161  0.98284  0.75471  Biso   1.000  O
  O55      1.0000 0.27839  0.98284  0.24529  Biso   1.000  O
  O56      1.0000 0.27839  0.01716  0.75471  Biso   1.000  O
  O57      1.0000 0.24529  0.22161  0.51716  Biso   1.000  O
  O58      1.0000 0.75471  0.22161  0.48284  Biso   1.000  O
  O59      1.0000 0.24529  0.77839  0.48284  Biso   1.000  O
  O60      1.0000 0.75471  0.77839  0.51716  Biso   1.000  O
  O61      1.0000 0.24529  0.01716  0.27839  Biso   1.000  O
  O62      1.0000 0.75471  0.98284  0.27839  Biso   1.000  O
  O63      1.0000 0.24529  0.98284  0.72161  Biso   1.000  O
  O64      1.0000 0.75471  0.01716  0.72161  Biso   1.000  O
  O65      1.0000 0.51716  0.22161  0.75471  Biso   1.000  O
  O66      1.0000 0.48284  0.22161  0.24529  Biso   1.000  O
  O67      1.0000 0.48284  0.77839  0.75471  Biso   1.000  O
  O68      1.0000 0.51716  0.77839  0.24529  Biso   1.000  O
  O69      1.0000 0.72161  0.74529  0.48284  Biso   1.000  O
  O70      1.0000 0.72161  0.25471  0.51716  Biso   1.000  O
  O71      1.0000 0.27839  0.74529  0.51716  Biso   1.000  O
  O72      1.0000 0.27839  0.25471  0.48284  Biso   1.000  O
  O73      1.0000 0.51716  0.24529  0.22161  Biso   1.000  O
  O74      1.0000 0.48284  0.75471  0.22161  Biso   1.000  O
  O75      1.0000 0.48284  0.24529  0.77839  Biso   1.000  O
  O76      1.0000 0.51716  0.75471  0.77839  Biso   1.000  O
  O77      1.0000 0.72161  0.51716  0.74529  Biso   1.000  O
  O78      1.0000 0.72161  0.48284  0.25471  Biso   1.000  O
  O79      1.0000 0.27839  0.48284  0.74529  Biso   1.000  O
  O80      1.0000 0.27839  0.51716  0.25471  Biso   1.000  O
  O81      1.0000 0.24529  0.72161  0.01716  Biso   1.000  O
  O82      1.0000 0.75471  0.72161  0.98284  Biso   1.000  O
  O83      1.0000 0.24529  0.27839  0.98284  Biso   1.000  O
  O84      1.0000 0.75471  0.27839  0.01716  Biso   1.000  O
  O85      1.0000 0.24529  0.51716  0.77839  Biso   1.000  O
  O86      1.0000 0.75471  0.48284  0.77839  Biso   1.000  O
  O87      1.0000 0.24529  0.48284  0.22161  Biso   1.000  O
  O88      1.0000 0.75471  0.51716  0.22161  Biso   1.000  O
  O89      1.0000 0.51716  0.72161  0.25471  Biso   1.000  O
  O90      1.0000 0.48284  0.72161  0.74529  Biso   1.000  O
  O91      1.0000 0.48284  0.27839  0.25471  Biso   1.000  O
  O92      1.0000 0.51716  0.27839  0.74529  Biso   1.000  O
  O93      1.0000 0.72161  0.24529  0.98284  Biso   1.000  O
  O94      1.0000 0.72161  0.75471  0.01716  Biso   1.000  O
  O95      1.0000 0.27839  0.24529  0.01716  Biso   1.000  O
  O96      1.0000 0.27839  0.75471  0.98284  Biso   1.000  O
  O97      1.0000 0.02485  0.71933  0.25032  Biso   1.000  O
  O98      1.0000 0.97515  0.28067  0.25032  Biso   1.000  O
  O99      1.0000 0.97515  0.71933  0.74968  Biso   1.000  O
  O100     1.0000 0.02485  0.28067  0.74968  Biso   1.000  O
  O101     1.0000 0.25032  0.02485  0.71933  Biso   1.000  O
  O102     1.0000 0.25032  0.97515  0.28067  Biso   1.000  O
  O103     1.0000 0.74968  0.97515  0.71933  Biso   1.000  O
  O104     1.0000 0.74968  0.02485  0.28067  Biso   1.000  O
  O105     1.0000 0.71933  0.25032  0.02485  Biso   1.000  O
  O106     1.0000 0.28067  0.25032  0.97515  Biso   1.000  O
  O107     1.0000 0.71933  0.74968  0.97515  Biso   1.000  O
  O108     1.0000 0.28067  0.74968  0.02485  Biso   1.000  O
  O109     1.0000 0.71933  0.02485  0.74968  Biso   1.000  O
  O110     1.0000 0.28067  0.97515  0.74968  Biso   1.000  O
  O111     1.0000 0.71933  0.97515  0.25032  Biso   1.000  O
  O112     1.0000 0.28067  0.02485  0.25032  Biso   1.000  O
  O113     1.0000 0.02485  0.25032  0.28067  Biso   1.000  O
  O114     1.0000 0.97515  0.25032  0.71933  Biso   1.000  O
  O115     1.0000 0.97515  0.74968  0.28067  Biso   1.000  O
  O116     1.0000 0.02485  0.74968  0.71933  Biso   1.000  O
  O117     1.0000 0.25032  0.71933  0.97515  Biso   1.000  O
  O118     1.0000 0.25032  0.28067  0.02485  Biso   1.000  O
  O119     1.0000 0.74968  0.71933  0.02485  Biso   1.000  O
  O120     1.0000 0.74968  0.28067  0.97515  Biso   1.000  O
  O121     1.0000 0.02485  0.21933  0.75032  Biso   1.000  O
  O122     1.0000 0.97515  0.78067  0.75032  Biso   1.000  O
  O123     1.0000 0.97515  0.21933  0.24968  Biso   1.000  O
  O124     1.0000 0.02485  0.78067  0.24968  Biso   1.000  O
  O125     1.0000 0.25032  0.52485  0.21933  Biso   1.000  O
  O126     1.0000 0.25032  0.47515  0.78067  Biso   1.000  O
  O127     1.0000 0.74968  0.47515  0.21933  Biso   1.000  O
  O128     1.0000 0.74968  0.52485  0.78067  Biso   1.000  O
  O129     1.0000 0.71933  0.75032  0.52485  Biso   1.000  O
  O130     1.0000 0.28067  0.75032  0.47515  Biso   1.000  O
  O131     1.0000 0.71933  0.24968  0.47515  Biso   1.000  O
  O132     1.0000 0.28067  0.24968  0.52485  Biso   1.000  O
  O133     1.0000 0.71933  0.52485  0.24968  Biso   1.000  O
  O134     1.0000 0.28067  0.47515  0.24968  Biso   1.000  O
  O135     1.0000 0.71933  0.47515  0.75032  Biso   1.000  O
  O136     1.0000 0.28067  0.52485  0.75032  Biso   1.000  O
  O137     1.0000 0.02485  0.75032  0.78067  Biso   1.000  O
  O138     1.0000 0.97515  0.75032  0.21933  Biso   1.000  O
  O139     1.0000 0.97515  0.24968  0.78067  Biso   1.000  O
  O140     1.0000 0.02485  0.24968  0.21933  Biso   1.000  O
  O141     1.0000 0.25032  0.21933  0.47515  Biso   1.000  O
  O142     1.0000 0.25032  0.78067  0.52485  Biso   1.000  O
  O143     1.0000 0.74968  0.21933  0.52485  Biso   1.000  O
  O144     1.0000 0.74968  0.78067  0.47515  Biso   1.000  O
  O145     1.0000 0.52485  0.71933  0.75032  Biso   1.000  O
  O146     1.0000 0.47515  0.28067  0.75032  Biso   1.000  O
  O147     1.0000 0.47515  0.71933  0.24968  Biso   1.000  O
  O148     1.0000 0.52485  0.28067  0.24968  Biso   1.000  O
  O149     1.0000 0.75032  0.02485  0.21933  Biso   1.000  O
  O150     1.0000 0.75032  0.97515  0.78067  Biso   1.000  O
  O151     1.0000 0.24968  0.97515  0.21933  Biso   1.000  O
  O152     1.0000 0.24968  0.02485  0.78067  Biso   1.000  O
  O153     1.0000 0.21933  0.25032  0.52485  Biso   1.000  O
  O154     1.0000 0.78067  0.25032  0.47515  Biso   1.000  O
  O155     1.0000 0.21933  0.74968  0.47515  Biso   1.000  O
  O156     1.0000 0.78067  0.74968  0.52485  Biso   1.000  O
  O157     1.0000 0.21933  0.02485  0.24968  Biso   1.000  O
  O158     1.0000 0.78067  0.97515  0.24968  Biso   1.000  O
  O159     1.0000 0.21933  0.97515  0.75032  Biso   1.000  O
  O160     1.0000 0.78067  0.02485  0.75032  Biso   1.000  O
  O161     1.0000 0.52485  0.25032  0.78067  Biso   1.000  O
  O162     1.0000 0.47515  0.25032  0.21933  Biso   1.000  O
  O163     1.0000 0.47515  0.74968  0.78067  Biso   1.000  O
  O164     1.0000 0.52485  0.74968  0.21933  Biso   1.000  O
  O165     1.0000 0.75032  0.71933  0.47515  Biso   1.000  O
  O166     1.0000 0.75032  0.28067  0.52485  Biso   1.000  O
  O167     1.0000 0.24968  0.71933  0.52485  Biso   1.000  O
  O168     1.0000 0.24968  0.28067  0.47515  Biso   1.000  O
  O169     1.0000 0.52485  0.21933  0.25032  Biso   1.000  O
  O170     1.0000 0.47515  0.78067  0.25032  Biso   1.000  O
  O171     1.0000 0.47515  0.21933  0.74968  Biso   1.000  O
  O172     1.0000 0.52485  0.78067  0.74968  Biso   1.000  O
  O173     1.0000 0.75032  0.52485  0.71933  Biso   1.000  O
  O174     1.0000 0.75032  0.47515  0.28067  Biso   1.000  O
  O175     1.0000 0.24968  0.47515  0.71933  Biso   1.000  O
  O176     1.0000 0.24968  0.52485  0.28067  Biso   1.000  O
  O177     1.0000 0.21933  0.75032  0.02485  Biso   1.000  O
  O178     1.0000 0.78067  0.75032  0.97515  Biso   1.000  O
  O179     1.0000 0.21933  0.24968  0.97515  Biso   1.000  O
  O180     1.0000 0.78067  0.24968  0.02485  Biso   1.000  O
  O181     1.0000 0.21933  0.52485  0.74968  Biso   1.000  O
  O182     1.0000 0.78067  0.47515  0.74968  Biso   1.000  O
  O183     1.0000 0.21933  0.47515  0.25032  Biso   1.000  O
  O184     1.0000 0.78067  0.52485  0.25032  Biso   1.000  O
  O185     1.0000 0.52485  0.75032  0.28067  Biso   1.000  O
  O186     1.0000 0.47515  0.75032  0.71933  Biso   1.000  O
  O187     1.0000 0.47515  0.24968  0.28067  Biso   1.000  O
  O188     1.0000 0.52485  0.24968  0.71933  Biso   1.000  O
  O189     1.0000 0.75032  0.21933  0.97515  Biso   1.000  O
  O190     1.0000 0.75032  0.78067  0.02485  Biso   1.000  O
  O191     1.0000 0.24968  0.21933  0.02485  Biso   1.000  O
  O192     1.0000 0.24968  0.78067  0.97515  Biso   1.000  O
  O193     1.0000 0.00000  0.79241  0.20759  Biso   1.000  O
  O194     1.0000 0.00000  0.20759  0.20759  Biso   1.000  O
  O195     1.0000 0.00000  0.79241  0.79241  Biso   1.000  O
  O196     1.0000 0.00000  0.20759  0.79241  Biso   1.000  O
  O197     1.0000 0.20759  0.00000  0.79241  Biso   1.000  O
  O198     1.0000 0.20759  0.00000  0.20759  Biso   1.000  O
  O199     1.0000 0.79241  0.00000  0.79241  Biso   1.000  O
  O200     1.0000 0.79241  0.00000  0.20759  Biso   1.000  O
  O201     1.0000 0.79241  0.20759  0.00000  Biso   1.000  O
  O202     1.0000 0.20759  0.20759  0.00000  Biso   1.000  O
  O203     1.0000 0.79241  0.79241  0.00000  Biso   1.000  O
  O204     1.0000 0.20759  0.79241  0.00000  Biso   1.000  O
  O205     1.0000 0.00000  0.29241  0.70759  Biso   1.000  O
  O206     1.0000 0.00000  0.70759  0.70759  Biso   1.000  O
  O207     1.0000 0.00000  0.29241  0.29241  Biso   1.000  O
  O208     1.0000 0.00000  0.70759  0.29241  Biso   1.000  O
  O209     1.0000 0.20759  0.50000  0.29241  Biso   1.000  O
  O210     1.0000 0.20759  0.50000  0.70759  Biso   1.000  O
  O211     1.0000 0.79241  0.50000  0.29241  Biso   1.000  O
  O212     1.0000 0.79241  0.50000  0.70759  Biso   1.000  O
  O213     1.0000 0.79241  0.70759  0.50000  Biso   1.000  O
  O214     1.0000 0.20759  0.70759  0.50000  Biso   1.000  O
  O215     1.0000 0.79241  0.29241  0.50000  Biso   1.000  O
  O216     1.0000 0.20759  0.29241  0.50000  Biso   1.000  O
  O217     1.0000 0.50000  0.79241  0.70759  Biso   1.000  O
  O218     1.0000 0.50000  0.20759  0.70759  Biso   1.000  O
  O219     1.0000 0.50000  0.79241  0.29241  Biso   1.000  O
  O220     1.0000 0.50000  0.20759  0.29241  Biso   1.000  O
  O221     1.0000 0.70759  0.00000  0.29241  Biso   1.000  O
  O222     1.0000 0.70759  0.00000  0.70759  Biso   1.000  O
  O223     1.0000 0.29241  0.00000  0.29241  Biso   1.000  O
  O224     1.0000 0.29241  0.00000  0.70759  Biso   1.000  O
  O225     1.0000 0.29241  0.20759  0.50000  Biso   1.000  O
  O226     1.0000 0.70759  0.20759  0.50000  Biso   1.000  O
  O227     1.0000 0.29241  0.79241  0.50000  Biso   1.000  O
  O228     1.0000 0.70759  0.79241  0.50000  Biso   1.000  O
  O229     1.0000 0.50000  0.29241  0.20759  Biso   1.000  O
  O230     1.0000 0.50000  0.70759  0.20759  Biso   1.000  O
  O231     1.0000 0.50000  0.29241  0.79241  Biso   1.000  O
  O232     1.0000 0.50000  0.70759  0.79241  Biso   1.000  O
  O233     1.0000 0.70759  0.50000  0.79241  Biso   1.000  O
  O234     1.0000 0.70759  0.50000  0.20759  Biso   1.000  O
  O235     1.0000 0.29241  0.50000  0.79241  Biso   1.000  O
  O236     1.0000 0.29241  0.50000  0.20759  Biso   1.000  O
  O237     1.0000 0.29241  0.70759  0.00000  Biso   1.000  O
  O238     1.0000 0.70759  0.70759  0.00000  Biso   1.000  O
  O239     1.0000 0.29241  0.29241  0.00000  Biso   1.000  O
  O240     1.0000 0.70759  0.29241  0.00000  Biso   1.000  O
  N1       1.0000 0.15502  0.65502  0.15502  Biso   1.000  N
  N2       1.0000 0.84498  0.34498  0.15502  Biso   1.000  N
  N3       1.0000 0.84498  0.65502  0.84498  Biso   1.000  N
  N4       1.0000 0.15502  0.34498  0.84498  Biso   1.000  N
  N5       1.0000 0.15502  0.15502  0.65502  Biso   1.000  N
  N6       1.0000 0.15502  0.84498  0.34498  Biso   1.000  N
  N7       1.0000 0.84498  0.84498  0.65502  Biso   1.000  N
  N8       1.0000 0.84498  0.15502  0.34498  Biso   1.000  N
  N9       1.0000 0.65502  0.15502  0.15502  Biso   1.000  N
  N10      1.0000 0.34498  0.15502  0.84498  Biso   1.000  N
  N11      1.0000 0.65502  0.84498  0.84498  Biso   1.000  N
  N12      1.0000 0.34498  0.84498  0.15502  Biso   1.000  N
  N13      1.0000 0.65502  0.15502  0.84498  Biso   1.000  N
  N14      1.0000 0.34498  0.84498  0.84498  Biso   1.000  N
  N15      1.0000 0.65502  0.84498  0.15502  Biso   1.000  N
  N16      1.0000 0.34498  0.15502  0.15502  Biso   1.000  N
  N17      1.0000 0.15502  0.15502  0.34498  Biso   1.000  N
  N18      1.0000 0.84498  0.15502  0.65502  Biso   1.000  N
  N19      1.0000 0.84498  0.84498  0.34498  Biso   1.000  N
  N20      1.0000 0.15502  0.84498  0.65502  Biso   1.000  N
  N21      1.0000 0.15502  0.65502  0.84498  Biso   1.000  N
  N22      1.0000 0.15502  0.34498  0.15502  Biso   1.000  N
  N23      1.0000 0.84498  0.65502  0.15502  Biso   1.000  N
  N24      1.0000 0.84498  0.34498  0.84498  Biso   1.000  N
  N25      1.0000 0.65502  0.65502  0.65502  Biso   1.000  N
  N26      1.0000 0.34498  0.65502  0.34498  Biso   1.000  N
  N27      1.0000 0.65502  0.34498  0.34498  Biso   1.000  N
  N28      1.0000 0.34498  0.34498  0.65502  Biso   1.000  N
  N29      1.0000 0.65502  0.65502  0.34498  Biso   1.000  N
  N30      1.0000 0.34498  0.34498  0.34498  Biso   1.000  N
  N31      1.0000 0.65502  0.34498  0.65502  Biso   1.000  N
  N32      1.0000 0.34498  0.65502  0.65502  Biso   1.000  N
  C1       1.0000 0.02813  0.73010  0.23223  Biso   1.000  C
  C2       1.0000 0.97187  0.26990  0.23223  Biso   1.000  C
  C3       1.0000 0.97187  0.73010  0.76777  Biso   1.000  C
  C4       1.0000 0.02813  0.26990  0.76777  Biso   1.000  C
  C5       1.0000 0.23223  0.02813  0.73010  Biso   1.000  C
  C6       1.0000 0.23223  0.97187  0.26990  Biso   1.000  C
  C7       1.0000 0.76777  0.97187  0.73010  Biso   1.000  C
  C8       1.0000 0.76777  0.02813  0.26990  Biso   1.000  C
  C9       1.0000 0.73010  0.23223  0.02813  Biso   1.000  C
  C10      1.0000 0.26990  0.23223  0.97187  Biso   1.000  C
  C11      1.0000 0.73010  0.76777  0.97187  Biso   1.000  C
  C12      1.0000 0.26990  0.76777  0.02813  Biso   1.000  C
  C13      1.0000 0.73010  0.02813  0.76777  Biso   1.000  C
  C14      1.0000 0.26990  0.97187  0.76777  Biso   1.000  C
  C15      1.0000 0.73010  0.97187  0.23223  Biso   1.000  C
  C16      1.0000 0.26990  0.02813  0.23223  Biso   1.000  C
  C17      1.0000 0.02813  0.23223  0.26990  Biso   1.000  C
  C18      1.0000 0.97187  0.23223  0.73010  Biso   1.000  C
  C19      1.0000 0.97187  0.76777  0.26990  Biso   1.000  C
  C20      1.0000 0.02813  0.76777  0.73010  Biso   1.000  C
  C21      1.0000 0.23223  0.73010  0.97187  Biso   1.000  C
  C22      1.0000 0.23223  0.26990  0.02813  Biso   1.000  C
  C23      1.0000 0.76777  0.73010  0.02813  Biso   1.000  C
  C24      1.0000 0.76777  0.26990  0.97187  Biso   1.000  C
  C25      1.0000 0.02813  0.23010  0.73223  Biso   1.000  C
  C26      1.0000 0.97187  0.76990  0.73223  Biso   1.000  C
  C27      1.0000 0.97187  0.23010  0.26777  Biso   1.000  C
  C28      1.0000 0.02813  0.76990  0.26777  Biso   1.000  C
  C29      1.0000 0.23223  0.52813  0.23010  Biso   1.000  C
  C30      1.0000 0.23223  0.47187  0.76990  Biso   1.000  C
  C31      1.0000 0.76777  0.47187  0.23010  Biso   1.000  C
  C32      1.0000 0.76777  0.52813  0.76990  Biso   1.000  C
  C33      1.0000 0.73010  0.73223  0.52813  Biso   1.000  C
  C34      1.0000 0.26990  0.73223  0.47187  Biso   1.000  C
  C35      1.0000 0.73010  0.26777  0.47187  Biso   1.000  C
  C36      1.0000 0.26990  0.26777  0.52813  Biso   1.000  C
  C37      1.0000 0.73010  0.52813  0.26777  Biso   1.000  C
  C38      1.0000 0.26990  0.47187  0.26777  Biso   1.000  C
  C39      1.0000 0.73010  0.47187  0.73223  Biso   1.000  C
  C40      1.0000 0.26990  0.52813  0.73223  Biso   1.000  C
  C41      1.0000 0.02813  0.73223  0.76990  Biso   1.000  C
  C42      1.0000 0.97187  0.73223  0.23010  Biso   1.000  C
  C43      1.0000 0.97187  0.26777  0.76990  Biso   1.000  C
  C44      1.0000 0.02813  0.26777  0.23010  Biso   1.000  C
  C45      1.0000 0.23223  0.23010  0.47187  Biso   1.000  C
  C46      1.0000 0.23223  0.76990  0.52813  Biso   1.000  C
  C47      1.0000 0.76777  0.23010  0.52813  Biso   1.000  C
  C48      1.0000 0.76777  0.76990  0.47187  Biso   1.000  C
  C49      1.0000 0.52813  0.73010  0.73223  Biso   1.000  C
  C50      1.0000 0.47187  0.26990  0.73223  Biso   1.000  C
  C51      1.0000 0.47187  0.73010  0.26777  Biso   1.000  C
  C52      1.0000 0.52813  0.26990  0.26777  Biso   1.000  C
  C53      1.0000 0.73223  0.02813  0.23010  Biso   1.000  C
  C54      1.0000 0.73223  0.97187  0.76990  Biso   1.000  C
  C55      1.0000 0.26777  0.97187  0.23010  Biso   1.000  C
  C56      1.0000 0.26777  0.02813  0.76990  Biso   1.000  C
  C57      1.0000 0.23010  0.23223  0.52813  Biso   1.000  C
  C58      1.0000 0.76990  0.23223  0.47187  Biso   1.000  C
  C59      1.0000 0.23010  0.76777  0.47187  Biso   1.000  C
  C60      1.0000 0.76990  0.76777  0.52813  Biso   1.000  C
  C61      1.0000 0.23010  0.02813  0.26777  Biso   1.000  C
  C62      1.0000 0.76990  0.97187  0.26777  Biso   1.000  C
  C63      1.0000 0.23010  0.97187  0.73223  Biso   1.000  C
  C64      1.0000 0.76990  0.02813  0.73223  Biso   1.000  C
  C65      1.0000 0.52813  0.23223  0.76990  Biso   1.000  C
  C66      1.0000 0.47187  0.23223  0.23010  Biso   1.000  C
  C67      1.0000 0.47187  0.76777  0.76990  Biso   1.000  C
  C68      1.0000 0.52813  0.76777  0.23010  Biso   1.000  C
  C69      1.0000 0.73223  0.73010  0.47187  Biso   1.000  C
  C70      1.0000 0.73223  0.26990  0.52813  Biso   1.000  C
  C71      1.0000 0.26777  0.73010  0.52813  Biso   1.000  C
  C72      1.0000 0.26777  0.26990  0.47187  Biso   1.000  C
  C73      1.0000 0.52813  0.23010  0.23223  Biso   1.000  C
  C74      1.0000 0.47187  0.76990  0.23223  Biso   1.000  C
  C75      1.0000 0.47187  0.23010  0.76777  Biso   1.000  C
  C76      1.0000 0.52813  0.76990  0.76777  Biso   1.000  C
  C77      1.0000 0.73223  0.52813  0.73010  Biso   1.000  C
  C78      1.0000 0.73223  0.47187  0.26990  Biso   1.000  C
  C79      1.0000 0.26777  0.47187  0.73010  Biso   1.000  C
  C80      1.0000 0.26777  0.52813  0.26990  Biso   1.000  C
  C81      1.0000 0.23010  0.73223  0.02813  Biso   1.000  C
  C82      1.0000 0.76990  0.73223  0.97187  Biso   1.000  C
  C83      1.0000 0.23010  0.26777  0.97187  Biso   1.000  C
  C84      1.0000 0.76990  0.26777  0.02813  Biso   1.000  C
  C85      1.0000 0.23010  0.52813  0.76777  Biso   1.000  C
  C86      1.0000 0.76990  0.47187  0.76777  Biso   1.000  C
  C87      1.0000 0.23010  0.47187  0.23223  Biso   1.000  C
  C88      1.0000 0.76990  0.52813  0.23223  Biso   1.000  C
  C89      1.0000 0.52813  0.73223  0.26990  Biso   1.000  C
  C90      1.0000 0.47187  0.73223  0.73010  Biso   1.000  C
  C91      1.0000 0.47187  0.26777  0.26990  Biso   1.000  C
  C92      1.0000 0.52813  0.26777  0.73010  Biso   1.000  C
  C93      1.0000 0.73223  0.23010  0.97187  Biso   1.000  C
  C94      1.0000 0.73223  0.76990  0.02813  Biso   1.000  C
  C95      1.0000 0.26777  0.23010  0.02813  Biso   1.000  C
  C96      1.0000 0.26777  0.76990  0.97187  Biso   1.000  C
  C97      1.0000 0.04703  0.71661  0.21935  Biso   1.000  C
  C98      1.0000 0.95297  0.28339  0.21935  Biso   1.000  C
  C99      1.0000 0.95297  0.71661  0.78065  Biso   1.000  C
  C100     1.0000 0.04703  0.28339  0.78065  Biso   1.000  C
  C101     1.0000 0.21935  0.04703  0.71661  Biso   1.000  C
  C102     1.0000 0.21935  0.95297  0.28339  Biso   1.000  C
  C103     1.0000 0.78065  0.95297  0.71661  Biso   1.000  C
  C104     1.0000 0.78065  0.04703  0.28339  Biso   1.000  C
  C105     1.0000 0.71661  0.21935  0.04703  Biso   1.000  C
  C106     1.0000 0.28339  0.21935  0.95297  Biso   1.000  C
  C107     1.0000 0.71661  0.78065  0.95297  Biso   1.000  C
  C108     1.0000 0.28339  0.78065  0.04703  Biso   1.000  C
  C109     1.0000 0.71661  0.04703  0.78065  Biso   1.000  C
  C110     1.0000 0.28339  0.95297  0.78065  Biso   1.000  C
  C111     1.0000 0.71661  0.95297  0.21935  Biso   1.000  C
  C112     1.0000 0.28339  0.04703  0.21935  Biso   1.000  C
  C113     1.0000 0.04703  0.21935  0.28339  Biso   1.000  C
  C114     1.0000 0.95297  0.21935  0.71661  Biso   1.000  C
  C115     1.0000 0.95297  0.78065  0.28339  Biso   1.000  C
  C116     1.0000 0.04703  0.78065  0.71661  Biso   1.000  C
  C117     1.0000 0.21935  0.71661  0.95297  Biso   1.000  C
  C118     1.0000 0.21935  0.28339  0.04703  Biso   1.000  C
  C119     1.0000 0.78065  0.71661  0.04703  Biso   1.000  C
  C120     1.0000 0.78065  0.28339  0.95297  Biso   1.000  C
  C121     1.0000 0.04703  0.21661  0.71935  Biso   1.000  C
  C122     1.0000 0.95297  0.78339  0.71935  Biso   1.000  C
  C123     1.0000 0.95297  0.21661  0.28065  Biso   1.000  C
  C124     1.0000 0.04703  0.78339  0.28065  Biso   1.000  C
  C125     1.0000 0.21935  0.54703  0.21661  Biso   1.000  C
  C126     1.0000 0.21935  0.45297  0.78339  Biso   1.000  C
  C127     1.0000 0.78065  0.45297  0.21661  Biso   1.000  C
  C128     1.0000 0.78065  0.54703  0.78339  Biso   1.000  C
  C129     1.0000 0.71661  0.71935  0.54703  Biso   1.000  C
  C130     1.0000 0.28339  0.71935  0.45297  Biso   1.000  C
  C131     1.0000 0.71661  0.28065  0.45297  Biso   1.000  C
  C132     1.0000 0.28339  0.28065  0.54703  Biso   1.000  C
  C133     1.0000 0.71661  0.54703  0.28065  Biso   1.000  C
  C134     1.0000 0.28339  0.45297  0.28065  Biso   1.000  C
  C135     1.0000 0.71661  0.45297  0.71935  Biso   1.000  C
  C136     1.0000 0.28339  0.54703  0.71935  Biso   1.000  C
  C137     1.0000 0.04703  0.71935  0.78339  Biso   1.000  C
  C138     1.0000 0.95297  0.71935  0.21661  Biso   1.000  C
  C139     1.0000 0.95297  0.28065  0.78339  Biso   1.000  C
  C140     1.0000 0.04703  0.28065  0.21661  Biso   1.000  C
  C141     1.0000 0.21935  0.21661  0.45297  Biso   1.000  C
  C142     1.0000 0.21935  0.78339  0.54703  Biso   1.000  C
  C143     1.0000 0.78065  0.21661  0.54703  Biso   1.000  C
  C144     1.0000 0.78065  0.78339  0.45297  Biso   1.000  C
  C145     1.0000 0.54703  0.71661  0.71935  Biso   1.000  C
  C146     1.0000 0.45297  0.28339  0.71935  Biso   1.000  C
  C147     1.0000 0.45297  0.71661  0.28065  Biso   1.000  C
  C148     1.0000 0.54703  0.28339  0.28065  Biso   1.000  C
  C149     1.0000 0.71935  0.04703  0.21661  Biso   1.000  C
  C150     1.0000 0.71935  0.95297  0.78339  Biso   1.000  C
  C151     1.0000 0.28065  0.95297  0.21661  Biso   1.000  C
  C152     1.0000 0.28065  0.04703  0.78339  Biso   1.000  C
  C153     1.0000 0.21661  0.21935  0.54703  Biso   1.000  C
  C154     1.0000 0.78339  0.21935  0.45297  Biso   1.000  C
  C155     1.0000 0.21661  0.78065  0.45297  Biso   1.000  C
  C156     1.0000 0.78339  0.78065  0.54703  Biso   1.000  C
  C157     1.0000 0.21661  0.04703  0.28065  Biso   1.000  C
  C158     1.0000 0.78339  0.95297  0.28065  Biso   1.000  C
  C159     1.0000 0.21661  0.95297  0.71935  Biso   1.000  C
  C160     1.0000 0.78339  0.04703  0.71935  Biso   1.000  C
  C161     1.0000 0.54703  0.21935  0.78339  Biso   1.000  C
  C162     1.0000 0.45297  0.21935  0.21661  Biso   1.000  C
  C163     1.0000 0.45297  0.78065  0.78339  Biso   1.000  C
  C164     1.0000 0.54703  0.78065  0.21661  Biso   1.000  C
  C165     1.0000 0.71935  0.71661  0.45297  Biso   1.000  C
  C166     1.0000 0.71935  0.28339  0.54703  Biso   1.000  C
  C167     1.0000 0.28065  0.71661  0.54703  Biso   1.000  C
  C168     1.0000 0.28065  0.28339  0.45297  Biso   1.000  C
  C169     1.0000 0.54703  0.21661  0.21935  Biso   1.000  C
  C170     1.0000 0.45297  0.78339  0.21935  Biso   1.000  C
  C171     1.0000 0.45297  0.21661  0.78065  Biso   1.000  C
  C172     1.0000 0.54703  0.78339  0.78065  Biso   1.000  C
  C173     1.0000 0.71935  0.54703  0.71661  Biso   1.000  C
  C174     1.0000 0.71935  0.45297  0.28339  Biso   1.000  C
  C175     1.0000 0.28065  0.45297  0.71661  Biso   1.000  C
  C176     1.0000 0.28065  0.54703  0.28339  Biso   1.000  C
  C177     1.0000 0.21661  0.71935  0.04703  Biso   1.000  C
  C178     1.0000 0.78339  0.71935  0.95297  Biso   1.000  C
  C179     1.0000 0.21661  0.28065  0.95297  Biso   1.000  C
  C180     1.0000 0.78339  0.28065  0.04703  Biso   1.000  C
  C181     1.0000 0.21661  0.54703  0.78065  Biso   1.000  C
  C182     1.0000 0.78339  0.45297  0.78065  Biso   1.000  C
  C183     1.0000 0.21661  0.45297  0.21935  Biso   1.000  C
  C184     1.0000 0.78339  0.54703  0.21935  Biso   1.000  C
  C185     1.0000 0.54703  0.71935  0.28339  Biso   1.000  C
  C186     1.0000 0.45297  0.71935  0.71661  Biso   1.000  C
  C187     1.0000 0.45297  0.28065  0.28339  Biso   1.000  C
  C188     1.0000 0.54703  0.28065  0.71661  Biso   1.000  C
  C189     1.0000 0.71935  0.21661  0.95297  Biso   1.000  C
  C190     1.0000 0.71935  0.78339  0.04703  Biso   1.000  C
  C191     1.0000 0.28065  0.21661  0.04703  Biso   1.000  C
  C192     1.0000 0.28065  0.78339  0.95297  Biso   1.000  C
  C193     1.0000 0.05543  0.72485  0.19980  Biso   1.000  C
  C194     1.0000 0.94457  0.27515  0.19980  Biso   1.000  C
  C195     1.0000 0.94457  0.72485  0.80020  Biso   1.000  C
  C196     1.0000 0.05543  0.27515  0.80020  Biso   1.000  C
  C197     1.0000 0.19980  0.05543  0.72485  Biso   1.000  C
  C198     1.0000 0.19980  0.94457  0.27515  Biso   1.000  C
  C199     1.0000 0.80020  0.94457  0.72485  Biso   1.000  C
  C200     1.0000 0.80020  0.05543  0.27515  Biso   1.000  C
  C201     1.0000 0.72485  0.19980  0.05543  Biso   1.000  C
  C202     1.0000 0.27515  0.19980  0.94457  Biso   1.000  C
  C203     1.0000 0.72485  0.80020  0.94457  Biso   1.000  C
  C204     1.0000 0.27515  0.80020  0.05543  Biso   1.000  C
  C205     1.0000 0.72485  0.05543  0.80020  Biso   1.000  C
  C206     1.0000 0.27515  0.94457  0.80020  Biso   1.000  C
  C207     1.0000 0.72485  0.94457  0.19980  Biso   1.000  C
  C208     1.0000 0.27515  0.05543  0.19980  Biso   1.000  C
  C209     1.0000 0.05543  0.19980  0.27515  Biso   1.000  C
  C210     1.0000 0.94457  0.19980  0.72485  Biso   1.000  C
  C211     1.0000 0.94457  0.80020  0.27515  Biso   1.000  C
  C212     1.0000 0.05543  0.80020  0.72485  Biso   1.000  C
  C213     1.0000 0.19980  0.72485  0.94457  Biso   1.000  C
  C214     1.0000 0.19980  0.27515  0.05543  Biso   1.000  C
  C215     1.0000 0.80020  0.72485  0.05543  Biso   1.000  C
  C216     1.0000 0.80020  0.27515  0.94457  Biso   1.000  C
  C217     1.0000 0.05543  0.22485  0.69980  Biso   1.000  C
  C218     1.0000 0.94457  0.77515  0.69980  Biso   1.000  C
  C219     1.0000 0.94457  0.22485  0.30020  Biso   1.000  C
  C220     1.0000 0.05543  0.77515  0.30020  Biso   1.000  C
  C221     1.0000 0.19980  0.55543  0.22485  Biso   1.000  C
  C222     1.0000 0.19980  0.44457  0.77515  Biso   1.000  C
  C223     1.0000 0.80020  0.44457  0.22485  Biso   1.000  C
  C224     1.0000 0.80020  0.55543  0.77515  Biso   1.000  C
  C225     1.0000 0.72485  0.69980  0.55543  Biso   1.000  C
  C226     1.0000 0.27515  0.69980  0.44457  Biso   1.000  C
  C227     1.0000 0.72485  0.30020  0.44457  Biso   1.000  C
  C228     1.0000 0.27515  0.30020  0.55543  Biso   1.000  C
  C229     1.0000 0.72485  0.55543  0.30020  Biso   1.000  C
  C230     1.0000 0.27515  0.44457  0.30020  Biso   1.000  C
  C231     1.0000 0.72485  0.44457  0.69980  Biso   1.000  C
  C232     1.0000 0.27515  0.55543  0.69980  Biso   1.000  C
  C233     1.0000 0.05543  0.69980  0.77515  Biso   1.000  C
  C234     1.0000 0.94457  0.69980  0.22485  Biso   1.000  C
  C235     1.0000 0.94457  0.30020  0.77515  Biso   1.000  C
  C236     1.0000 0.05543  0.30020  0.22485  Biso   1.000  C
  C237     1.0000 0.19980  0.22485  0.44457  Biso   1.000  C
  C238     1.0000 0.19980  0.77515  0.55543  Biso   1.000  C
  C239     1.0000 0.80020  0.22485  0.55543  Biso   1.000  C
  C240     1.0000 0.80020  0.77515  0.44457  Biso   1.000  C
  C241     1.0000 0.55543  0.72485  0.69980  Biso   1.000  C
  C242     1.0000 0.44457  0.27515  0.69980  Biso   1.000  C
  C243     1.0000 0.44457  0.72485  0.30020  Biso   1.000  C
  C244     1.0000 0.55543  0.27515  0.30020  Biso   1.000  C
  C245     1.0000 0.69980  0.05543  0.22485  Biso   1.000  C
  C246     1.0000 0.69980  0.94457  0.77515  Biso   1.000  C
  C247     1.0000 0.30020  0.94457  0.22485  Biso   1.000  C
  C248     1.0000 0.30020  0.05543  0.77515  Biso   1.000  C
  C249     1.0000 0.22485  0.19980  0.55543  Biso   1.000  C
  C250     1.0000 0.77515  0.19980  0.44457  Biso   1.000  C
  C251     1.0000 0.22485  0.80020  0.44457  Biso   1.000  C
  C252     1.0000 0.77515  0.80020  0.55543  Biso   1.000  C
  C253     1.0000 0.22485  0.05543  0.30020  Biso   1.000  C
  C254     1.0000 0.77515  0.94457  0.30020  Biso   1.000  C
  C255     1.0000 0.22485  0.94457  0.69980  Biso   1.000  C
  C256     1.0000 0.77515  0.05543  0.69980  Biso   1.000  C
  C257     1.0000 0.55543  0.19980  0.77515  Biso   1.000  C
  C258     1.0000 0.44457  0.19980  0.22485  Biso   1.000  C
  C259     1.0000 0.44457  0.80020  0.77515  Biso   1.000  C
  C260     1.0000 0.55543  0.80020  0.22485  Biso   1.000  C
  C261     1.0000 0.69980  0.72485  0.44457  Biso   1.000  C
  C262     1.0000 0.69980  0.27515  0.55543  Biso   1.000  C
  C263     1.0000 0.30020  0.72485  0.55543  Biso   1.000  C
  C264     1.0000 0.30020  0.27515  0.44457  Biso   1.000  C
  C265     1.0000 0.55543  0.22485  0.19980  Biso   1.000  C
  C266     1.0000 0.44457  0.77515  0.19980  Biso   1.000  C
  C267     1.0000 0.44457  0.22485  0.80020  Biso   1.000  C
  C268     1.0000 0.55543  0.77515  0.80020  Biso   1.000  C
  C269     1.0000 0.69980  0.55543  0.72485  Biso   1.000  C
  C270     1.0000 0.69980  0.44457  0.27515  Biso   1.000  C
  C271     1.0000 0.30020  0.44457  0.72485  Biso   1.000  C
  C272     1.0000 0.30020  0.55543  0.27515  Biso   1.000  C
  C273     1.0000 0.22485  0.69980  0.05543  Biso   1.000  C
  C274     1.0000 0.77515  0.69980  0.94457  Biso   1.000  C
  C275     1.0000 0.22485  0.30020  0.94457  Biso   1.000  C
  C276     1.0000 0.77515  0.30020  0.05543  Biso   1.000  C
  C277     1.0000 0.22485  0.55543  0.80020  Biso   1.000  C
  C278     1.0000 0.77515  0.44457  0.80020  Biso   1.000  C
  C279     1.0000 0.22485  0.44457  0.19980  Biso   1.000  C
  C280     1.0000 0.77515  0.55543  0.19980  Biso   1.000  C
  C281     1.0000 0.55543  0.69980  0.27515  Biso   1.000  C
  C282     1.0000 0.44457  0.69980  0.72485  Biso   1.000  C
  C283     1.0000 0.44457  0.30020  0.27515  Biso   1.000  C
  C284     1.0000 0.55543  0.30020  0.72485  Biso   1.000  C
  C285     1.0000 0.69980  0.22485  0.94457  Biso   1.000  C
  C286     1.0000 0.69980  0.77515  0.05543  Biso   1.000  C
  C287     1.0000 0.30020  0.22485  0.05543  Biso   1.000  C
  C288     1.0000 0.30020  0.77515  0.94457  Biso   1.000  C
  H1       1.0000 0.04930  0.73740  0.19350  Biso   1.000  H
  H2       1.0000 0.95070  0.26260  0.19350  Biso   1.000  H
  H3       1.0000 0.95070  0.73740  0.80650  Biso   1.000  H
  H4       1.0000 0.04930  0.26260  0.80650  Biso   1.000  H
  H5       1.0000 0.19350  0.04930  0.73740  Biso   1.000  H
  H6       1.0000 0.19350  0.95070  0.26260  Biso   1.000  H
  H7       1.0000 0.80650  0.95070  0.73740  Biso   1.000  H
  H8       1.0000 0.80650  0.04930  0.26260  Biso   1.000  H
  H9       1.0000 0.73740  0.19350  0.04930  Biso   1.000  H
  H10      1.0000 0.26260  0.19350  0.95070  Biso   1.000  H
  H11      1.0000 0.73740  0.80650  0.95070  Biso   1.000  H
  H12      1.0000 0.26260  0.80650  0.04930  Biso   1.000  H
  H13      1.0000 0.73740  0.04930  0.80650  Biso   1.000  H
  H14      1.0000 0.26260  0.95070  0.80650  Biso   1.000  H
  H15      1.0000 0.73740  0.95070  0.19350  Biso   1.000  H
  H16      1.0000 0.26260  0.04930  0.19350  Biso   1.000  H
  H17      1.0000 0.04930  0.19350  0.26260  Biso   1.000  H
  H18      1.0000 0.95070  0.19350  0.73740  Biso   1.000  H
  H19      1.0000 0.95070  0.80650  0.26260  Biso   1.000  H
  H20      1.0000 0.04930  0.80650  0.73740  Biso   1.000  H
  H21      1.0000 0.19350  0.73740  0.95070  Biso   1.000  H
  H22      1.0000 0.19350  0.26260  0.04930  Biso   1.000  H
  H23      1.0000 0.80650  0.73740  0.04930  Biso   1.000  H
  H24      1.0000 0.80650  0.26260  0.95070  Biso   1.000  H
  H25      1.0000 0.04930  0.23740  0.69350  Biso   1.000  H
  H26      1.0000 0.95070  0.76260  0.69350  Biso   1.000  H
  H27      1.0000 0.95070  0.23740  0.30650  Biso   1.000  H
  H28      1.0000 0.04930  0.76260  0.30650  Biso   1.000  H
  H29      1.0000 0.19350  0.54930  0.23740  Biso   1.000  H
  H30      1.0000 0.19350  0.45070  0.76260  Biso   1.000  H
  H31      1.0000 0.80650  0.45070  0.23740  Biso   1.000  H
  H32      1.0000 0.80650  0.54930  0.76260  Biso   1.000  H
  H33      1.0000 0.73740  0.69350  0.54930  Biso   1.000  H
  H34      1.0000 0.26260  0.69350  0.45070  Biso   1.000  H
  H35      1.0000 0.73740  0.30650  0.45070  Biso   1.000  H
  H36      1.0000 0.26260  0.30650  0.54930  Biso   1.000  H
  H37      1.0000 0.73740  0.54930  0.30650  Biso   1.000  H
  H38      1.0000 0.26260  0.45070  0.30650  Biso   1.000  H
  H39      1.0000 0.73740  0.45070  0.69350  Biso   1.000  H
  H40      1.0000 0.26260  0.54930  0.69350  Biso   1.000  H
  H41      1.0000 0.04930  0.69350  0.76260  Biso   1.000  H
  H42      1.0000 0.95070  0.69350  0.23740  Biso   1.000  H
  H43      1.0000 0.95070  0.30650  0.76260  Biso   1.000  H
  H44      1.0000 0.04930  0.30650  0.23740  Biso   1.000  H
  H45      1.0000 0.19350  0.23740  0.45070  Biso   1.000  H
  H46      1.0000 0.19350  0.76260  0.54930  Biso   1.000  H
  H47      1.0000 0.80650  0.23740  0.54930  Biso   1.000  H
  H48      1.0000 0.80650  0.76260  0.45070  Biso   1.000  H
  H49      1.0000 0.54930  0.73740  0.69350  Biso   1.000  H
  H50      1.0000 0.45070  0.26260  0.69350  Biso   1.000  H
  H51      1.0000 0.45070  0.73740  0.30650  Biso   1.000  H
  H52      1.0000 0.54930  0.26260  0.30650  Biso   1.000  H
  H53      1.0000 0.69350  0.04930  0.23740  Biso   1.000  H
  H54      1.0000 0.69350  0.95070  0.76260  Biso   1.000  H
  H55      1.0000 0.30650  0.95070  0.23740  Biso   1.000  H
  H56      1.0000 0.30650  0.04930  0.76260  Biso   1.000  H
  H57      1.0000 0.23740  0.19350  0.54930  Biso   1.000  H
  H58      1.0000 0.76260  0.19350  0.45070  Biso   1.000  H
  H59      1.0000 0.23740  0.80650  0.45070  Biso   1.000  H
  H60      1.0000 0.76260  0.80650  0.54930  Biso   1.000  H
  H61      1.0000 0.23740  0.04930  0.30650  Biso   1.000  H
  H62      1.0000 0.76260  0.95070  0.30650  Biso   1.000  H
  H63      1.0000 0.23740  0.95070  0.69350  Biso   1.000  H
  H64      1.0000 0.76260  0.04930  0.69350  Biso   1.000  H
  H65      1.0000 0.54930  0.19350  0.76260  Biso   1.000  H
  H66      1.0000 0.45070  0.19350  0.23740  Biso   1.000  H
  H67      1.0000 0.45070  0.80650  0.76260  Biso   1.000  H
  H68      1.0000 0.54930  0.80650  0.23740  Biso   1.000  H
  H69      1.0000 0.69350  0.73740  0.45070  Biso   1.000  H
  H70      1.0000 0.69350  0.26260  0.54930  Biso   1.000  H
  H71      1.0000 0.30650  0.73740  0.54930  Biso   1.000  H
  H72      1.0000 0.30650  0.26260  0.45070  Biso   1.000  H
  H73      1.0000 0.54930  0.23740  0.19350  Biso   1.000  H
  H74      1.0000 0.45070  0.76260  0.19350  Biso   1.000  H
  H75      1.0000 0.45070  0.23740  0.80650  Biso   1.000  H
  H76      1.0000 0.54930  0.76260  0.80650  Biso   1.000  H
  H77      1.0000 0.69350  0.54930  0.73740  Biso   1.000  H
  H78      1.0000 0.69350  0.45070  0.26260  Biso   1.000  H
  H79      1.0000 0.30650  0.45070  0.73740  Biso   1.000  H
  H80      1.0000 0.30650  0.54930  0.26260  Biso   1.000  H
  H81      1.0000 0.23740  0.69350  0.04930  Biso   1.000  H
  H82      1.0000 0.76260  0.69350  0.95070  Biso   1.000  H
  H83      1.0000 0.23740  0.30650  0.95070  Biso   1.000  H
  H84      1.0000 0.76260  0.30650  0.04930  Biso   1.000  H
  H85      1.0000 0.23740  0.54930  0.80650  Biso   1.000  H
  H86      1.0000 0.76260  0.45070  0.80650  Biso   1.000  H
  H87      1.0000 0.23740  0.45070  0.19350  Biso   1.000  H
  H88      1.0000 0.76260  0.54930  0.19350  Biso   1.000  H
  H89      1.0000 0.54930  0.69350  0.26260  Biso   1.000  H
  H90      1.0000 0.45070  0.69350  0.73740  Biso   1.000  H
  H91      1.0000 0.45070  0.30650  0.26260  Biso   1.000  H
  H92      1.0000 0.54930  0.30650  0.73740  Biso   1.000  H
  H93      1.0000 0.69350  0.23740  0.95070  Biso   1.000  H
  H94      1.0000 0.69350  0.76260  0.04930  Biso   1.000  H
  H95      1.0000 0.30650  0.23740  0.04930  Biso   1.000  H
  H96      1.0000 0.30650  0.76260  0.95070  Biso   1.000  H
  C289     1.0000 0.07294  0.71437  0.18958  Biso   1.000  C
  C290     1.0000 0.92706  0.28563  0.18958  Biso   1.000  C
  C291     1.0000 0.92706  0.71437  0.81042  Biso   1.000  C
  C292     1.0000 0.07294  0.28563  0.81042  Biso   1.000  C
  C293     1.0000 0.18958  0.07294  0.71437  Biso   1.000  C
  C294     1.0000 0.18958  0.92706  0.28563  Biso   1.000  C
  C295     1.0000 0.81042  0.92706  0.71437  Biso   1.000  C
  C296     1.0000 0.81042  0.07294  0.28563  Biso   1.000  C
  C297     1.0000 0.71437  0.18958  0.07294  Biso   1.000  C
  C298     1.0000 0.28563  0.18958  0.92706  Biso   1.000  C
  C299     1.0000 0.71437  0.81042  0.92706  Biso   1.000  C
  C300     1.0000 0.28563  0.81042  0.07294  Biso   1.000  C
  C301     1.0000 0.71437  0.07294  0.81042  Biso   1.000  C
  C302     1.0000 0.28563  0.92706  0.81042  Biso   1.000  C
  C303     1.0000 0.71437  0.92706  0.18958  Biso   1.000  C
  C304     1.0000 0.28563  0.07294  0.18958  Biso   1.000  C
  C305     1.0000 0.07294  0.18958  0.28563  Biso   1.000  C
  C306     1.0000 0.92706  0.18958  0.71437  Biso   1.000  C
  C307     1.0000 0.92706  0.81042  0.28563  Biso   1.000  C
  C308     1.0000 0.07294  0.81042  0.71437  Biso   1.000  C
  C309     1.0000 0.18958  0.71437  0.92706  Biso   1.000  C
  C310     1.0000 0.18958  0.28563  0.07294  Biso   1.000  C
  C311     1.0000 0.81042  0.71437  0.07294  Biso   1.000  C
  C312     1.0000 0.81042  0.28563  0.92706  Biso   1.000  C
  C313     1.0000 0.07294  0.21437  0.68958  Biso   1.000  C
  C314     1.0000 0.92706  0.78563  0.68958  Biso   1.000  C
  C315     1.0000 0.92706  0.21437  0.31042  Biso   1.000  C
  C316     1.0000 0.07294  0.78563  0.31042  Biso   1.000  C
  C317     1.0000 0.18958  0.57294  0.21437  Biso   1.000  C
  C318     1.0000 0.18958  0.42706  0.78563  Biso   1.000  C
  C319     1.0000 0.81042  0.42706  0.21437  Biso   1.000  C
  C320     1.0000 0.81042  0.57294  0.78563  Biso   1.000  C
  C321     1.0000 0.71437  0.68958  0.57294  Biso   1.000  C
  C322     1.0000 0.28563  0.68958  0.42706  Biso   1.000  C
  C323     1.0000 0.71437  0.31042  0.42706  Biso   1.000  C
  C324     1.0000 0.28563  0.31042  0.57294  Biso   1.000  C
  C325     1.0000 0.71437  0.57294  0.31042  Biso   1.000  C
  C326     1.0000 0.28563  0.42706  0.31042  Biso   1.000  C
  C327     1.0000 0.71437  0.42706  0.68958  Biso   1.000  C
  C328     1.0000 0.28563  0.57294  0.68958  Biso   1.000  C
  C329     1.0000 0.07294  0.68958  0.78563  Biso   1.000  C
  C330     1.0000 0.92706  0.68958  0.21437  Biso   1.000  C
  C331     1.0000 0.92706  0.31042  0.78563  Biso   1.000  C
  C332     1.0000 0.07294  0.31042  0.21437  Biso   1.000  C
  C333     1.0000 0.18958  0.21437  0.42706  Biso   1.000  C
  C334     1.0000 0.18958  0.78563  0.57294  Biso   1.000  C
  C335     1.0000 0.81042  0.21437  0.57294  Biso   1.000  C
  C336     1.0000 0.81042  0.78563  0.42706  Biso   1.000  C
  C337     1.0000 0.57294  0.71437  0.68958  Biso   1.000  C
  C338     1.0000 0.42706  0.28563  0.68958  Biso   1.000  C
  C339     1.0000 0.42706  0.71437  0.31042  Biso   1.000  C
  C340     1.0000 0.57294  0.28563  0.31042  Biso   1.000  C
  C341     1.0000 0.68958  0.07294  0.21437  Biso   1.000  C
  C342     1.0000 0.68958  0.92706  0.78563  Biso   1.000  C
  C343     1.0000 0.31042  0.92706  0.21437  Biso   1.000  C
  C344     1.0000 0.31042  0.07294  0.78563  Biso   1.000  C
  C345     1.0000 0.21437  0.18958  0.57294  Biso   1.000  C
  C346     1.0000 0.78563  0.18958  0.42706  Biso   1.000  C
  C347     1.0000 0.21437  0.81042  0.42706  Biso   1.000  C
  C348     1.0000 0.78563  0.81042  0.57294  Biso   1.000  C
  C349     1.0000 0.21437  0.07294  0.31042  Biso   1.000  C
  C350     1.0000 0.78563  0.92706  0.31042  Biso   1.000  C
  C351     1.0000 0.21437  0.92706  0.68958  Biso   1.000  C
  C352     1.0000 0.78563  0.07294  0.68958  Biso   1.000  C
  C353     1.0000 0.57294  0.18958  0.78563  Biso   1.000  C
  C354     1.0000 0.42706  0.18958  0.21437  Biso   1.000  C
  C355     1.0000 0.42706  0.81042  0.78563  Biso   1.000  C
  C356     1.0000 0.57294  0.81042  0.21437  Biso   1.000  C
  C357     1.0000 0.68958  0.71437  0.42706  Biso   1.000  C
  C358     1.0000 0.68958  0.28563  0.57294  Biso   1.000  C
  C359     1.0000 0.31042  0.71437  0.57294  Biso   1.000  C
  C360     1.0000 0.31042  0.28563  0.42706  Biso   1.000  C
  C361     1.0000 0.57294  0.21437  0.18958  Biso   1.000  C
  C362     1.0000 0.42706  0.78563  0.18958  Biso   1.000  C
  C363     1.0000 0.42706  0.21437  0.81042  Biso   1.000  C
  C364     1.0000 0.57294  0.78563  0.81042  Biso   1.000  C
  C365     1.0000 0.68958  0.57294  0.71437  Biso   1.000  C
  C366     1.0000 0.68958  0.42706  0.28563  Biso   1.000  C
  C367     1.0000 0.31042  0.42706  0.71437  Biso   1.000  C
  C368     1.0000 0.31042  0.57294  0.28563  Biso   1.000  C
  C369     1.0000 0.21437  0.68958  0.07294  Biso   1.000  C
  C370     1.0000 0.78563  0.68958  0.92706  Biso   1.000  C
  C371     1.0000 0.21437  0.31042  0.92706  Biso   1.000  C
  C372     1.0000 0.78563  0.31042  0.07294  Biso   1.000  C
  C373     1.0000 0.21437  0.57294  0.81042  Biso   1.000  C
  C374     1.0000 0.78563  0.42706  0.81042  Biso   1.000  C
  C375     1.0000 0.21437  0.42706  0.18958  Biso   1.000  C
  C376     1.0000 0.78563  0.57294  0.18958  Biso   1.000  C
  C377     1.0000 0.57294  0.68958  0.28563  Biso   1.000  C
  C378     1.0000 0.42706  0.68958  0.71437  Biso   1.000  C
  C379     1.0000 0.42706  0.31042  0.28563  Biso   1.000  C
  C380     1.0000 0.57294  0.31042  0.71437  Biso   1.000  C
  C381     1.0000 0.68958  0.21437  0.92706  Biso   1.000  C
  C382     1.0000 0.68958  0.78563  0.07294  Biso   1.000  C
  C383     1.0000 0.31042  0.21437  0.07294  Biso   1.000  C
  C384     1.0000 0.31042  0.78563  0.92706  Biso   1.000  C
  H97      1.0000 0.07860  0.71990  0.17650  Biso   1.000  H
  H98      1.0000 0.92140  0.28010  0.17650  Biso   1.000  H
  H99      1.0000 0.92140  0.71990  0.82350  Biso   1.000  H
  H100     1.0000 0.07860  0.28010  0.82350  Biso   1.000  H
  H101     1.0000 0.17650  0.07860  0.71990  Biso   1.000  H
  H102     1.0000 0.17650  0.92140  0.28010  Biso   1.000  H
  H103     1.0000 0.82350  0.92140  0.71990  Biso   1.000  H
  H104     1.0000 0.82350  0.07860  0.28010  Biso   1.000  H
  H105     1.0000 0.71990  0.17650  0.07860  Biso   1.000  H
  H106     1.0000 0.28010  0.17650  0.92140  Biso   1.000  H
  H107     1.0000 0.71990  0.82350  0.92140  Biso   1.000  H
  H108     1.0000 0.28010  0.82350  0.07860  Biso   1.000  H
  H109     1.0000 0.71990  0.07860  0.82350  Biso   1.000  H
  H110     1.0000 0.28010  0.92140  0.82350  Biso   1.000  H
  H111     1.0000 0.71990  0.92140  0.17650  Biso   1.000  H
  H112     1.0000 0.28010  0.07860  0.17650  Biso   1.000  H
  H113     1.0000 0.07860  0.17650  0.28010  Biso   1.000  H
  H114     1.0000 0.92140  0.17650  0.71990  Biso   1.000  H
  H115     1.0000 0.92140  0.82350  0.28010  Biso   1.000  H
  H116     1.0000 0.07860  0.82350  0.71990  Biso   1.000  H
  H117     1.0000 0.17650  0.71990  0.92140  Biso   1.000  H
  H118     1.0000 0.17650  0.28010  0.07860  Biso   1.000  H
  H119     1.0000 0.82350  0.71990  0.07860  Biso   1.000  H
  H120     1.0000 0.82350  0.28010  0.92140  Biso   1.000  H
  H121     1.0000 0.07860  0.21990  0.67650  Biso   1.000  H
  H122     1.0000 0.92140  0.78010  0.67650  Biso   1.000  H
  H123     1.0000 0.92140  0.21990  0.32350  Biso   1.000  H
  H124     1.0000 0.07860  0.78010  0.32350  Biso   1.000  H
  H125     1.0000 0.17650  0.57860  0.21990  Biso   1.000  H
  H126     1.0000 0.17650  0.42140  0.78010  Biso   1.000  H
  H127     1.0000 0.82350  0.42140  0.21990  Biso   1.000  H
  H128     1.0000 0.82350  0.57860  0.78010  Biso   1.000  H
  H129     1.0000 0.71990  0.67650  0.57860  Biso   1.000  H
  H130     1.0000 0.28010  0.67650  0.42140  Biso   1.000  H
  H131     1.0000 0.71990  0.32350  0.42140  Biso   1.000  H
  H132     1.0000 0.28010  0.32350  0.57860  Biso   1.000  H
  H133     1.0000 0.71990  0.57860  0.32350  Biso   1.000  H
  H134     1.0000 0.28010  0.42140  0.32350  Biso   1.000  H
  H135     1.0000 0.71990  0.42140  0.67650  Biso   1.000  H
  H136     1.0000 0.28010  0.57860  0.67650  Biso   1.000  H
  H137     1.0000 0.07860  0.67650  0.78010  Biso   1.000  H
  H138     1.0000 0.92140  0.67650  0.21990  Biso   1.000  H
  H139     1.0000 0.92140  0.32350  0.78010  Biso   1.000  H
  H140     1.0000 0.07860  0.32350  0.21990  Biso   1.000  H
  H141     1.0000 0.17650  0.21990  0.42140  Biso   1.000  H
  H142     1.0000 0.17650  0.78010  0.57860  Biso   1.000  H
  H143     1.0000 0.82350  0.21990  0.57860  Biso   1.000  H
  H144     1.0000 0.82350  0.78010  0.42140  Biso   1.000  H
  H145     1.0000 0.57860  0.71990  0.67650  Biso   1.000  H
  H146     1.0000 0.42140  0.28010  0.67650  Biso   1.000  H
  H147     1.0000 0.42140  0.71990  0.32350  Biso   1.000  H
  H148     1.0000 0.57860  0.28010  0.32350  Biso   1.000  H
  H149     1.0000 0.67650  0.07860  0.21990  Biso   1.000  H
  H150     1.0000 0.67650  0.92140  0.78010  Biso   1.000  H
  H151     1.0000 0.32350  0.92140  0.21990  Biso   1.000  H
  H152     1.0000 0.32350  0.07860  0.78010  Biso   1.000  H
  H153     1.0000 0.21990  0.17650  0.57860  Biso   1.000  H
  H154     1.0000 0.78010  0.17650  0.42140  Biso   1.000  H
  H155     1.0000 0.21990  0.82350  0.42140  Biso   1.000  H
  H156     1.0000 0.78010  0.82350  0.57860  Biso   1.000  H
  H157     1.0000 0.21990  0.07860  0.32350  Biso   1.000  H
  H158     1.0000 0.78010  0.92140  0.32350  Biso   1.000  H
  H159     1.0000 0.21990  0.92140  0.67650  Biso   1.000  H
  H160     1.0000 0.78010  0.07860  0.67650  Biso   1.000  H
  H161     1.0000 0.57860  0.17650  0.78010  Biso   1.000  H
  H162     1.0000 0.42140  0.17650  0.21990  Biso   1.000  H
  H163     1.0000 0.42140  0.82350  0.78010  Biso   1.000  H
  H164     1.0000 0.57860  0.82350  0.21990  Biso   1.000  H
  H165     1.0000 0.67650  0.71990  0.42140  Biso   1.000  H
  H166     1.0000 0.67650  0.28010  0.57860  Biso   1.000  H
  H167     1.0000 0.32350  0.71990  0.57860  Biso   1.000  H
  H168     1.0000 0.32350  0.28010  0.42140  Biso   1.000  H
  H169     1.0000 0.57860  0.21990  0.17650  Biso   1.000  H
  H170     1.0000 0.42140  0.78010  0.17650  Biso   1.000  H
  H171     1.0000 0.42140  0.21990  0.82350  Biso   1.000  H
  H172     1.0000 0.57860  0.78010  0.82350  Biso   1.000  H
  H173     1.0000 0.67650  0.57860  0.71990  Biso   1.000  H
  H174     1.0000 0.67650  0.42140  0.28010  Biso   1.000  H
  H175     1.0000 0.32350  0.42140  0.71990  Biso   1.000  H
  H176     1.0000 0.32350  0.57860  0.28010  Biso   1.000  H
  H177     1.0000 0.21990  0.67650  0.07860  Biso   1.000  H
  H178     1.0000 0.78010  0.67650  0.92140  Biso   1.000  H
  H179     1.0000 0.21990  0.32350  0.92140  Biso   1.000  H
  H180     1.0000 0.78010  0.32350  0.07860  Biso   1.000  H
  H181     1.0000 0.21990  0.57860  0.82350  Biso   1.000  H
  H182     1.0000 0.78010  0.42140  0.82350  Biso   1.000  H
  H183     1.0000 0.21990  0.42140  0.17650  Biso   1.000  H
  H184     1.0000 0.78010  0.57860  0.17650  Biso   1.000  H
  H185     1.0000 0.57860  0.67650  0.28010  Biso   1.000  H
  H186     1.0000 0.42140  0.67650  0.71990  Biso   1.000  H
  H187     1.0000 0.42140  0.32350  0.28010  Biso   1.000  H
  H188     1.0000 0.57860  0.32350  0.71990  Biso   1.000  H
  H189     1.0000 0.67650  0.21990  0.92140  Biso   1.000  H
  H190     1.0000 0.67650  0.78010  0.07860  Biso   1.000  H
  H191     1.0000 0.32350  0.21990  0.07860  Biso   1.000  H
  H192     1.0000 0.32350  0.78010  0.92140  Biso   1.000  H
  C385     1.0000 0.08205  0.69564  0.19892  Biso   1.000  C
  C386     1.0000 0.91795  0.30436  0.19892  Biso   1.000  C
  C387     1.0000 0.91795  0.69564  0.80108  Biso   1.000  C
  C388     1.0000 0.08205  0.30436  0.80108  Biso   1.000  C
  C389     1.0000 0.19892  0.08205  0.69564  Biso   1.000  C
  C390     1.0000 0.19892  0.91795  0.30436  Biso   1.000  C
  C391     1.0000 0.80108  0.91795  0.69564  Biso   1.000  C
  C392     1.0000 0.80108  0.08205  0.30436  Biso   1.000  C
  C393     1.0000 0.69564  0.19892  0.08205  Biso   1.000  C
  C394     1.0000 0.30436  0.19892  0.91795  Biso   1.000  C
  C395     1.0000 0.69564  0.80108  0.91795  Biso   1.000  C
  C396     1.0000 0.30436  0.80108  0.08205  Biso   1.000  C
  C397     1.0000 0.69564  0.08205  0.80108  Biso   1.000  C
  C398     1.0000 0.30436  0.91795  0.80108  Biso   1.000  C
  C399     1.0000 0.69564  0.91795  0.19892  Biso   1.000  C
  C400     1.0000 0.30436  0.08205  0.19892  Biso   1.000  C
  C401     1.0000 0.08205  0.19892  0.30436  Biso   1.000  C
  C402     1.0000 0.91795  0.19892  0.69564  Biso   1.000  C
  C403     1.0000 0.91795  0.80108  0.30436  Biso   1.000  C
  C404     1.0000 0.08205  0.80108  0.69564  Biso   1.000  C
  C405     1.0000 0.19892  0.69564  0.91795  Biso   1.000  C
  C406     1.0000 0.19892  0.30436  0.08205  Biso   1.000  C
  C407     1.0000 0.80108  0.69564  0.08205  Biso   1.000  C
  C408     1.0000 0.80108  0.30436  0.91795  Biso   1.000  C
  C409     1.0000 0.08205  0.19564  0.69892  Biso   1.000  C
  C410     1.0000 0.91795  0.80436  0.69892  Biso   1.000  C
  C411     1.0000 0.91795  0.19564  0.30108  Biso   1.000  C
  C412     1.0000 0.08205  0.80436  0.30108  Biso   1.000  C
  C413     1.0000 0.19892  0.58205  0.19564  Biso   1.000  C
  C414     1.0000 0.19892  0.41795  0.80436  Biso   1.000  C
  C415     1.0000 0.80108  0.41795  0.19564  Biso   1.000  C
  C416     1.0000 0.80108  0.58205  0.80436  Biso   1.000  C
  C417     1.0000 0.69564  0.69892  0.58205  Biso   1.000  C
  C418     1.0000 0.30436  0.69892  0.41795  Biso   1.000  C
  C419     1.0000 0.69564  0.30108  0.41795  Biso   1.000  C
  C420     1.0000 0.30436  0.30108  0.58205  Biso   1.000  C
  C421     1.0000 0.69564  0.58205  0.30108  Biso   1.000  C
  C422     1.0000 0.30436  0.41795  0.30108  Biso   1.000  C
  C423     1.0000 0.69564  0.41795  0.69892  Biso   1.000  C
  C424     1.0000 0.30436  0.58205  0.69892  Biso   1.000  C
  C425     1.0000 0.08205  0.69892  0.80436  Biso   1.000  C
  C426     1.0000 0.91795  0.69892  0.19564  Biso   1.000  C
  C427     1.0000 0.91795  0.30108  0.80436  Biso   1.000  C
  C428     1.0000 0.08205  0.30108  0.19564  Biso   1.000  C
  C429     1.0000 0.19892  0.19564  0.41795  Biso   1.000  C
  C430     1.0000 0.19892  0.80436  0.58205  Biso   1.000  C
  C431     1.0000 0.80108  0.19564  0.58205  Biso   1.000  C
  C432     1.0000 0.80108  0.80436  0.41795  Biso   1.000  C
  C433     1.0000 0.58205  0.69564  0.69892  Biso   1.000  C
  C434     1.0000 0.41795  0.30436  0.69892  Biso   1.000  C
  C435     1.0000 0.41795  0.69564  0.30108  Biso   1.000  C
  C436     1.0000 0.58205  0.30436  0.30108  Biso   1.000  C
  C437     1.0000 0.69892  0.08205  0.19564  Biso   1.000  C
  C438     1.0000 0.69892  0.91795  0.80436  Biso   1.000  C
  C439     1.0000 0.30108  0.91795  0.19564  Biso   1.000  C
  C440     1.0000 0.30108  0.08205  0.80436  Biso   1.000  C
  C441     1.0000 0.19564  0.19892  0.58205  Biso   1.000  C
  C442     1.0000 0.80436  0.19892  0.41795  Biso   1.000  C
  C443     1.0000 0.19564  0.80108  0.41795  Biso   1.000  C
  C444     1.0000 0.80436  0.80108  0.58205  Biso   1.000  C
  C445     1.0000 0.19564  0.08205  0.30108  Biso   1.000  C
  C446     1.0000 0.80436  0.91795  0.30108  Biso   1.000  C
  C447     1.0000 0.19564  0.91795  0.69892  Biso   1.000  C
  C448     1.0000 0.80436  0.08205  0.69892  Biso   1.000  C
  C449     1.0000 0.58205  0.19892  0.80436  Biso   1.000  C
  C450     1.0000 0.41795  0.19892  0.19564  Biso   1.000  C
  C451     1.0000 0.41795  0.80108  0.80436  Biso   1.000  C
  C452     1.0000 0.58205  0.80108  0.19564  Biso   1.000  C
  C453     1.0000 0.69892  0.69564  0.41795  Biso   1.000  C
  C454     1.0000 0.69892  0.30436  0.58205  Biso   1.000  C
  C455     1.0000 0.30108  0.69564  0.58205  Biso   1.000  C
  C456     1.0000 0.30108  0.30436  0.41795  Biso   1.000  C
  C457     1.0000 0.58205  0.19564  0.19892  Biso   1.000  C
  C458     1.0000 0.41795  0.80436  0.19892  Biso   1.000  C
  C459     1.0000 0.41795  0.19564  0.80108  Biso   1.000  C
  C460     1.0000 0.58205  0.80436  0.80108  Biso   1.000  C
  C461     1.0000 0.69892  0.58205  0.69564  Biso   1.000  C
  C462     1.0000 0.69892  0.41795  0.30436  Biso   1.000  C
  C463     1.0000 0.30108  0.41795  0.69564  Biso   1.000  C
  C464     1.0000 0.30108  0.58205  0.30436  Biso   1.000  C
  C465     1.0000 0.19564  0.69892  0.08205  Biso   1.000  C
  C466     1.0000 0.80436  0.69892  0.91795  Biso   1.000  C
  C467     1.0000 0.19564  0.30108  0.91795  Biso   1.000  C
  C468     1.0000 0.80436  0.30108  0.08205  Biso   1.000  C
  C469     1.0000 0.19564  0.58205  0.80108  Biso   1.000  C
  C470     1.0000 0.80436  0.41795  0.80108  Biso   1.000  C
  C471     1.0000 0.19564  0.41795  0.19892  Biso   1.000  C
  C472     1.0000 0.80436  0.58205  0.19892  Biso   1.000  C
  C473     1.0000 0.58205  0.69892  0.30436  Biso   1.000  C
  C474     1.0000 0.41795  0.69892  0.69564  Biso   1.000  C
  C475     1.0000 0.41795  0.30108  0.30436  Biso   1.000  C
  C476     1.0000 0.58205  0.30108  0.69564  Biso   1.000  C
  C477     1.0000 0.69892  0.19564  0.91795  Biso   1.000  C
  C478     1.0000 0.69892  0.80436  0.08205  Biso   1.000  C
  C479     1.0000 0.30108  0.19564  0.08205  Biso   1.000  C
  C480     1.0000 0.30108  0.80436  0.91795  Biso   1.000  C
  C481     1.0000 0.07365  0.68740  0.21847  Biso   1.000  C
  C482     1.0000 0.92635  0.31260  0.21847  Biso   1.000  C
  C483     1.0000 0.92635  0.68740  0.78153  Biso   1.000  C
  C484     1.0000 0.07365  0.31260  0.78153  Biso   1.000  C
  C485     1.0000 0.21847  0.07365  0.68740  Biso   1.000  C
  C486     1.0000 0.21847  0.92635  0.31260  Biso   1.000  C
  C487     1.0000 0.78153  0.92635  0.68740  Biso   1.000  C
  C488     1.0000 0.78153  0.07365  0.31260  Biso   1.000  C
  C489     1.0000 0.68740  0.21847  0.07365  Biso   1.000  C
  C490     1.0000 0.31260  0.21847  0.92635  Biso   1.000  C
  C491     1.0000 0.68740  0.78153  0.92635  Biso   1.000  C
  C492     1.0000 0.31260  0.78153  0.07365  Biso   1.000  C
  C493     1.0000 0.68740  0.07365  0.78153  Biso   1.000  C
  C494     1.0000 0.31260  0.92635  0.78153  Biso   1.000  C
  C495     1.0000 0.68740  0.92635  0.21847  Biso   1.000  C
  C496     1.0000 0.31260  0.07365  0.21847  Biso   1.000  C
  C497     1.0000 0.07365  0.21847  0.31260  Biso   1.000  C
  C498     1.0000 0.92635  0.21847  0.68740  Biso   1.000  C
  C499     1.0000 0.92635  0.78153  0.31260  Biso   1.000  C
  C500     1.0000 0.07365  0.78153  0.68740  Biso   1.000  C
  C501     1.0000 0.21847  0.68740  0.92635  Biso   1.000  C
  C502     1.0000 0.21847  0.31260  0.07365  Biso   1.000  C
  C503     1.0000 0.78153  0.68740  0.07365  Biso   1.000  C
  C504     1.0000 0.78153  0.31260  0.92635  Biso   1.000  C
  C505     1.0000 0.07365  0.18740  0.71847  Biso   1.000  C
  C506     1.0000 0.92635  0.81260  0.71847  Biso   1.000  C
  C507     1.0000 0.92635  0.18740  0.28153  Biso   1.000  C
  C508     1.0000 0.07365  0.81260  0.28153  Biso   1.000  C
  C509     1.0000 0.21847  0.57365  0.18740  Biso   1.000  C
  C510     1.0000 0.21847  0.42635  0.81260  Biso   1.000  C
  C511     1.0000 0.78153  0.42635  0.18740  Biso   1.000  C
  C512     1.0000 0.78153  0.57365  0.81260  Biso   1.000  C
  C513     1.0000 0.68740  0.71847  0.57365  Biso   1.000  C
  C514     1.0000 0.31260  0.71847  0.42635  Biso   1.000  C
  C515     1.0000 0.68740  0.28153  0.42635  Biso   1.000  C
  C516     1.0000 0.31260  0.28153  0.57365  Biso   1.000  C
  C517     1.0000 0.68740  0.57365  0.28153  Biso   1.000  C
  C518     1.0000 0.31260  0.42635  0.28153  Biso   1.000  C
  C519     1.0000 0.68740  0.42635  0.71847  Biso   1.000  C
  C520     1.0000 0.31260  0.57365  0.71847  Biso   1.000  C
  C521     1.0000 0.07365  0.71847  0.81260  Biso   1.000  C
  C522     1.0000 0.92635  0.71847  0.18740  Biso   1.000  C
  C523     1.0000 0.92635  0.28153  0.81260  Biso   1.000  C
  C524     1.0000 0.07365  0.28153  0.18740  Biso   1.000  C
  C525     1.0000 0.21847  0.18740  0.42635  Biso   1.000  C
  C526     1.0000 0.21847  0.81260  0.57365  Biso   1.000  C
  C527     1.0000 0.78153  0.18740  0.57365  Biso   1.000  C
  C528     1.0000 0.78153  0.81260  0.42635  Biso   1.000  C
  C529     1.0000 0.57365  0.68740  0.71847  Biso   1.000  C
  C530     1.0000 0.42635  0.31260  0.71847  Biso   1.000  C
  C531     1.0000 0.42635  0.68740  0.28153  Biso   1.000  C
  C532     1.0000 0.57365  0.31260  0.28153  Biso   1.000  C
  C533     1.0000 0.71847  0.07365  0.18740  Biso   1.000  C
  C534     1.0000 0.71847  0.92635  0.81260  Biso   1.000  C
  C535     1.0000 0.28153  0.92635  0.18740  Biso   1.000  C
  C536     1.0000 0.28153  0.07365  0.81260  Biso   1.000  C
  C537     1.0000 0.18740  0.21847  0.57365  Biso   1.000  C
  C538     1.0000 0.81260  0.21847  0.42635  Biso   1.000  C
  C539     1.0000 0.18740  0.78153  0.42635  Biso   1.000  C
  C540     1.0000 0.81260  0.78153  0.57365  Biso   1.000  C
  C541     1.0000 0.18740  0.07365  0.28153  Biso   1.000  C
  C542     1.0000 0.81260  0.92635  0.28153  Biso   1.000  C
  C543     1.0000 0.18740  0.92635  0.71847  Biso   1.000  C
  C544     1.0000 0.81260  0.07365  0.71847  Biso   1.000  C
  C545     1.0000 0.57365  0.21847  0.81260  Biso   1.000  C
  C546     1.0000 0.42635  0.21847  0.18740  Biso   1.000  C
  C547     1.0000 0.42635  0.78153  0.81260  Biso   1.000  C
  C548     1.0000 0.57365  0.78153  0.18740  Biso   1.000  C
  C549     1.0000 0.71847  0.68740  0.42635  Biso   1.000  C
  C550     1.0000 0.71847  0.31260  0.57365  Biso   1.000  C
  C551     1.0000 0.28153  0.68740  0.57365  Biso   1.000  C
  C552     1.0000 0.28153  0.31260  0.42635  Biso   1.000  C
  C553     1.0000 0.57365  0.18740  0.21847  Biso   1.000  C
  C554     1.0000 0.42635  0.81260  0.21847  Biso   1.000  C
  C555     1.0000 0.42635  0.18740  0.78153  Biso   1.000  C
  C556     1.0000 0.57365  0.81260  0.78153  Biso   1.000  C
  C557     1.0000 0.71847  0.57365  0.68740  Biso   1.000  C
  C558     1.0000 0.71847  0.42635  0.31260  Biso   1.000  C
  C559     1.0000 0.28153  0.42635  0.68740  Biso   1.000  C
  C560     1.0000 0.28153  0.57365  0.31260  Biso   1.000  C
  C561     1.0000 0.18740  0.71847  0.07365  Biso   1.000  C
  C562     1.0000 0.81260  0.71847  0.92635  Biso   1.000  C
  C563     1.0000 0.18740  0.28153  0.92635  Biso   1.000  C
  C564     1.0000 0.81260  0.28153  0.07365  Biso   1.000  C
  C565     1.0000 0.18740  0.57365  0.78153  Biso   1.000  C
  C566     1.0000 0.81260  0.42635  0.78153  Biso   1.000  C
  C567     1.0000 0.18740  0.42635  0.21847  Biso   1.000  C
  C568     1.0000 0.81260  0.57365  0.21847  Biso   1.000  C
  C569     1.0000 0.57365  0.71847  0.31260  Biso   1.000  C
  C570     1.0000 0.42635  0.71847  0.68740  Biso   1.000  C
  C571     1.0000 0.42635  0.28153  0.31260  Biso   1.000  C
  C572     1.0000 0.57365  0.28153  0.68740  Biso   1.000  C
  C573     1.0000 0.71847  0.18740  0.92635  Biso   1.000  C
  C574     1.0000 0.71847  0.81260  0.07365  Biso   1.000  C
  C575     1.0000 0.28153  0.18740  0.07365  Biso   1.000  C
  C576     1.0000 0.28153  0.81260  0.92635  Biso   1.000  C
  H193     1.0000 0.07970  0.67490  0.22470  Biso   1.000  H
  H194     1.0000 0.92030  0.32510  0.22470  Biso   1.000  H
  H195     1.0000 0.92030  0.67490  0.77530  Biso   1.000  H
  H196     1.0000 0.07970  0.32510  0.77530  Biso   1.000  H
  H197     1.0000 0.22470  0.07970  0.67490  Biso   1.000  H
  H198     1.0000 0.22470  0.92030  0.32510  Biso   1.000  H
  H199     1.0000 0.77530  0.92030  0.67490  Biso   1.000  H
  H200     1.0000 0.77530  0.07970  0.32510  Biso   1.000  H
  H201     1.0000 0.67490  0.22470  0.07970  Biso   1.000  H
  H202     1.0000 0.32510  0.22470  0.92030  Biso   1.000  H
  H203     1.0000 0.67490  0.77530  0.92030  Biso   1.000  H
  H204     1.0000 0.32510  0.77530  0.07970  Biso   1.000  H
  H205     1.0000 0.67490  0.07970  0.77530  Biso   1.000  H
  H206     1.0000 0.32510  0.92030  0.77530  Biso   1.000  H
  H207     1.0000 0.67490  0.92030  0.22470  Biso   1.000  H
  H208     1.0000 0.32510  0.07970  0.22470  Biso   1.000  H
  H209     1.0000 0.07970  0.22470  0.32510  Biso   1.000  H
  H210     1.0000 0.92030  0.22470  0.67490  Biso   1.000  H
  H211     1.0000 0.92030  0.77530  0.32510  Biso   1.000  H
  H212     1.0000 0.07970  0.77530  0.67490  Biso   1.000  H
  H213     1.0000 0.22470  0.67490  0.92030  Biso   1.000  H
  H214     1.0000 0.22470  0.32510  0.07970  Biso   1.000  H
  H215     1.0000 0.77530  0.67490  0.07970  Biso   1.000  H
  H216     1.0000 0.77530  0.32510  0.92030  Biso   1.000  H
  H217     1.0000 0.07970  0.17490  0.72470  Biso   1.000  H
  H218     1.0000 0.92030  0.82510  0.72470  Biso   1.000  H
  H219     1.0000 0.92030  0.17490  0.27530  Biso   1.000  H
  H220     1.0000 0.07970  0.82510  0.27530  Biso   1.000  H
  H221     1.0000 0.22470  0.57970  0.17490  Biso   1.000  H
  H222     1.0000 0.22470  0.42030  0.82510  Biso   1.000  H
  H223     1.0000 0.77530  0.42030  0.17490  Biso   1.000  H
  H224     1.0000 0.77530  0.57970  0.82510  Biso   1.000  H
  H225     1.0000 0.67490  0.72470  0.57970  Biso   1.000  H
  H226     1.0000 0.32510  0.72470  0.42030  Biso   1.000  H
  H227     1.0000 0.67490  0.27530  0.42030  Biso   1.000  H
  H228     1.0000 0.32510  0.27530  0.57970  Biso   1.000  H
  H229     1.0000 0.67490  0.57970  0.27530  Biso   1.000  H
  H230     1.0000 0.32510  0.42030  0.27530  Biso   1.000  H
  H231     1.0000 0.67490  0.42030  0.72470  Biso   1.000  H
  H232     1.0000 0.32510  0.57970  0.72470  Biso   1.000  H
  H233     1.0000 0.07970  0.72470  0.82510  Biso   1.000  H
  H234     1.0000 0.92030  0.72470  0.17490  Biso   1.000  H
  H235     1.0000 0.92030  0.27530  0.82510  Biso   1.000  H
  H236     1.0000 0.07970  0.27530  0.17490  Biso   1.000  H
  H237     1.0000 0.22470  0.17490  0.42030  Biso   1.000  H
  H238     1.0000 0.22470  0.82510  0.57970  Biso   1.000  H
  H239     1.0000 0.77530  0.17490  0.57970  Biso   1.000  H
  H240     1.0000 0.77530  0.82510  0.42030  Biso   1.000  H
  H241     1.0000 0.57970  0.67490  0.72470  Biso   1.000  H
  H242     1.0000 0.42030  0.32510  0.72470  Biso   1.000  H
  H243     1.0000 0.42030  0.67490  0.27530  Biso   1.000  H
  H244     1.0000 0.57970  0.32510  0.27530  Biso   1.000  H
  H245     1.0000 0.72470  0.07970  0.17490  Biso   1.000  H
  H246     1.0000 0.72470  0.92030  0.82510  Biso   1.000  H
  H247     1.0000 0.27530  0.92030  0.17490  Biso   1.000  H
  H248     1.0000 0.27530  0.07970  0.82510  Biso   1.000  H
  H249     1.0000 0.17490  0.22470  0.57970  Biso   1.000  H
  H250     1.0000 0.82510  0.22470  0.42030  Biso   1.000  H
  H251     1.0000 0.17490  0.77530  0.42030  Biso   1.000  H
  H252     1.0000 0.82510  0.77530  0.57970  Biso   1.000  H
  H253     1.0000 0.17490  0.07970  0.27530  Biso   1.000  H
  H254     1.0000 0.82510  0.92030  0.27530  Biso   1.000  H
  H255     1.0000 0.17490  0.92030  0.72470  Biso   1.000  H
  H256     1.0000 0.82510  0.07970  0.72470  Biso   1.000  H
  H257     1.0000 0.57970  0.22470  0.82510  Biso   1.000  H
  H258     1.0000 0.42030  0.22470  0.17490  Biso   1.000  H
  H259     1.0000 0.42030  0.77530  0.82510  Biso   1.000  H
  H260     1.0000 0.57970  0.77530  0.17490  Biso   1.000  H
  H261     1.0000 0.72470  0.67490  0.42030  Biso   1.000  H
  H262     1.0000 0.72470  0.32510  0.57970  Biso   1.000  H
  H263     1.0000 0.27530  0.67490  0.57970  Biso   1.000  H
  H264     1.0000 0.27530  0.32510  0.42030  Biso   1.000  H
  H265     1.0000 0.57970  0.17490  0.22470  Biso   1.000  H
  H266     1.0000 0.42030  0.82510  0.22470  Biso   1.000  H
  H267     1.0000 0.42030  0.17490  0.77530  Biso   1.000  H
  H268     1.0000 0.57970  0.82510  0.77530  Biso   1.000  H
  H269     1.0000 0.72470  0.57970  0.67490  Biso   1.000  H
  H270     1.0000 0.72470  0.42030  0.32510  Biso   1.000  H
  H271     1.0000 0.27530  0.42030  0.67490  Biso   1.000  H
  H272     1.0000 0.27530  0.57970  0.32510  Biso   1.000  H
  H273     1.0000 0.17490  0.72470  0.07970  Biso   1.000  H
  H274     1.0000 0.82510  0.72470  0.92030  Biso   1.000  H
  H275     1.0000 0.17490  0.27530  0.92030  Biso   1.000  H
  H276     1.0000 0.82510  0.27530  0.07970  Biso   1.000  H
  H277     1.0000 0.17490  0.57970  0.77530  Biso   1.000  H
  H278     1.0000 0.82510  0.42030  0.77530  Biso   1.000  H
  H279     1.0000 0.17490  0.42030  0.22470  Biso   1.000  H
  H280     1.0000 0.82510  0.57970  0.22470  Biso   1.000  H
  H281     1.0000 0.57970  0.72470  0.32510  Biso   1.000  H
  H282     1.0000 0.42030  0.72470  0.67490  Biso   1.000  H
  H283     1.0000 0.42030  0.27530  0.32510  Biso   1.000  H
  H284     1.0000 0.57970  0.27530  0.67490  Biso   1.000  H
  H285     1.0000 0.72470  0.17490  0.92030  Biso   1.000  H
  H286     1.0000 0.72470  0.82510  0.07970  Biso   1.000  H
  H287     1.0000 0.27530  0.17490  0.07970  Biso   1.000  H
  H288     1.0000 0.27530  0.82510  0.92030  Biso   1.000  H
  C577     1.0000 0.05614  0.69788  0.22869  Biso   1.000  C
  C578     1.0000 0.94386  0.30212  0.22869  Biso   1.000  C
  C579     1.0000 0.94386  0.69788  0.77131  Biso   1.000  C
  C580     1.0000 0.05614  0.30212  0.77131  Biso   1.000  C
  C581     1.0000 0.22869  0.05614  0.69788  Biso   1.000  C
  C582     1.0000 0.22869  0.94386  0.30212  Biso   1.000  C
  C583     1.0000 0.77131  0.94386  0.69788  Biso   1.000  C
  C584     1.0000 0.77131  0.05614  0.30212  Biso   1.000  C
  C585     1.0000 0.69788  0.22869  0.05614  Biso   1.000  C
  C586     1.0000 0.30212  0.22869  0.94386  Biso   1.000  C
  C587     1.0000 0.69788  0.77131  0.94386  Biso   1.000  C
  C588     1.0000 0.30212  0.77131  0.05614  Biso   1.000  C
  C589     1.0000 0.69788  0.05614  0.77131  Biso   1.000  C
  C590     1.0000 0.30212  0.94386  0.77131  Biso   1.000  C
  C591     1.0000 0.69788  0.94386  0.22869  Biso   1.000  C
  C592     1.0000 0.30212  0.05614  0.22869  Biso   1.000  C
  C593     1.0000 0.05614  0.22869  0.30212  Biso   1.000  C
  C594     1.0000 0.94386  0.22869  0.69788  Biso   1.000  C
  C595     1.0000 0.94386  0.77131  0.30212  Biso   1.000  C
  C596     1.0000 0.05614  0.77131  0.69788  Biso   1.000  C
  C597     1.0000 0.22869  0.69788  0.94386  Biso   1.000  C
  C598     1.0000 0.22869  0.30212  0.05614  Biso   1.000  C
  C599     1.0000 0.77131  0.69788  0.05614  Biso   1.000  C
  C600     1.0000 0.77131  0.30212  0.94386  Biso   1.000  C
  C601     1.0000 0.05614  0.19788  0.72869  Biso   1.000  C
  C602     1.0000 0.94386  0.80212  0.72869  Biso   1.000  C
  C603     1.0000 0.94386  0.19788  0.27131  Biso   1.000  C
  C604     1.0000 0.05614  0.80212  0.27131  Biso   1.000  C
  C605     1.0000 0.22869  0.55614  0.19788  Biso   1.000  C
  C606     1.0000 0.22869  0.44386  0.80212  Biso   1.000  C
  C607     1.0000 0.77131  0.44386  0.19788  Biso   1.000  C
  C608     1.0000 0.77131  0.55614  0.80212  Biso   1.000  C
  C609     1.0000 0.69788  0.72869  0.55614  Biso   1.000  C
  C610     1.0000 0.30212  0.72869  0.44386  Biso   1.000  C
  C611     1.0000 0.69788  0.27131  0.44386  Biso   1.000  C
  C612     1.0000 0.30212  0.27131  0.55614  Biso   1.000  C
  C613     1.0000 0.69788  0.55614  0.27131  Biso   1.000  C
  C614     1.0000 0.30212  0.44386  0.27131  Biso   1.000  C
  C615     1.0000 0.69788  0.44386  0.72869  Biso   1.000  C
  C616     1.0000 0.30212  0.55614  0.72869  Biso   1.000  C
  C617     1.0000 0.05614  0.72869  0.80212  Biso   1.000  C
  C618     1.0000 0.94386  0.72869  0.19788  Biso   1.000  C
  C619     1.0000 0.94386  0.27131  0.80212  Biso   1.000  C
  C620     1.0000 0.05614  0.27131  0.19788  Biso   1.000  C
  C621     1.0000 0.22869  0.19788  0.44386  Biso   1.000  C
  C622     1.0000 0.22869  0.80212  0.55614  Biso   1.000  C
  C623     1.0000 0.77131  0.19788  0.55614  Biso   1.000  C
  C624     1.0000 0.77131  0.80212  0.44386  Biso   1.000  C
  C625     1.0000 0.55614  0.69788  0.72869  Biso   1.000  C
  C626     1.0000 0.44386  0.30212  0.72869  Biso   1.000  C
  C627     1.0000 0.44386  0.69788  0.27131  Biso   1.000  C
  C628     1.0000 0.55614  0.30212  0.27131  Biso   1.000  C
  C629     1.0000 0.72869  0.05614  0.19788  Biso   1.000  C
  C630     1.0000 0.72869  0.94386  0.80212  Biso   1.000  C
  C631     1.0000 0.27131  0.94386  0.19788  Biso   1.000  C
  C632     1.0000 0.27131  0.05614  0.80212  Biso   1.000  C
  C633     1.0000 0.19788  0.22869  0.55614  Biso   1.000  C
  C634     1.0000 0.80212  0.22869  0.44386  Biso   1.000  C
  C635     1.0000 0.19788  0.77131  0.44386  Biso   1.000  C
  C636     1.0000 0.80212  0.77131  0.55614  Biso   1.000  C
  C637     1.0000 0.19788  0.05614  0.27131  Biso   1.000  C
  C638     1.0000 0.80212  0.94386  0.27131  Biso   1.000  C
  C639     1.0000 0.19788  0.94386  0.72869  Biso   1.000  C
  C640     1.0000 0.80212  0.05614  0.72869  Biso   1.000  C
  C641     1.0000 0.55614  0.22869  0.80212  Biso   1.000  C
  C642     1.0000 0.44386  0.22869  0.19788  Biso   1.000  C
  C643     1.0000 0.44386  0.77131  0.80212  Biso   1.000  C
  C644     1.0000 0.55614  0.77131  0.19788  Biso   1.000  C
  C645     1.0000 0.72869  0.69788  0.44386  Biso   1.000  C
  C646     1.0000 0.72869  0.30212  0.55614  Biso   1.000  C
  C647     1.0000 0.27131  0.69788  0.55614  Biso   1.000  C
  C648     1.0000 0.27131  0.30212  0.44386  Biso   1.000  C
  C649     1.0000 0.55614  0.19788  0.22869  Biso   1.000  C
  C650     1.0000 0.44386  0.80212  0.22869  Biso   1.000  C
  C651     1.0000 0.44386  0.19788  0.77131  Biso   1.000  C
  C652     1.0000 0.55614  0.80212  0.77131  Biso   1.000  C
  C653     1.0000 0.72869  0.55614  0.69788  Biso   1.000  C
  C654     1.0000 0.72869  0.44386  0.30212  Biso   1.000  C
  C655     1.0000 0.27131  0.44386  0.69788  Biso   1.000  C
  C656     1.0000 0.27131  0.55614  0.30212  Biso   1.000  C
  C657     1.0000 0.19788  0.72869  0.05614  Biso   1.000  C
  C658     1.0000 0.80212  0.72869  0.94386  Biso   1.000  C
  C659     1.0000 0.19788  0.27131  0.94386  Biso   1.000  C
  C660     1.0000 0.80212  0.27131  0.05614  Biso   1.000  C
  C661     1.0000 0.19788  0.55614  0.77131  Biso   1.000  C
  C662     1.0000 0.80212  0.44386  0.77131  Biso   1.000  C
  C663     1.0000 0.19788  0.44386  0.22869  Biso   1.000  C
  C664     1.0000 0.80212  0.55614  0.22869  Biso   1.000  C
  C665     1.0000 0.55614  0.72869  0.30212  Biso   1.000  C
  C666     1.0000 0.44386  0.72869  0.69788  Biso   1.000  C
  C667     1.0000 0.44386  0.27131  0.30212  Biso   1.000  C
  C668     1.0000 0.55614  0.27131  0.69788  Biso   1.000  C
  C669     1.0000 0.72869  0.19788  0.94386  Biso   1.000  C
  C670     1.0000 0.72869  0.80212  0.05614  Biso   1.000  C
  C671     1.0000 0.27131  0.19788  0.05614  Biso   1.000  C
  C672     1.0000 0.27131  0.80212  0.94386  Biso   1.000  C
  H289     1.0000 0.05050  0.69240  0.24180  Biso   1.000  H
  H290     1.0000 0.94950  0.30760  0.24180  Biso   1.000  H
  H291     1.0000 0.94950  0.69240  0.75820  Biso   1.000  H
  H292     1.0000 0.05050  0.30760  0.75820  Biso   1.000  H
  H293     1.0000 0.24180  0.05050  0.69240  Biso   1.000  H
  H294     1.0000 0.24180  0.94950  0.30760  Biso   1.000  H
  H295     1.0000 0.75820  0.94950  0.69240  Biso   1.000  H
  H296     1.0000 0.75820  0.05050  0.30760  Biso   1.000  H
  H297     1.0000 0.69240  0.24180  0.05050  Biso   1.000  H
  H298     1.0000 0.30760  0.24180  0.94950  Biso   1.000  H
  H299     1.0000 0.69240  0.75820  0.94950  Biso   1.000  H
  H300     1.0000 0.30760  0.75820  0.05050  Biso   1.000  H
  H301     1.0000 0.69240  0.05050  0.75820  Biso   1.000  H
  H302     1.0000 0.30760  0.94950  0.75820  Biso   1.000  H
  H303     1.0000 0.69240  0.94950  0.24180  Biso   1.000  H
  H304     1.0000 0.30760  0.05050  0.24180  Biso   1.000  H
  H305     1.0000 0.05050  0.24180  0.30760  Biso   1.000  H
  H306     1.0000 0.94950  0.24180  0.69240  Biso   1.000  H
  H307     1.0000 0.94950  0.75820  0.30760  Biso   1.000  H
  H308     1.0000 0.05050  0.75820  0.69240  Biso   1.000  H
  H309     1.0000 0.24180  0.69240  0.94950  Biso   1.000  H
  H310     1.0000 0.24180  0.30760  0.05050  Biso   1.000  H
  H311     1.0000 0.75820  0.69240  0.05050  Biso   1.000  H
  H312     1.0000 0.75820  0.30760  0.94950  Biso   1.000  H
  H313     1.0000 0.05050  0.19240  0.74180  Biso   1.000  H
  H314     1.0000 0.94950  0.80760  0.74180  Biso   1.000  H
  H315     1.0000 0.94950  0.19240  0.25820  Biso   1.000  H
  H316     1.0000 0.05050  0.80760  0.25820  Biso   1.000  H
  H317     1.0000 0.24180  0.55050  0.19240  Biso   1.000  H
  H318     1.0000 0.24180  0.44950  0.80760  Biso   1.000  H
  H319     1.0000 0.75820  0.44950  0.19240  Biso   1.000  H
  H320     1.0000 0.75820  0.55050  0.80760  Biso   1.000  H
  H321     1.0000 0.69240  0.74180  0.55050  Biso   1.000  H
  H322     1.0000 0.30760  0.74180  0.44950  Biso   1.000  H
  H323     1.0000 0.69240  0.25820  0.44950  Biso   1.000  H
  H324     1.0000 0.30760  0.25820  0.55050  Biso   1.000  H
  H325     1.0000 0.69240  0.55050  0.25820  Biso   1.000  H
  H326     1.0000 0.30760  0.44950  0.25820  Biso   1.000  H
  H327     1.0000 0.69240  0.44950  0.74180  Biso   1.000  H
  H328     1.0000 0.30760  0.55050  0.74180  Biso   1.000  H
  H329     1.0000 0.05050  0.74180  0.80760  Biso   1.000  H
  H330     1.0000 0.94950  0.74180  0.19240  Biso   1.000  H
  H331     1.0000 0.94950  0.25820  0.80760  Biso   1.000  H
  H332     1.0000 0.05050  0.25820  0.19240  Biso   1.000  H
  H333     1.0000 0.24180  0.19240  0.44950  Biso   1.000  H
  H334     1.0000 0.24180  0.80760  0.55050  Biso   1.000  H
  H335     1.0000 0.75820  0.19240  0.55050  Biso   1.000  H
  H336     1.0000 0.75820  0.80760  0.44950  Biso   1.000  H
  H337     1.0000 0.55050  0.69240  0.74180  Biso   1.000  H
  H338     1.0000 0.44950  0.30760  0.74180  Biso   1.000  H
  H339     1.0000 0.44950  0.69240  0.25820  Biso   1.000  H
  H340     1.0000 0.55050  0.30760  0.25820  Biso   1.000  H
  H341     1.0000 0.74180  0.05050  0.19240  Biso   1.000  H
  H342     1.0000 0.74180  0.94950  0.80760  Biso   1.000  H
  H343     1.0000 0.25820  0.94950  0.19240  Biso   1.000  H
  H344     1.0000 0.25820  0.05050  0.80760  Biso   1.000  H
  H345     1.0000 0.19240  0.24180  0.55050  Biso   1.000  H
  H346     1.0000 0.80760  0.24180  0.44950  Biso   1.000  H
  H347     1.0000 0.19240  0.75820  0.44950  Biso   1.000  H
  H348     1.0000 0.80760  0.75820  0.55050  Biso   1.000  H
  H349     1.0000 0.19240  0.05050  0.25820  Biso   1.000  H
  H350     1.0000 0.80760  0.94950  0.25820  Biso   1.000  H
  H351     1.0000 0.19240  0.94950  0.74180  Biso   1.000  H
  H352     1.0000 0.80760  0.05050  0.74180  Biso   1.000  H
  H353     1.0000 0.55050  0.24180  0.80760  Biso   1.000  H
  H354     1.0000 0.44950  0.24180  0.19240  Biso   1.000  H
  H355     1.0000 0.44950  0.75820  0.80760  Biso   1.000  H
  H356     1.0000 0.55050  0.75820  0.19240  Biso   1.000  H
  H357     1.0000 0.74180  0.69240  0.44950  Biso   1.000  H
  H358     1.0000 0.74180  0.30760  0.55050  Biso   1.000  H
  H359     1.0000 0.25820  0.69240  0.55050  Biso   1.000  H
  H360     1.0000 0.25820  0.30760  0.44950  Biso   1.000  H
  H361     1.0000 0.55050  0.19240  0.24180  Biso   1.000  H
  H362     1.0000 0.44950  0.80760  0.24180  Biso   1.000  H
  H363     1.0000 0.44950  0.19240  0.75820  Biso   1.000  H
  H364     1.0000 0.55050  0.80760  0.75820  Biso   1.000  H
  H365     1.0000 0.74180  0.55050  0.69240  Biso   1.000  H
  H366     1.0000 0.74180  0.44950  0.30760  Biso   1.000  H
  H367     1.0000 0.25820  0.44950  0.69240  Biso   1.000  H
  H368     1.0000 0.25820  0.55050  0.30760  Biso   1.000  H
  H369     1.0000 0.19240  0.74180  0.05050  Biso   1.000  H
  H370     1.0000 0.80760  0.74180  0.94950  Biso   1.000  H
  H371     1.0000 0.19240  0.25820  0.94950  Biso   1.000  H
  H372     1.0000 0.80760  0.25820  0.05050  Biso   1.000  H
  H373     1.0000 0.19240  0.55050  0.75820  Biso   1.000  H
  H374     1.0000 0.80760  0.44950  0.75820  Biso   1.000  H
  H375     1.0000 0.19240  0.44950  0.24180  Biso   1.000  H
  H376     1.0000 0.80760  0.55050  0.24180  Biso   1.000  H
  H377     1.0000 0.55050  0.74180  0.30760  Biso   1.000  H
  H378     1.0000 0.44950  0.74180  0.69240  Biso   1.000  H
  H379     1.0000 0.44950  0.25820  0.30760  Biso   1.000  H
  H380     1.0000 0.55050  0.25820  0.69240  Biso   1.000  H
  H381     1.0000 0.74180  0.19240  0.94950  Biso   1.000  H
  H382     1.0000 0.74180  0.80760  0.05050  Biso   1.000  H
  H383     1.0000 0.25820  0.19240  0.05050  Biso   1.000  H
  H384     1.0000 0.25820  0.80760  0.94950  Biso   1.000  H
  C673     1.0000 0.10055  0.68335  0.18791  Biso   1.000  C
  C674     1.0000 0.89945  0.31665  0.18791  Biso   1.000  C
  C675     1.0000 0.89945  0.68335  0.81209  Biso   1.000  C
  C676     1.0000 0.10055  0.31665  0.81209  Biso   1.000  C
  C677     1.0000 0.18791  0.10055  0.68335  Biso   1.000  C
  C678     1.0000 0.18791  0.89945  0.31665  Biso   1.000  C
  C679     1.0000 0.81209  0.89945  0.68335  Biso   1.000  C
  C680     1.0000 0.81209  0.10055  0.31665  Biso   1.000  C
  C681     1.0000 0.68335  0.18791  0.10055  Biso   1.000  C
  C682     1.0000 0.31665  0.18791  0.89945  Biso   1.000  C
  C683     1.0000 0.68335  0.81209  0.89945  Biso   1.000  C
  C684     1.0000 0.31665  0.81209  0.10055  Biso   1.000  C
  C685     1.0000 0.68335  0.10055  0.81209  Biso   1.000  C
  C686     1.0000 0.31665  0.89945  0.81209  Biso   1.000  C
  C687     1.0000 0.68335  0.89945  0.18791  Biso   1.000  C
  C688     1.0000 0.31665  0.10055  0.18791  Biso   1.000  C
  C689     1.0000 0.10055  0.18791  0.31665  Biso   1.000  C
  C690     1.0000 0.89945  0.18791  0.68335  Biso   1.000  C
  C691     1.0000 0.89945  0.81209  0.31665  Biso   1.000  C
  C692     1.0000 0.10055  0.81209  0.68335  Biso   1.000  C
  C693     1.0000 0.18791  0.68335  0.89945  Biso   1.000  C
  C694     1.0000 0.18791  0.31665  0.10055  Biso   1.000  C
  C695     1.0000 0.81209  0.68335  0.10055  Biso   1.000  C
  C696     1.0000 0.81209  0.31665  0.89945  Biso   1.000  C
  C697     1.0000 0.10055  0.18335  0.68791  Biso   1.000  C
  C698     1.0000 0.89945  0.81665  0.68791  Biso   1.000  C
  C699     1.0000 0.89945  0.18335  0.31209  Biso   1.000  C
  C700     1.0000 0.10055  0.81665  0.31209  Biso   1.000  C
  C701     1.0000 0.18791  0.60055  0.18335  Biso   1.000  C
  C702     1.0000 0.18791  0.39945  0.81665  Biso   1.000  C
  C703     1.0000 0.81209  0.39945  0.18335  Biso   1.000  C
  C704     1.0000 0.81209  0.60055  0.81665  Biso   1.000  C
  C705     1.0000 0.68335  0.68791  0.60055  Biso   1.000  C
  C706     1.0000 0.31665  0.68791  0.39945  Biso   1.000  C
  C707     1.0000 0.68335  0.31209  0.39945  Biso   1.000  C
  C708     1.0000 0.31665  0.31209  0.60055  Biso   1.000  C
  C709     1.0000 0.68335  0.60055  0.31209  Biso   1.000  C
  C710     1.0000 0.31665  0.39945  0.31209  Biso   1.000  C
  C711     1.0000 0.68335  0.39945  0.68791  Biso   1.000  C
  C712     1.0000 0.31665  0.60055  0.68791  Biso   1.000  C
  C713     1.0000 0.10055  0.68791  0.81665  Biso   1.000  C
  C714     1.0000 0.89945  0.68791  0.18335  Biso   1.000  C
  C715     1.0000 0.89945  0.31209  0.81665  Biso   1.000  C
  C716     1.0000 0.10055  0.31209  0.18335  Biso   1.000  C
  C717     1.0000 0.18791  0.18335  0.39945  Biso   1.000  C
  C718     1.0000 0.18791  0.81665  0.60055  Biso   1.000  C
  C719     1.0000 0.81209  0.18335  0.60055  Biso   1.000  C
  C720     1.0000 0.81209  0.81665  0.39945  Biso   1.000  C
  C721     1.0000 0.60055  0.68335  0.68791  Biso   1.000  C
  C722     1.0000 0.39945  0.31665  0.68791  Biso   1.000  C
  C723     1.0000 0.39945  0.68335  0.31209  Biso   1.000  C
  C724     1.0000 0.60055  0.31665  0.31209  Biso   1.000  C
  C725     1.0000 0.68791  0.10055  0.18335  Biso   1.000  C
  C726     1.0000 0.68791  0.89945  0.81665  Biso   1.000  C
  C727     1.0000 0.31209  0.89945  0.18335  Biso   1.000  C
  C728     1.0000 0.31209  0.10055  0.81665  Biso   1.000  C
  C729     1.0000 0.18335  0.18791  0.60055  Biso   1.000  C
  C730     1.0000 0.81665  0.18791  0.39945  Biso   1.000  C
  C731     1.0000 0.18335  0.81209  0.39945  Biso   1.000  C
  C732     1.0000 0.81665  0.81209  0.60055  Biso   1.000  C
  C733     1.0000 0.18335  0.10055  0.31209  Biso   1.000  C
  C734     1.0000 0.81665  0.89945  0.31209  Biso   1.000  C
  C735     1.0000 0.18335  0.89945  0.68791  Biso   1.000  C
  C736     1.0000 0.81665  0.10055  0.68791  Biso   1.000  C
  C737     1.0000 0.60055  0.18791  0.81665  Biso   1.000  C
  C738     1.0000 0.39945  0.18791  0.18335  Biso   1.000  C
  C739     1.0000 0.39945  0.81209  0.81665  Biso   1.000  C
  C740     1.0000 0.60055  0.81209  0.18335  Biso   1.000  C
  C741     1.0000 0.68791  0.68335  0.39945  Biso   1.000  C
  C742     1.0000 0.68791  0.31665  0.60055  Biso   1.000  C
  C743     1.0000 0.31209  0.68335  0.60055  Biso   1.000  C
  C744     1.0000 0.31209  0.31665  0.39945  Biso   1.000  C
  C745     1.0000 0.60055  0.18335  0.18791  Biso   1.000  C
  C746     1.0000 0.39945  0.81665  0.18791  Biso   1.000  C
  C747     1.0000 0.39945  0.18335  0.81209  Biso   1.000  C
  C748     1.0000 0.60055  0.81665  0.81209  Biso   1.000  C
  C749     1.0000 0.68791  0.60055  0.68335  Biso   1.000  C
  C750     1.0000 0.68791  0.39945  0.31665  Biso   1.000  C
  C751     1.0000 0.31209  0.39945  0.68335  Biso   1.000  C
  C752     1.0000 0.31209  0.60055  0.31665  Biso   1.000  C
  C753     1.0000 0.18335  0.68791  0.10055  Biso   1.000  C
  C754     1.0000 0.81665  0.68791  0.89945  Biso   1.000  C
  C755     1.0000 0.18335  0.31209  0.89945  Biso   1.000  C
  C756     1.0000 0.81665  0.31209  0.10055  Biso   1.000  C
  C757     1.0000 0.18335  0.60055  0.81209  Biso   1.000  C
  C758     1.0000 0.81665  0.39945  0.81209  Biso   1.000  C
  C759     1.0000 0.18335  0.39945  0.18791  Biso   1.000  C
  C760     1.0000 0.81665  0.60055  0.18791  Biso   1.000  C
  C761     1.0000 0.60055  0.68791  0.31665  Biso   1.000  C
  C762     1.0000 0.39945  0.68791  0.68335  Biso   1.000  C
  C763     1.0000 0.39945  0.31209  0.31665  Biso   1.000  C
  C764     1.0000 0.60055  0.31209  0.68335  Biso   1.000  C
  C765     1.0000 0.68791  0.18335  0.89945  Biso   1.000  C
  C766     1.0000 0.68791  0.81665  0.10055  Biso   1.000  C
  C767     1.0000 0.31209  0.18335  0.10055  Biso   1.000  C
  C768     1.0000 0.31209  0.81665  0.89945  Biso   1.000  C
  C769     1.0000 0.11512  0.69676  0.17656  Biso   1.000  C
  C770     1.0000 0.88488  0.30324  0.17656  Biso   1.000  C
  C771     1.0000 0.88488  0.69676  0.82344  Biso   1.000  C
  C772     1.0000 0.11512  0.30324  0.82344  Biso   1.000  C
  C773     1.0000 0.17656  0.11512  0.69676  Biso   1.000  C
  C774     1.0000 0.17656  0.88488  0.30324  Biso   1.000  C
  C775     1.0000 0.82344  0.88488  0.69676  Biso   1.000  C
  C776     1.0000 0.82344  0.11512  0.30324  Biso   1.000  C
  C777     1.0000 0.69676  0.17656  0.11512  Biso   1.000  C
  C778     1.0000 0.30324  0.17656  0.88488  Biso   1.000  C
  C779     1.0000 0.69676  0.82344  0.88488  Biso   1.000  C
  C780     1.0000 0.30324  0.82344  0.11512  Biso   1.000  C
  C781     1.0000 0.69676  0.11512  0.82344  Biso   1.000  C
  C782     1.0000 0.30324  0.88488  0.82344  Biso   1.000  C
  C783     1.0000 0.69676  0.88488  0.17656  Biso   1.000  C
  C784     1.0000 0.30324  0.11512  0.17656  Biso   1.000  C
  C785     1.0000 0.11512  0.17656  0.30324  Biso   1.000  C
  C786     1.0000 0.88488  0.17656  0.69676  Biso   1.000  C
  C787     1.0000 0.88488  0.82344  0.30324  Biso   1.000  C
  C788     1.0000 0.11512  0.82344  0.69676  Biso   1.000  C
  C789     1.0000 0.17656  0.69676  0.88488  Biso   1.000  C
  C790     1.0000 0.17656  0.30324  0.11512  Biso   1.000  C
  C791     1.0000 0.82344  0.69676  0.11512  Biso   1.000  C
  C792     1.0000 0.82344  0.30324  0.88488  Biso   1.000  C
  C793     1.0000 0.11512  0.19676  0.67656  Biso   1.000  C
  C794     1.0000 0.88488  0.80324  0.67656  Biso   1.000  C
  C795     1.0000 0.88488  0.19676  0.32344  Biso   1.000  C
  C796     1.0000 0.11512  0.80324  0.32344  Biso   1.000  C
  C797     1.0000 0.17656  0.61512  0.19676  Biso   1.000  C
  C798     1.0000 0.17656  0.38488  0.80324  Biso   1.000  C
  C799     1.0000 0.82344  0.38488  0.19676  Biso   1.000  C
  C800     1.0000 0.82344  0.61512  0.80324  Biso   1.000  C
  C801     1.0000 0.69676  0.67656  0.61512  Biso   1.000  C
  C802     1.0000 0.30324  0.67656  0.38488  Biso   1.000  C
  C803     1.0000 0.69676  0.32344  0.38488  Biso   1.000  C
  C804     1.0000 0.30324  0.32344  0.61512  Biso   1.000  C
  C805     1.0000 0.69676  0.61512  0.32344  Biso   1.000  C
  C806     1.0000 0.30324  0.38488  0.32344  Biso   1.000  C
  C807     1.0000 0.69676  0.38488  0.67656  Biso   1.000  C
  C808     1.0000 0.30324  0.61512  0.67656  Biso   1.000  C
  C809     1.0000 0.11512  0.67656  0.80324  Biso   1.000  C
  C810     1.0000 0.88488  0.67656  0.19676  Biso   1.000  C
  C811     1.0000 0.88488  0.32344  0.80324  Biso   1.000  C
  C812     1.0000 0.11512  0.32344  0.19676  Biso   1.000  C
  C813     1.0000 0.17656  0.19676  0.38488  Biso   1.000  C
  C814     1.0000 0.17656  0.80324  0.61512  Biso   1.000  C
  C815     1.0000 0.82344  0.19676  0.61512  Biso   1.000  C
  C816     1.0000 0.82344  0.80324  0.38488  Biso   1.000  C
  C817     1.0000 0.61512  0.69676  0.67656  Biso   1.000  C
  C818     1.0000 0.38488  0.30324  0.67656  Biso   1.000  C
  C819     1.0000 0.38488  0.69676  0.32344  Biso   1.000  C
  C820     1.0000 0.61512  0.30324  0.32344  Biso   1.000  C
  C821     1.0000 0.67656  0.11512  0.19676  Biso   1.000  C
  C822     1.0000 0.67656  0.88488  0.80324  Biso   1.000  C
  C823     1.0000 0.32344  0.88488  0.19676  Biso   1.000  C
  C824     1.0000 0.32344  0.11512  0.80324  Biso   1.000  C
  C825     1.0000 0.19676  0.17656  0.61512  Biso   1.000  C
  C826     1.0000 0.80324  0.17656  0.38488  Biso   1.000  C
  C827     1.0000 0.19676  0.82344  0.38488  Biso   1.000  C
  C828     1.0000 0.80324  0.82344  0.61512  Biso   1.000  C
  C829     1.0000 0.19676  0.11512  0.32344  Biso   1.000  C
  C830     1.0000 0.80324  0.88488  0.32344  Biso   1.000  C
  C831     1.0000 0.19676  0.88488  0.67656  Biso   1.000  C
  C832     1.0000 0.80324  0.11512  0.67656  Biso   1.000  C
  C833     1.0000 0.61512  0.17656  0.80324  Biso   1.000  C
  C834     1.0000 0.38488  0.17656  0.19676  Biso   1.000  C
  C835     1.0000 0.38488  0.82344  0.80324  Biso   1.000  C
  C836     1.0000 0.61512  0.82344  0.19676  Biso   1.000  C
  C837     1.0000 0.67656  0.69676  0.38488  Biso   1.000  C
  C838     1.0000 0.67656  0.30324  0.61512  Biso   1.000  C
  C839     1.0000 0.32344  0.69676  0.61512  Biso   1.000  C
  C840     1.0000 0.32344  0.30324  0.38488  Biso   1.000  C
  C841     1.0000 0.61512  0.19676  0.17656  Biso   1.000  C
  C842     1.0000 0.38488  0.80324  0.17656  Biso   1.000  C
  C843     1.0000 0.38488  0.19676  0.82344  Biso   1.000  C
  C844     1.0000 0.61512  0.80324  0.82344  Biso   1.000  C
  C845     1.0000 0.67656  0.61512  0.69676  Biso   1.000  C
  C846     1.0000 0.67656  0.38488  0.30324  Biso   1.000  C
  C847     1.0000 0.32344  0.38488  0.69676  Biso   1.000  C
  C848     1.0000 0.32344  0.61512  0.30324  Biso   1.000  C
  C849     1.0000 0.19676  0.67656  0.11512  Biso   1.000  C
  C850     1.0000 0.80324  0.67656  0.88488  Biso   1.000  C
  C851     1.0000 0.19676  0.32344  0.88488  Biso   1.000  C
  C852     1.0000 0.80324  0.32344  0.11512  Biso   1.000  C
  C853     1.0000 0.19676  0.61512  0.82344  Biso   1.000  C
  C854     1.0000 0.80324  0.38488  0.82344  Biso   1.000  C
  C855     1.0000 0.19676  0.38488  0.17656  Biso   1.000  C
  C856     1.0000 0.80324  0.61512  0.17656  Biso   1.000  C
  C857     1.0000 0.61512  0.67656  0.30324  Biso   1.000  C
  C858     1.0000 0.38488  0.67656  0.69676  Biso   1.000  C
  C859     1.0000 0.38488  0.32344  0.30324  Biso   1.000  C
  C860     1.0000 0.61512  0.32344  0.69676  Biso   1.000  C
  C861     1.0000 0.67656  0.19676  0.88488  Biso   1.000  C
  C862     1.0000 0.67656  0.80324  0.11512  Biso   1.000  C
  C863     1.0000 0.32344  0.19676  0.11512  Biso   1.000  C
  C864     1.0000 0.32344  0.80324  0.88488  Biso   1.000  C
  H385     1.0000 0.11320  0.71190  0.17660  Biso   1.000  H
  H386     1.0000 0.88680  0.28810  0.17660  Biso   1.000  H
  H387     1.0000 0.88680  0.71190  0.82340  Biso   1.000  H
  H388     1.0000 0.11320  0.28810  0.82340  Biso   1.000  H
  H389     1.0000 0.17660  0.11320  0.71190  Biso   1.000  H
  H390     1.0000 0.17660  0.88680  0.28810  Biso   1.000  H
  H391     1.0000 0.82340  0.88680  0.71190  Biso   1.000  H
  H392     1.0000 0.82340  0.11320  0.28810  Biso   1.000  H
  H393     1.0000 0.71190  0.17660  0.11320  Biso   1.000  H
  H394     1.0000 0.28810  0.17660  0.88680  Biso   1.000  H
  H395     1.0000 0.71190  0.82340  0.88680  Biso   1.000  H
  H396     1.0000 0.28810  0.82340  0.11320  Biso   1.000  H
  H397     1.0000 0.71190  0.11320  0.82340  Biso   1.000  H
  H398     1.0000 0.28810  0.88680  0.82340  Biso   1.000  H
  H399     1.0000 0.71190  0.88680  0.17660  Biso   1.000  H
  H400     1.0000 0.28810  0.11320  0.17660  Biso   1.000  H
  H401     1.0000 0.11320  0.17660  0.28810  Biso   1.000  H
  H402     1.0000 0.88680  0.17660  0.71190  Biso   1.000  H
  H403     1.0000 0.88680  0.82340  0.28810  Biso   1.000  H
  H404     1.0000 0.11320  0.82340  0.71190  Biso   1.000  H
  H405     1.0000 0.17660  0.71190  0.88680  Biso   1.000  H
  H406     1.0000 0.17660  0.28810  0.11320  Biso   1.000  H
  H407     1.0000 0.82340  0.71190  0.11320  Biso   1.000  H
  H408     1.0000 0.82340  0.28810  0.88680  Biso   1.000  H
  H409     1.0000 0.11320  0.21190  0.67660  Biso   1.000  H
  H410     1.0000 0.88680  0.78810  0.67660  Biso   1.000  H
  H411     1.0000 0.88680  0.21190  0.32340  Biso   1.000  H
  H412     1.0000 0.11320  0.78810  0.32340  Biso   1.000  H
  H413     1.0000 0.17660  0.61320  0.21190  Biso   1.000  H
  H414     1.0000 0.17660  0.38680  0.78810  Biso   1.000  H
  H415     1.0000 0.82340  0.38680  0.21190  Biso   1.000  H
  H416     1.0000 0.82340  0.61320  0.78810  Biso   1.000  H
  H417     1.0000 0.71190  0.67660  0.61320  Biso   1.000  H
  H418     1.0000 0.28810  0.67660  0.38680  Biso   1.000  H
  H419     1.0000 0.71190  0.32340  0.38680  Biso   1.000  H
  H420     1.0000 0.28810  0.32340  0.61320  Biso   1.000  H
  H421     1.0000 0.71190  0.61320  0.32340  Biso   1.000  H
  H422     1.0000 0.28810  0.38680  0.32340  Biso   1.000  H
  H423     1.0000 0.71190  0.38680  0.67660  Biso   1.000  H
  H424     1.0000 0.28810  0.61320  0.67660  Biso   1.000  H
  H425     1.0000 0.11320  0.67660  0.78810  Biso   1.000  H
  H426     1.0000 0.88680  0.67660  0.21190  Biso   1.000  H
  H427     1.0000 0.88680  0.32340  0.78810  Biso   1.000  H
  H428     1.0000 0.11320  0.32340  0.21190  Biso   1.000  H
  H429     1.0000 0.17660  0.21190  0.38680  Biso   1.000  H
  H430     1.0000 0.17660  0.78810  0.61320  Biso   1.000  H
  H431     1.0000 0.82340  0.21190  0.61320  Biso   1.000  H
  H432     1.0000 0.82340  0.78810  0.38680  Biso   1.000  H
  H433     1.0000 0.61320  0.71190  0.67660  Biso   1.000  H
  H434     1.0000 0.38680  0.28810  0.67660  Biso   1.000  H
  H435     1.0000 0.38680  0.71190  0.32340  Biso   1.000  H
  H436     1.0000 0.61320  0.28810  0.32340  Biso   1.000  H
  H437     1.0000 0.67660  0.11320  0.21190  Biso   1.000  H
  H438     1.0000 0.67660  0.88680  0.78810  Biso   1.000  H
  H439     1.0000 0.32340  0.88680  0.21190  Biso   1.000  H
  H440     1.0000 0.32340  0.11320  0.78810  Biso   1.000  H
  H441     1.0000 0.21190  0.17660  0.61320  Biso   1.000  H
  H442     1.0000 0.78810  0.17660  0.38680  Biso   1.000  H
  H443     1.0000 0.21190  0.82340  0.38680  Biso   1.000  H
  H444     1.0000 0.78810  0.82340  0.61320  Biso   1.000  H
  H445     1.0000 0.21190  0.11320  0.32340  Biso   1.000  H
  H446     1.0000 0.78810  0.88680  0.32340  Biso   1.000  H
  H447     1.0000 0.21190  0.88680  0.67660  Biso   1.000  H
  H448     1.0000 0.78810  0.11320  0.67660  Biso   1.000  H
  H449     1.0000 0.61320  0.17660  0.78810  Biso   1.000  H
  H450     1.0000 0.38680  0.17660  0.21190  Biso   1.000  H
  H451     1.0000 0.38680  0.82340  0.78810  Biso   1.000  H
  H452     1.0000 0.61320  0.82340  0.21190  Biso   1.000  H
  H453     1.0000 0.67660  0.71190  0.38680  Biso   1.000  H
  H454     1.0000 0.67660  0.28810  0.61320  Biso   1.000  H
  H455     1.0000 0.32340  0.71190  0.61320  Biso   1.000  H
  H456     1.0000 0.32340  0.28810  0.38680  Biso   1.000  H
  H457     1.0000 0.61320  0.21190  0.17660  Biso   1.000  H
  H458     1.0000 0.38680  0.78810  0.17660  Biso   1.000  H
  H459     1.0000 0.38680  0.21190  0.82340  Biso   1.000  H
  H460     1.0000 0.61320  0.78810  0.82340  Biso   1.000  H
  H461     1.0000 0.67660  0.61320  0.71190  Biso   1.000  H
  H462     1.0000 0.67660  0.38680  0.28810  Biso   1.000  H
  H463     1.0000 0.32340  0.38680  0.71190  Biso   1.000  H
  H464     1.0000 0.32340  0.61320  0.28810  Biso   1.000  H
  H465     1.0000 0.21190  0.67660  0.11320  Biso   1.000  H
  H466     1.0000 0.78810  0.67660  0.88680  Biso   1.000  H
  H467     1.0000 0.21190  0.32340  0.88680  Biso   1.000  H
  H468     1.0000 0.78810  0.32340  0.11320  Biso   1.000  H
  H469     1.0000 0.21190  0.61320  0.82340  Biso   1.000  H
  H470     1.0000 0.78810  0.38680  0.82340  Biso   1.000  H
  H471     1.0000 0.21190  0.38680  0.17660  Biso   1.000  H
  H472     1.0000 0.78810  0.61320  0.17660  Biso   1.000  H
  H473     1.0000 0.61320  0.67660  0.28810  Biso   1.000  H
  H474     1.0000 0.38680  0.67660  0.71190  Biso   1.000  H
  H475     1.0000 0.38680  0.32340  0.28810  Biso   1.000  H
  H476     1.0000 0.61320  0.32340  0.71190  Biso   1.000  H
  H477     1.0000 0.67660  0.21190  0.88680  Biso   1.000  H
  H478     1.0000 0.67660  0.78810  0.11320  Biso   1.000  H
  H479     1.0000 0.32340  0.21190  0.11320  Biso   1.000  H
  H480     1.0000 0.32340  0.78810  0.88680  Biso   1.000  H
  C865     1.0000 0.13254  0.68752  0.16507  Biso   1.000  C
  C866     1.0000 0.86746  0.31248  0.16507  Biso   1.000  C
  C867     1.0000 0.86746  0.68752  0.83493  Biso   1.000  C
  C868     1.0000 0.13254  0.31248  0.83493  Biso   1.000  C
  C869     1.0000 0.16507  0.13254  0.68752  Biso   1.000  C
  C870     1.0000 0.16507  0.86746  0.31248  Biso   1.000  C
  C871     1.0000 0.83493  0.86746  0.68752  Biso   1.000  C
  C872     1.0000 0.83493  0.13254  0.31248  Biso   1.000  C
  C873     1.0000 0.68752  0.16507  0.13254  Biso   1.000  C
  C874     1.0000 0.31248  0.16507  0.86746  Biso   1.000  C
  C875     1.0000 0.68752  0.83493  0.86746  Biso   1.000  C
  C876     1.0000 0.31248  0.83493  0.13254  Biso   1.000  C
  C877     1.0000 0.68752  0.13254  0.83493  Biso   1.000  C
  C878     1.0000 0.31248  0.86746  0.83493  Biso   1.000  C
  C879     1.0000 0.68752  0.86746  0.16507  Biso   1.000  C
  C880     1.0000 0.31248  0.13254  0.16507  Biso   1.000  C
  C881     1.0000 0.13254  0.16507  0.31248  Biso   1.000  C
  C882     1.0000 0.86746  0.16507  0.68752  Biso   1.000  C
  C883     1.0000 0.86746  0.83493  0.31248  Biso   1.000  C
  C884     1.0000 0.13254  0.83493  0.68752  Biso   1.000  C
  C885     1.0000 0.16507  0.68752  0.86746  Biso   1.000  C
  C886     1.0000 0.16507  0.31248  0.13254  Biso   1.000  C
  C887     1.0000 0.83493  0.68752  0.13254  Biso   1.000  C
  C888     1.0000 0.83493  0.31248  0.86746  Biso   1.000  C
  C889     1.0000 0.13254  0.18752  0.66507  Biso   1.000  C
  C890     1.0000 0.86746  0.81248  0.66507  Biso   1.000  C
  C891     1.0000 0.86746  0.18752  0.33493  Biso   1.000  C
  C892     1.0000 0.13254  0.81248  0.33493  Biso   1.000  C
  C893     1.0000 0.16507  0.63254  0.18752  Biso   1.000  C
  C894     1.0000 0.16507  0.36746  0.81248  Biso   1.000  C
  C895     1.0000 0.83493  0.36746  0.18752  Biso   1.000  C
  C896     1.0000 0.83493  0.63254  0.81248  Biso   1.000  C
  C897     1.0000 0.68752  0.66507  0.63254  Biso   1.000  C
  C898     1.0000 0.31248  0.66507  0.36746  Biso   1.000  C
  C899     1.0000 0.68752  0.33493  0.36746  Biso   1.000  C
  C900     1.0000 0.31248  0.33493  0.63254  Biso   1.000  C
  C901     1.0000 0.68752  0.63254  0.33493  Biso   1.000  C
  C902     1.0000 0.31248  0.36746  0.33493  Biso   1.000  C
  C903     1.0000 0.68752  0.36746  0.66507  Biso   1.000  C
  C904     1.0000 0.31248  0.63254  0.66507  Biso   1.000  C
  C905     1.0000 0.13254  0.66507  0.81248  Biso   1.000  C
  C906     1.0000 0.86746  0.66507  0.18752  Biso   1.000  C
  C907     1.0000 0.86746  0.33493  0.81248  Biso   1.000  C
  C908     1.0000 0.13254  0.33493  0.18752  Biso   1.000  C
  C909     1.0000 0.16507  0.18752  0.36746  Biso   1.000  C
  C910     1.0000 0.16507  0.81248  0.63254  Biso   1.000  C
  C911     1.0000 0.83493  0.18752  0.63254  Biso   1.000  C
  C912     1.0000 0.83493  0.81248  0.36746  Biso   1.000  C
  C913     1.0000 0.63254  0.68752  0.66507  Biso   1.000  C
  C914     1.0000 0.36746  0.31248  0.66507  Biso   1.000  C
  C915     1.0000 0.36746  0.68752  0.33493  Biso   1.000  C
  C916     1.0000 0.63254  0.31248  0.33493  Biso   1.000  C
  C917     1.0000 0.66507  0.13254  0.18752  Biso   1.000  C
  C918     1.0000 0.66507  0.86746  0.81248  Biso   1.000  C
  C919     1.0000 0.33493  0.86746  0.18752  Biso   1.000  C
  C920     1.0000 0.33493  0.13254  0.81248  Biso   1.000  C
  C921     1.0000 0.18752  0.16507  0.63254  Biso   1.000  C
  C922     1.0000 0.81248  0.16507  0.36746  Biso   1.000  C
  C923     1.0000 0.18752  0.83493  0.36746  Biso   1.000  C
  C924     1.0000 0.81248  0.83493  0.63254  Biso   1.000  C
  C925     1.0000 0.18752  0.13254  0.33493  Biso   1.000  C
  C926     1.0000 0.81248  0.86746  0.33493  Biso   1.000  C
  C927     1.0000 0.18752  0.86746  0.66507  Biso   1.000  C
  C928     1.0000 0.81248  0.13254  0.66507  Biso   1.000  C
  C929     1.0000 0.63254  0.16507  0.81248  Biso   1.000  C
  C930     1.0000 0.36746  0.16507  0.18752  Biso   1.000  C
  C931     1.0000 0.36746  0.83493  0.81248  Biso   1.000  C
  C932     1.0000 0.63254  0.83493  0.18752  Biso   1.000  C
  C933     1.0000 0.66507  0.68752  0.36746  Biso   1.000  C
  C934     1.0000 0.66507  0.31248  0.63254  Biso   1.000  C
  C935     1.0000 0.33493  0.68752  0.63254  Biso   1.000  C
  C936     1.0000 0.33493  0.31248  0.36746  Biso   1.000  C
  C937     1.0000 0.63254  0.18752  0.16507  Biso   1.000  C
  C938     1.0000 0.36746  0.81248  0.16507  Biso   1.000  C
  C939     1.0000 0.36746  0.18752  0.83493  Biso   1.000  C
  C940     1.0000 0.63254  0.81248  0.83493  Biso   1.000  C
  C941     1.0000 0.66507  0.63254  0.68752  Biso   1.000  C
  C942     1.0000 0.66507  0.36746  0.31248  Biso   1.000  C
  C943     1.0000 0.33493  0.36746  0.68752  Biso   1.000  C
  C944     1.0000 0.33493  0.63254  0.31248  Biso   1.000  C
  C945     1.0000 0.18752  0.66507  0.13254  Biso   1.000  C
  C946     1.0000 0.81248  0.66507  0.86746  Biso   1.000  C
  C947     1.0000 0.18752  0.33493  0.86746  Biso   1.000  C
  C948     1.0000 0.81248  0.33493  0.13254  Biso   1.000  C
  C949     1.0000 0.18752  0.63254  0.83493  Biso   1.000  C
  C950     1.0000 0.81248  0.36746  0.83493  Biso   1.000  C
  C951     1.0000 0.18752  0.36746  0.16507  Biso   1.000  C
  C952     1.0000 0.81248  0.63254  0.16507  Biso   1.000  C
  C953     1.0000 0.63254  0.66507  0.31248  Biso   1.000  C
  C954     1.0000 0.36746  0.66507  0.68752  Biso   1.000  C
  C955     1.0000 0.36746  0.33493  0.31248  Biso   1.000  C
  C956     1.0000 0.63254  0.33493  0.68752  Biso   1.000  C
  C957     1.0000 0.66507  0.18752  0.86746  Biso   1.000  C
  C958     1.0000 0.66507  0.81248  0.13254  Biso   1.000  C
  C959     1.0000 0.33493  0.18752  0.13254  Biso   1.000  C
  C960     1.0000 0.33493  0.81248  0.86746  Biso   1.000  C
  H481     1.0000 0.14230  0.69650  0.15750  Biso   1.000  H
  H482     1.0000 0.85770  0.30350  0.15750  Biso   1.000  H
  H483     1.0000 0.85770  0.69650  0.84250  Biso   1.000  H
  H484     1.0000 0.14230  0.30350  0.84250  Biso   1.000  H
  H485     1.0000 0.15750  0.14230  0.69650  Biso   1.000  H
  H486     1.0000 0.15750  0.85770  0.30350  Biso   1.000  H
  H487     1.0000 0.84250  0.85770  0.69650  Biso   1.000  H
  H488     1.0000 0.84250  0.14230  0.30350  Biso   1.000  H
  H489     1.0000 0.69650  0.15750  0.14230  Biso   1.000  H
  H490     1.0000 0.30350  0.15750  0.85770  Biso   1.000  H
  H491     1.0000 0.69650  0.84250  0.85770  Biso   1.000  H
  H492     1.0000 0.30350  0.84250  0.14230  Biso   1.000  H
  H493     1.0000 0.69650  0.14230  0.84250  Biso   1.000  H
  H494     1.0000 0.30350  0.85770  0.84250  Biso   1.000  H
  H495     1.0000 0.69650  0.85770  0.15750  Biso   1.000  H
  H496     1.0000 0.30350  0.14230  0.15750  Biso   1.000  H
  H497     1.0000 0.14230  0.15750  0.30350  Biso   1.000  H
  H498     1.0000 0.85770  0.15750  0.69650  Biso   1.000  H
  H499     1.0000 0.85770  0.84250  0.30350  Biso   1.000  H
  H500     1.0000 0.14230  0.84250  0.69650  Biso   1.000  H
  H501     1.0000 0.15750  0.69650  0.85770  Biso   1.000  H
  H502     1.0000 0.15750  0.30350  0.14230  Biso   1.000  H
  H503     1.0000 0.84250  0.69650  0.14230  Biso   1.000  H
  H504     1.0000 0.84250  0.30350  0.85770  Biso   1.000  H
  H505     1.0000 0.14230  0.19650  0.65750  Biso   1.000  H
  H506     1.0000 0.85770  0.80350  0.65750  Biso   1.000  H
  H507     1.0000 0.85770  0.19650  0.34250  Biso   1.000  H
  H508     1.0000 0.14230  0.80350  0.34250  Biso   1.000  H
  H509     1.0000 0.15750  0.64230  0.19650  Biso   1.000  H
  H510     1.0000 0.15750  0.35770  0.80350  Biso   1.000  H
  H511     1.0000 0.84250  0.35770  0.19650  Biso   1.000  H
  H512     1.0000 0.84250  0.64230  0.80350  Biso   1.000  H
  H513     1.0000 0.69650  0.65750  0.64230  Biso   1.000  H
  H514     1.0000 0.30350  0.65750  0.35770  Biso   1.000  H
  H515     1.0000 0.69650  0.34250  0.35770  Biso   1.000  H
  H516     1.0000 0.30350  0.34250  0.64230  Biso   1.000  H
  H517     1.0000 0.69650  0.64230  0.34250  Biso   1.000  H
  H518     1.0000 0.30350  0.35770  0.34250  Biso   1.000  H
  H519     1.0000 0.69650  0.35770  0.65750  Biso   1.000  H
  H520     1.0000 0.30350  0.64230  0.65750  Biso   1.000  H
  H521     1.0000 0.14230  0.65750  0.80350  Biso   1.000  H
  H522     1.0000 0.85770  0.65750  0.19650  Biso   1.000  H
  H523     1.0000 0.85770  0.34250  0.80350  Biso   1.000  H
  H524     1.0000 0.14230  0.34250  0.19650  Biso   1.000  H
  H525     1.0000 0.15750  0.19650  0.35770  Biso   1.000  H
  H526     1.0000 0.15750  0.80350  0.64230  Biso   1.000  H
  H527     1.0000 0.84250  0.19650  0.64230  Biso   1.000  H
  H528     1.0000 0.84250  0.80350  0.35770  Biso   1.000  H
  H529     1.0000 0.64230  0.69650  0.65750  Biso   1.000  H
  H530     1.0000 0.35770  0.30350  0.65750  Biso   1.000  H
  H531     1.0000 0.35770  0.69650  0.34250  Biso   1.000  H
  H532     1.0000 0.64230  0.30350  0.34250  Biso   1.000  H
  H533     1.0000 0.65750  0.14230  0.19650  Biso   1.000  H
  H534     1.0000 0.65750  0.85770  0.80350  Biso   1.000  H
  H535     1.0000 0.34250  0.85770  0.19650  Biso   1.000  H
  H536     1.0000 0.34250  0.14230  0.80350  Biso   1.000  H
  H537     1.0000 0.19650  0.15750  0.64230  Biso   1.000  H
  H538     1.0000 0.80350  0.15750  0.35770  Biso   1.000  H
  H539     1.0000 0.19650  0.84250  0.35770  Biso   1.000  H
  H540     1.0000 0.80350  0.84250  0.64230  Biso   1.000  H
  H541     1.0000 0.19650  0.14230  0.34250  Biso   1.000  H
  H542     1.0000 0.80350  0.85770  0.34250  Biso   1.000  H
  H543     1.0000 0.19650  0.85770  0.65750  Biso   1.000  H
  H544     1.0000 0.80350  0.14230  0.65750  Biso   1.000  H
  H545     1.0000 0.64230  0.15750  0.80350  Biso   1.000  H
  H546     1.0000 0.35770  0.15750  0.19650  Biso   1.000  H
  H547     1.0000 0.35770  0.84250  0.80350  Biso   1.000  H
  H548     1.0000 0.64230  0.84250  0.19650  Biso   1.000  H
  H549     1.0000 0.65750  0.69650  0.35770  Biso   1.000  H
  H550     1.0000 0.65750  0.30350  0.64230  Biso   1.000  H
  H551     1.0000 0.34250  0.69650  0.64230  Biso   1.000  H
  H552     1.0000 0.34250  0.30350  0.35770  Biso   1.000  H
  H553     1.0000 0.64230  0.19650  0.15750  Biso   1.000  H
  H554     1.0000 0.35770  0.80350  0.15750  Biso   1.000  H
  H555     1.0000 0.35770  0.19650  0.84250  Biso   1.000  H
  H556     1.0000 0.64230  0.80350  0.84250  Biso   1.000  H
  H557     1.0000 0.65750  0.64230  0.69650  Biso   1.000  H
  H558     1.0000 0.65750  0.35770  0.30350  Biso   1.000  H
  H559     1.0000 0.34250  0.35770  0.69650  Biso   1.000  H
  H560     1.0000 0.34250  0.64230  0.30350  Biso   1.000  H
  H561     1.0000 0.19650  0.65750  0.14230  Biso   1.000  H
  H562     1.0000 0.80350  0.65750  0.85770  Biso   1.000  H
  H563     1.0000 0.19650  0.34250  0.85770  Biso   1.000  H
  H564     1.0000 0.80350  0.34250  0.14230  Biso   1.000  H
  H565     1.0000 0.19650  0.64230  0.84250  Biso   1.000  H
  H566     1.0000 0.80350  0.35770  0.84250  Biso   1.000  H
  H567     1.0000 0.19650  0.35770  0.15750  Biso   1.000  H
  H568     1.0000 0.80350  0.64230  0.15750  Biso   1.000  H
  H569     1.0000 0.64230  0.65750  0.30350  Biso   1.000  H
  H570     1.0000 0.35770  0.65750  0.69650  Biso   1.000  H
  H571     1.0000 0.35770  0.34250  0.30350  Biso   1.000  H
  H572     1.0000 0.64230  0.34250  0.69650  Biso   1.000  H
  H573     1.0000 0.65750  0.19650  0.85770  Biso   1.000  H
  H574     1.0000 0.65750  0.80350  0.14230  Biso   1.000  H
  H575     1.0000 0.34250  0.19650  0.14230  Biso   1.000  H
  H576     1.0000 0.34250  0.80350  0.85770  Biso   1.000  H
  C961     1.0000 0.13540  0.66488  0.16495  Biso   1.000  C
  C962     1.0000 0.86460  0.33512  0.16495  Biso   1.000  C
  C963     1.0000 0.86460  0.66488  0.83505  Biso   1.000  C
  C964     1.0000 0.13540  0.33512  0.83505  Biso   1.000  C
  C965     1.0000 0.16495  0.13540  0.66488  Biso   1.000  C
  C966     1.0000 0.16495  0.86460  0.33512  Biso   1.000  C
  C967     1.0000 0.83505  0.86460  0.66488  Biso   1.000  C
  C968     1.0000 0.83505  0.13540  0.33512  Biso   1.000  C
  C969     1.0000 0.66488  0.16495  0.13540  Biso   1.000  C
  C970     1.0000 0.33512  0.16495  0.86460  Biso   1.000  C
  C971     1.0000 0.66488  0.83505  0.86460  Biso   1.000  C
  C972     1.0000 0.33512  0.83505  0.13540  Biso   1.000  C
  C973     1.0000 0.66488  0.13540  0.83505  Biso   1.000  C
  C974     1.0000 0.33512  0.86460  0.83505  Biso   1.000  C
  C975     1.0000 0.66488  0.86460  0.16495  Biso   1.000  C
  C976     1.0000 0.33512  0.13540  0.16495  Biso   1.000  C
  C977     1.0000 0.13540  0.16495  0.33512  Biso   1.000  C
  C978     1.0000 0.86460  0.16495  0.66488  Biso   1.000  C
  C979     1.0000 0.86460  0.83505  0.33512  Biso   1.000  C
  C980     1.0000 0.13540  0.83505  0.66488  Biso   1.000  C
  C981     1.0000 0.16495  0.66488  0.86460  Biso   1.000  C
  C982     1.0000 0.16495  0.33512  0.13540  Biso   1.000  C
  C983     1.0000 0.83505  0.66488  0.13540  Biso   1.000  C
  C984     1.0000 0.83505  0.33512  0.86460  Biso   1.000  C
  C985     1.0000 0.13540  0.16488  0.66495  Biso   1.000  C
  C986     1.0000 0.86460  0.83512  0.66495  Biso   1.000  C
  C987     1.0000 0.86460  0.16488  0.33505  Biso   1.000  C
  C988     1.0000 0.13540  0.83512  0.33505  Biso   1.000  C
  C989     1.0000 0.16495  0.63540  0.16488  Biso   1.000  C
  C990     1.0000 0.16495  0.36460  0.83512  Biso   1.000  C
  C991     1.0000 0.83505  0.36460  0.16488  Biso   1.000  C
  C992     1.0000 0.83505  0.63540  0.83512  Biso   1.000  C
  C993     1.0000 0.66488  0.66495  0.63540  Biso   1.000  C
  C994     1.0000 0.33512  0.66495  0.36460  Biso   1.000  C
  C995     1.0000 0.66488  0.33505  0.36460  Biso   1.000  C
  C996     1.0000 0.33512  0.33505  0.63540  Biso   1.000  C
  C997     1.0000 0.66488  0.63540  0.33505  Biso   1.000  C
  C998     1.0000 0.33512  0.36460  0.33505  Biso   1.000  C
  C999     1.0000 0.66488  0.36460  0.66495  Biso   1.000  C
  C1000    1.0000 0.33512  0.63540  0.66495  Biso   1.000  C
  C1001    1.0000 0.13540  0.66495  0.83512  Biso   1.000  C
  C1002    1.0000 0.86460  0.66495  0.16488  Biso   1.000  C
  C1003    1.0000 0.86460  0.33505  0.83512  Biso   1.000  C
  C1004    1.0000 0.13540  0.33505  0.16488  Biso   1.000  C
  C1005    1.0000 0.16495  0.16488  0.36460  Biso   1.000  C
  C1006    1.0000 0.16495  0.83512  0.63540  Biso   1.000  C
  C1007    1.0000 0.83505  0.16488  0.63540  Biso   1.000  C
  C1008    1.0000 0.83505  0.83512  0.36460  Biso   1.000  C
  C1009    1.0000 0.63540  0.66488  0.66495  Biso   1.000  C
  C1010    1.0000 0.36460  0.33512  0.66495  Biso   1.000  C
  C1011    1.0000 0.36460  0.66488  0.33505  Biso   1.000  C
  C1012    1.0000 0.63540  0.33512  0.33505  Biso   1.000  C
  C1013    1.0000 0.66495  0.13540  0.16488  Biso   1.000  C
  C1014    1.0000 0.66495  0.86460  0.83512  Biso   1.000  C
  C1015    1.0000 0.33505  0.86460  0.16488  Biso   1.000  C
  C1016    1.0000 0.33505  0.13540  0.83512  Biso   1.000  C
  C1017    1.0000 0.16488  0.16495  0.63540  Biso   1.000  C
  C1018    1.0000 0.83512  0.16495  0.36460  Biso   1.000  C
  C1019    1.0000 0.16488  0.83505  0.36460  Biso   1.000  C
  C1020    1.0000 0.83512  0.83505  0.63540  Biso   1.000  C
  C1021    1.0000 0.16488  0.13540  0.33505  Biso   1.000  C
  C1022    1.0000 0.83512  0.86460  0.33505  Biso   1.000  C
  C1023    1.0000 0.16488  0.86460  0.66495  Biso   1.000  C
  C1024    1.0000 0.83512  0.13540  0.66495  Biso   1.000  C
  C1025    1.0000 0.63540  0.16495  0.83512  Biso   1.000  C
  C1026    1.0000 0.36460  0.16495  0.16488  Biso   1.000  C
  C1027    1.0000 0.36460  0.83505  0.83512  Biso   1.000  C
  C1028    1.0000 0.63540  0.83505  0.16488  Biso   1.000  C
  C1029    1.0000 0.66495  0.66488  0.36460  Biso   1.000  C
  C1030    1.0000 0.66495  0.33512  0.63540  Biso   1.000  C
  C1031    1.0000 0.33505  0.66488  0.63540  Biso   1.000  C
  C1032    1.0000 0.33505  0.33512  0.36460  Biso   1.000  C
  C1033    1.0000 0.63540  0.16488  0.16495  Biso   1.000  C
  C1034    1.0000 0.36460  0.83512  0.16495  Biso   1.000  C
  C1035    1.0000 0.36460  0.16488  0.83505  Biso   1.000  C
  C1036    1.0000 0.63540  0.83512  0.83505  Biso   1.000  C
  C1037    1.0000 0.66495  0.63540  0.66488  Biso   1.000  C
  C1038    1.0000 0.66495  0.36460  0.33512  Biso   1.000  C
  C1039    1.0000 0.33505  0.36460  0.66488  Biso   1.000  C
  C1040    1.0000 0.33505  0.63540  0.33512  Biso   1.000  C
  C1041    1.0000 0.16488  0.66495  0.13540  Biso   1.000  C
  C1042    1.0000 0.83512  0.66495  0.86460  Biso   1.000  C
  C1043    1.0000 0.16488  0.33505  0.86460  Biso   1.000  C
  C1044    1.0000 0.83512  0.33505  0.13540  Biso   1.000  C
  C1045    1.0000 0.16488  0.63540  0.83505  Biso   1.000  C
  C1046    1.0000 0.83512  0.36460  0.83505  Biso   1.000  C
  C1047    1.0000 0.16488  0.36460  0.16495  Biso   1.000  C
  C1048    1.0000 0.83512  0.63540  0.16495  Biso   1.000  C
  C1049    1.0000 0.63540  0.66495  0.33512  Biso   1.000  C
  C1050    1.0000 0.36460  0.66495  0.66488  Biso   1.000  C
  C1051    1.0000 0.36460  0.33505  0.33512  Biso   1.000  C
  C1052    1.0000 0.63540  0.33505  0.66488  Biso   1.000  C
  C1053    1.0000 0.66495  0.16488  0.86460  Biso   1.000  C
  C1054    1.0000 0.66495  0.83512  0.13540  Biso   1.000  C
  C1055    1.0000 0.33505  0.16488  0.13540  Biso   1.000  C
  C1056    1.0000 0.33505  0.83512  0.86460  Biso   1.000  C
  C1057    1.0000 0.12083  0.65148  0.17630  Biso   1.000  C
  C1058    1.0000 0.87917  0.34852  0.17630  Biso   1.000  C
  C1059    1.0000 0.87917  0.65148  0.82370  Biso   1.000  C
  C1060    1.0000 0.12083  0.34852  0.82370  Biso   1.000  C
  C1061    1.0000 0.17630  0.12083  0.65148  Biso   1.000  C
  C1062    1.0000 0.17630  0.87917  0.34852  Biso   1.000  C
  C1063    1.0000 0.82370  0.87917  0.65148  Biso   1.000  C
  C1064    1.0000 0.82370  0.12083  0.34852  Biso   1.000  C
  C1065    1.0000 0.65148  0.17630  0.12083  Biso   1.000  C
  C1066    1.0000 0.34852  0.17630  0.87917  Biso   1.000  C
  C1067    1.0000 0.65148  0.82370  0.87917  Biso   1.000  C
  C1068    1.0000 0.34852  0.82370  0.12083  Biso   1.000  C
  C1069    1.0000 0.65148  0.12083  0.82370  Biso   1.000  C
  C1070    1.0000 0.34852  0.87917  0.82370  Biso   1.000  C
  C1071    1.0000 0.65148  0.87917  0.17630  Biso   1.000  C
  C1072    1.0000 0.34852  0.12083  0.17630  Biso   1.000  C
  C1073    1.0000 0.12083  0.17630  0.34852  Biso   1.000  C
  C1074    1.0000 0.87917  0.17630  0.65148  Biso   1.000  C
  C1075    1.0000 0.87917  0.82370  0.34852  Biso   1.000  C
  C1076    1.0000 0.12083  0.82370  0.65148  Biso   1.000  C
  C1077    1.0000 0.17630  0.65148  0.87917  Biso   1.000  C
  C1078    1.0000 0.17630  0.34852  0.12083  Biso   1.000  C
  C1079    1.0000 0.82370  0.65148  0.12083  Biso   1.000  C
  C1080    1.0000 0.82370  0.34852  0.87917  Biso   1.000  C
  C1081    1.0000 0.12083  0.15148  0.67630  Biso   1.000  C
  C1082    1.0000 0.87917  0.84852  0.67630  Biso   1.000  C
  C1083    1.0000 0.87917  0.15148  0.32370  Biso   1.000  C
  C1084    1.0000 0.12083  0.84852  0.32370  Biso   1.000  C
  C1085    1.0000 0.17630  0.62083  0.15148  Biso   1.000  C
  C1086    1.0000 0.17630  0.37917  0.84852  Biso   1.000  C
  C1087    1.0000 0.82370  0.37917  0.15148  Biso   1.000  C
  C1088    1.0000 0.82370  0.62083  0.84852  Biso   1.000  C
  C1089    1.0000 0.65148  0.67630  0.62083  Biso   1.000  C
  C1090    1.0000 0.34852  0.67630  0.37917  Biso   1.000  C
  C1091    1.0000 0.65148  0.32370  0.37917  Biso   1.000  C
  C1092    1.0000 0.34852  0.32370  0.62083  Biso   1.000  C
  C1093    1.0000 0.65148  0.62083  0.32370  Biso   1.000  C
  C1094    1.0000 0.34852  0.37917  0.32370  Biso   1.000  C
  C1095    1.0000 0.65148  0.37917  0.67630  Biso   1.000  C
  C1096    1.0000 0.34852  0.62083  0.67630  Biso   1.000  C
  C1097    1.0000 0.12083  0.67630  0.84852  Biso   1.000  C
  C1098    1.0000 0.87917  0.67630  0.15148  Biso   1.000  C
  C1099    1.0000 0.87917  0.32370  0.84852  Biso   1.000  C
  C1100    1.0000 0.12083  0.32370  0.15148  Biso   1.000  C
  C1101    1.0000 0.17630  0.15148  0.37917  Biso   1.000  C
  C1102    1.0000 0.17630  0.84852  0.62083  Biso   1.000  C
  C1103    1.0000 0.82370  0.15148  0.62083  Biso   1.000  C
  C1104    1.0000 0.82370  0.84852  0.37917  Biso   1.000  C
  C1105    1.0000 0.62083  0.65148  0.67630  Biso   1.000  C
  C1106    1.0000 0.37917  0.34852  0.67630  Biso   1.000  C
  C1107    1.0000 0.37917  0.65148  0.32370  Biso   1.000  C
  C1108    1.0000 0.62083  0.34852  0.32370  Biso   1.000  C
  C1109    1.0000 0.67630  0.12083  0.15148  Biso   1.000  C
  C1110    1.0000 0.67630  0.87917  0.84852  Biso   1.000  C
  C1111    1.0000 0.32370  0.87917  0.15148  Biso   1.000  C
  C1112    1.0000 0.32370  0.12083  0.84852  Biso   1.000  C
  C1113    1.0000 0.15148  0.17630  0.62083  Biso   1.000  C
  C1114    1.0000 0.84852  0.17630  0.37917  Biso   1.000  C
  C1115    1.0000 0.15148  0.82370  0.37917  Biso   1.000  C
  C1116    1.0000 0.84852  0.82370  0.62083  Biso   1.000  C
  C1117    1.0000 0.15148  0.12083  0.32370  Biso   1.000  C
  C1118    1.0000 0.84852  0.87917  0.32370  Biso   1.000  C
  C1119    1.0000 0.15148  0.87917  0.67630  Biso   1.000  C
  C1120    1.0000 0.84852  0.12083  0.67630  Biso   1.000  C
  C1121    1.0000 0.62083  0.17630  0.84852  Biso   1.000  C
  C1122    1.0000 0.37917  0.17630  0.15148  Biso   1.000  C
  C1123    1.0000 0.37917  0.82370  0.84852  Biso   1.000  C
  C1124    1.0000 0.62083  0.82370  0.15148  Biso   1.000  C
  C1125    1.0000 0.67630  0.65148  0.37917  Biso   1.000  C
  C1126    1.0000 0.67630  0.34852  0.62083  Biso   1.000  C
  C1127    1.0000 0.32370  0.65148  0.62083  Biso   1.000  C
  C1128    1.0000 0.32370  0.34852  0.37917  Biso   1.000  C
  C1129    1.0000 0.62083  0.15148  0.17630  Biso   1.000  C
  C1130    1.0000 0.37917  0.84852  0.17630  Biso   1.000  C
  C1131    1.0000 0.37917  0.15148  0.82370  Biso   1.000  C
  C1132    1.0000 0.62083  0.84852  0.82370  Biso   1.000  C
  C1133    1.0000 0.67630  0.62083  0.65148  Biso   1.000  C
  C1134    1.0000 0.67630  0.37917  0.34852  Biso   1.000  C
  C1135    1.0000 0.32370  0.37917  0.65148  Biso   1.000  C
  C1136    1.0000 0.32370  0.62083  0.34852  Biso   1.000  C
  C1137    1.0000 0.15148  0.67630  0.12083  Biso   1.000  C
  C1138    1.0000 0.84852  0.67630  0.87917  Biso   1.000  C
  C1139    1.0000 0.15148  0.32370  0.87917  Biso   1.000  C
  C1140    1.0000 0.84852  0.32370  0.12083  Biso   1.000  C
  C1141    1.0000 0.15148  0.62083  0.82370  Biso   1.000  C
  C1142    1.0000 0.84852  0.37917  0.82370  Biso   1.000  C
  C1143    1.0000 0.15148  0.37917  0.17630  Biso   1.000  C
  C1144    1.0000 0.84852  0.62083  0.17630  Biso   1.000  C
  C1145    1.0000 0.62083  0.67630  0.34852  Biso   1.000  C
  C1146    1.0000 0.37917  0.67630  0.65148  Biso   1.000  C
  C1147    1.0000 0.37917  0.32370  0.34852  Biso   1.000  C
  C1148    1.0000 0.62083  0.32370  0.65148  Biso   1.000  C
  C1149    1.0000 0.67630  0.15148  0.87917  Biso   1.000  C
  C1150    1.0000 0.67630  0.84852  0.12083  Biso   1.000  C
  C1151    1.0000 0.32370  0.15148  0.12083  Biso   1.000  C
  C1152    1.0000 0.32370  0.84852  0.87917  Biso   1.000  C
  H577     1.0000 0.12270  0.63630  0.17620  Biso   1.000  H
  H578     1.0000 0.87730  0.36370  0.17620  Biso   1.000  H
  H579     1.0000 0.87730  0.63630  0.82380  Biso   1.000  H
  H580     1.0000 0.12270  0.36370  0.82380  Biso   1.000  H
  H581     1.0000 0.17620  0.12270  0.63630  Biso   1.000  H
  H582     1.0000 0.17620  0.87730  0.36370  Biso   1.000  H
  H583     1.0000 0.82380  0.87730  0.63630  Biso   1.000  H
  H584     1.0000 0.82380  0.12270  0.36370  Biso   1.000  H
  H585     1.0000 0.63630  0.17620  0.12270  Biso   1.000  H
  H586     1.0000 0.36370  0.17620  0.87730  Biso   1.000  H
  H587     1.0000 0.63630  0.82380  0.87730  Biso   1.000  H
  H588     1.0000 0.36370  0.82380  0.12270  Biso   1.000  H
  H589     1.0000 0.63630  0.12270  0.82380  Biso   1.000  H
  H590     1.0000 0.36370  0.87730  0.82380  Biso   1.000  H
  H591     1.0000 0.63630  0.87730  0.17620  Biso   1.000  H
  H592     1.0000 0.36370  0.12270  0.17620  Biso   1.000  H
  H593     1.0000 0.12270  0.17620  0.36370  Biso   1.000  H
  H594     1.0000 0.87730  0.17620  0.63630  Biso   1.000  H
  H595     1.0000 0.87730  0.82380  0.36370  Biso   1.000  H
  H596     1.0000 0.12270  0.82380  0.63630  Biso   1.000  H
  H597     1.0000 0.17620  0.63630  0.87730  Biso   1.000  H
  H598     1.0000 0.17620  0.36370  0.12270  Biso   1.000  H
  H599     1.0000 0.82380  0.63630  0.12270  Biso   1.000  H
  H600     1.0000 0.82380  0.36370  0.87730  Biso   1.000  H
  H601     1.0000 0.12270  0.13630  0.67620  Biso   1.000  H
  H602     1.0000 0.87730  0.86370  0.67620  Biso   1.000  H
  H603     1.0000 0.87730  0.13630  0.32380  Biso   1.000  H
  H604     1.0000 0.12270  0.86370  0.32380  Biso   1.000  H
  H605     1.0000 0.17620  0.62270  0.13630  Biso   1.000  H
  H606     1.0000 0.17620  0.37730  0.86370  Biso   1.000  H
  H607     1.0000 0.82380  0.37730  0.13630  Biso   1.000  H
  H608     1.0000 0.82380  0.62270  0.86370  Biso   1.000  H
  H609     1.0000 0.63630  0.67620  0.62270  Biso   1.000  H
  H610     1.0000 0.36370  0.67620  0.37730  Biso   1.000  H
  H611     1.0000 0.63630  0.32380  0.37730  Biso   1.000  H
  H612     1.0000 0.36370  0.32380  0.62270  Biso   1.000  H
  H613     1.0000 0.63630  0.62270  0.32380  Biso   1.000  H
  H614     1.0000 0.36370  0.37730  0.32380  Biso   1.000  H
  H615     1.0000 0.63630  0.37730  0.67620  Biso   1.000  H
  H616     1.0000 0.36370  0.62270  0.67620  Biso   1.000  H
  H617     1.0000 0.12270  0.67620  0.86370  Biso   1.000  H
  H618     1.0000 0.87730  0.67620  0.13630  Biso   1.000  H
  H619     1.0000 0.87730  0.32380  0.86370  Biso   1.000  H
  H620     1.0000 0.12270  0.32380  0.13630  Biso   1.000  H
  H621     1.0000 0.17620  0.13630  0.37730  Biso   1.000  H
  H622     1.0000 0.17620  0.86370  0.62270  Biso   1.000  H
  H623     1.0000 0.82380  0.13630  0.62270  Biso   1.000  H
  H624     1.0000 0.82380  0.86370  0.37730  Biso   1.000  H
  H625     1.0000 0.62270  0.63630  0.67620  Biso   1.000  H
  H626     1.0000 0.37730  0.36370  0.67620  Biso   1.000  H
  H627     1.0000 0.37730  0.63630  0.32380  Biso   1.000  H
  H628     1.0000 0.62270  0.36370  0.32380  Biso   1.000  H
  H629     1.0000 0.67620  0.12270  0.13630  Biso   1.000  H
  H630     1.0000 0.67620  0.87730  0.86370  Biso   1.000  H
  H631     1.0000 0.32380  0.87730  0.13630  Biso   1.000  H
  H632     1.0000 0.32380  0.12270  0.86370  Biso   1.000  H
  H633     1.0000 0.13630  0.17620  0.62270  Biso   1.000  H
  H634     1.0000 0.86370  0.17620  0.37730  Biso   1.000  H
  H635     1.0000 0.13630  0.82380  0.37730  Biso   1.000  H
  H636     1.0000 0.86370  0.82380  0.62270  Biso   1.000  H
  H637     1.0000 0.13630  0.12270  0.32380  Biso   1.000  H
  H638     1.0000 0.86370  0.87730  0.32380  Biso   1.000  H
  H639     1.0000 0.13630  0.87730  0.67620  Biso   1.000  H
  H640     1.0000 0.86370  0.12270  0.67620  Biso   1.000  H
  H641     1.0000 0.62270  0.17620  0.86370  Biso   1.000  H
  H642     1.0000 0.37730  0.17620  0.13630  Biso   1.000  H
  H643     1.0000 0.37730  0.82380  0.86370  Biso   1.000  H
  H644     1.0000 0.62270  0.82380  0.13630  Biso   1.000  H
  H645     1.0000 0.67620  0.63630  0.37730  Biso   1.000  H
  H646     1.0000 0.67620  0.36370  0.62270  Biso   1.000  H
  H647     1.0000 0.32380  0.63630  0.62270  Biso   1.000  H
  H648     1.0000 0.32380  0.36370  0.37730  Biso   1.000  H
  H649     1.0000 0.62270  0.13630  0.17620  Biso   1.000  H
  H650     1.0000 0.37730  0.86370  0.17620  Biso   1.000  H
  H651     1.0000 0.37730  0.13630  0.82380  Biso   1.000  H
  H652     1.0000 0.62270  0.86370  0.82380  Biso   1.000  H
  H653     1.0000 0.67620  0.62270  0.63630  Biso   1.000  H
  H654     1.0000 0.67620  0.37730  0.36370  Biso   1.000  H
  H655     1.0000 0.32380  0.37730  0.63630  Biso   1.000  H
  H656     1.0000 0.32380  0.62270  0.36370  Biso   1.000  H
  H657     1.0000 0.13630  0.67620  0.12270  Biso   1.000  H
  H658     1.0000 0.86370  0.67620  0.87730  Biso   1.000  H
  H659     1.0000 0.13630  0.32380  0.87730  Biso   1.000  H
  H660     1.0000 0.86370  0.32380  0.12270  Biso   1.000  H
  H661     1.0000 0.13630  0.62270  0.82380  Biso   1.000  H
  H662     1.0000 0.86370  0.37730  0.82380  Biso   1.000  H
  H663     1.0000 0.13630  0.37730  0.17620  Biso   1.000  H
  H664     1.0000 0.86370  0.62270  0.17620  Biso   1.000  H
  H665     1.0000 0.62270  0.67620  0.36370  Biso   1.000  H
  H666     1.0000 0.37730  0.67620  0.63630  Biso   1.000  H
  H667     1.0000 0.37730  0.32380  0.36370  Biso   1.000  H
  H668     1.0000 0.62270  0.32380  0.63630  Biso   1.000  H
  H669     1.0000 0.67620  0.13630  0.87730  Biso   1.000  H
  H670     1.0000 0.67620  0.86370  0.12270  Biso   1.000  H
  H671     1.0000 0.32380  0.13630  0.12270  Biso   1.000  H
  H672     1.0000 0.32380  0.86370  0.87730  Biso   1.000  H
  C1153    1.0000 0.10341  0.66071  0.18779  Biso   1.000  C
  C1154    1.0000 0.89659  0.33929  0.18779  Biso   1.000  C
  C1155    1.0000 0.89659  0.66071  0.81221  Biso   1.000  C
  C1156    1.0000 0.10341  0.33929  0.81221  Biso   1.000  C
  C1157    1.0000 0.18779  0.10341  0.66071  Biso   1.000  C
  C1158    1.0000 0.18779  0.89659  0.33929  Biso   1.000  C
  C1159    1.0000 0.81221  0.89659  0.66071  Biso   1.000  C
  C1160    1.0000 0.81221  0.10341  0.33929  Biso   1.000  C
  C1161    1.0000 0.66071  0.18779  0.10341  Biso   1.000  C
  C1162    1.0000 0.33929  0.18779  0.89659  Biso   1.000  C
  C1163    1.0000 0.66071  0.81221  0.89659  Biso   1.000  C
  C1164    1.0000 0.33929  0.81221  0.10341  Biso   1.000  C
  C1165    1.0000 0.66071  0.10341  0.81221  Biso   1.000  C
  C1166    1.0000 0.33929  0.89659  0.81221  Biso   1.000  C
  C1167    1.0000 0.66071  0.89659  0.18779  Biso   1.000  C
  C1168    1.0000 0.33929  0.10341  0.18779  Biso   1.000  C
  C1169    1.0000 0.10341  0.18779  0.33929  Biso   1.000  C
  C1170    1.0000 0.89659  0.18779  0.66071  Biso   1.000  C
  C1171    1.0000 0.89659  0.81221  0.33929  Biso   1.000  C
  C1172    1.0000 0.10341  0.81221  0.66071  Biso   1.000  C
  C1173    1.0000 0.18779  0.66071  0.89659  Biso   1.000  C
  C1174    1.0000 0.18779  0.33929  0.10341  Biso   1.000  C
  C1175    1.0000 0.81221  0.66071  0.10341  Biso   1.000  C
  C1176    1.0000 0.81221  0.33929  0.89659  Biso   1.000  C
  C1177    1.0000 0.10341  0.16071  0.68779  Biso   1.000  C
  C1178    1.0000 0.89659  0.83929  0.68779  Biso   1.000  C
  C1179    1.0000 0.89659  0.16071  0.31221  Biso   1.000  C
  C1180    1.0000 0.10341  0.83929  0.31221  Biso   1.000  C
  C1181    1.0000 0.18779  0.60341  0.16071  Biso   1.000  C
  C1182    1.0000 0.18779  0.39659  0.83929  Biso   1.000  C
  C1183    1.0000 0.81221  0.39659  0.16071  Biso   1.000  C
  C1184    1.0000 0.81221  0.60341  0.83929  Biso   1.000  C
  C1185    1.0000 0.66071  0.68779  0.60341  Biso   1.000  C
  C1186    1.0000 0.33929  0.68779  0.39659  Biso   1.000  C
  C1187    1.0000 0.66071  0.31221  0.39659  Biso   1.000  C
  C1188    1.0000 0.33929  0.31221  0.60341  Biso   1.000  C
  C1189    1.0000 0.66071  0.60341  0.31221  Biso   1.000  C
  C1190    1.0000 0.33929  0.39659  0.31221  Biso   1.000  C
  C1191    1.0000 0.66071  0.39659  0.68779  Biso   1.000  C
  C1192    1.0000 0.33929  0.60341  0.68779  Biso   1.000  C
  C1193    1.0000 0.10341  0.68779  0.83929  Biso   1.000  C
  C1194    1.0000 0.89659  0.68779  0.16071  Biso   1.000  C
  C1195    1.0000 0.89659  0.31221  0.83929  Biso   1.000  C
  C1196    1.0000 0.10341  0.31221  0.16071  Biso   1.000  C
  C1197    1.0000 0.18779  0.16071  0.39659  Biso   1.000  C
  C1198    1.0000 0.18779  0.83929  0.60341  Biso   1.000  C
  C1199    1.0000 0.81221  0.16071  0.60341  Biso   1.000  C
  C1200    1.0000 0.81221  0.83929  0.39659  Biso   1.000  C
  C1201    1.0000 0.60341  0.66071  0.68779  Biso   1.000  C
  C1202    1.0000 0.39659  0.33929  0.68779  Biso   1.000  C
  C1203    1.0000 0.39659  0.66071  0.31221  Biso   1.000  C
  C1204    1.0000 0.60341  0.33929  0.31221  Biso   1.000  C
  C1205    1.0000 0.68779  0.10341  0.16071  Biso   1.000  C
  C1206    1.0000 0.68779  0.89659  0.83929  Biso   1.000  C
  C1207    1.0000 0.31221  0.89659  0.16071  Biso   1.000  C
  C1208    1.0000 0.31221  0.10341  0.83929  Biso   1.000  C
  C1209    1.0000 0.16071  0.18779  0.60341  Biso   1.000  C
  C1210    1.0000 0.83929  0.18779  0.39659  Biso   1.000  C
  C1211    1.0000 0.16071  0.81221  0.39659  Biso   1.000  C
  C1212    1.0000 0.83929  0.81221  0.60341  Biso   1.000  C
  C1213    1.0000 0.16071  0.10341  0.31221  Biso   1.000  C
  C1214    1.0000 0.83929  0.89659  0.31221  Biso   1.000  C
  C1215    1.0000 0.16071  0.89659  0.68779  Biso   1.000  C
  C1216    1.0000 0.83929  0.10341  0.68779  Biso   1.000  C
  C1217    1.0000 0.60341  0.18779  0.83929  Biso   1.000  C
  C1218    1.0000 0.39659  0.18779  0.16071  Biso   1.000  C
  C1219    1.0000 0.39659  0.81221  0.83929  Biso   1.000  C
  C1220    1.0000 0.60341  0.81221  0.16071  Biso   1.000  C
  C1221    1.0000 0.68779  0.66071  0.39659  Biso   1.000  C
  C1222    1.0000 0.68779  0.33929  0.60341  Biso   1.000  C
  C1223    1.0000 0.31221  0.66071  0.60341  Biso   1.000  C
  C1224    1.0000 0.31221  0.33929  0.39659  Biso   1.000  C
  C1225    1.0000 0.60341  0.16071  0.18779  Biso   1.000  C
  C1226    1.0000 0.39659  0.83929  0.18779  Biso   1.000  C
  C1227    1.0000 0.39659  0.16071  0.81221  Biso   1.000  C
  C1228    1.0000 0.60341  0.83929  0.81221  Biso   1.000  C
  C1229    1.0000 0.68779  0.60341  0.66071  Biso   1.000  C
  C1230    1.0000 0.68779  0.39659  0.33929  Biso   1.000  C
  C1231    1.0000 0.31221  0.39659  0.66071  Biso   1.000  C
  C1232    1.0000 0.31221  0.60341  0.33929  Biso   1.000  C
  C1233    1.0000 0.16071  0.68779  0.10341  Biso   1.000  C
  C1234    1.0000 0.83929  0.68779  0.89659  Biso   1.000  C
  C1235    1.0000 0.16071  0.31221  0.89659  Biso   1.000  C
  C1236    1.0000 0.83929  0.31221  0.10341  Biso   1.000  C
  C1237    1.0000 0.16071  0.60341  0.81221  Biso   1.000  C
  C1238    1.0000 0.83929  0.39659  0.81221  Biso   1.000  C
  C1239    1.0000 0.16071  0.39659  0.18779  Biso   1.000  C
  C1240    1.0000 0.83929  0.60341  0.18779  Biso   1.000  C
  C1241    1.0000 0.60341  0.68779  0.33929  Biso   1.000  C
  C1242    1.0000 0.39659  0.68779  0.66071  Biso   1.000  C
  C1243    1.0000 0.39659  0.31221  0.33929  Biso   1.000  C
  C1244    1.0000 0.60341  0.31221  0.66071  Biso   1.000  C
  C1245    1.0000 0.68779  0.16071  0.89659  Biso   1.000  C
  C1246    1.0000 0.68779  0.83929  0.10341  Biso   1.000  C
  C1247    1.0000 0.31221  0.16071  0.10341  Biso   1.000  C
  C1248    1.0000 0.31221  0.83929  0.89659  Biso   1.000  C
  H673     1.0000 0.09370  0.65170  0.19540  Biso   1.000  H
  H674     1.0000 0.90630  0.34830  0.19540  Biso   1.000  H
  H675     1.0000 0.90630  0.65170  0.80460  Biso   1.000  H
  H676     1.0000 0.09370  0.34830  0.80460  Biso   1.000  H
  H677     1.0000 0.19540  0.09370  0.65170  Biso   1.000  H
  H678     1.0000 0.19540  0.90630  0.34830  Biso   1.000  H
  H679     1.0000 0.80460  0.90630  0.65170  Biso   1.000  H
  H680     1.0000 0.80460  0.09370  0.34830  Biso   1.000  H
  H681     1.0000 0.65170  0.19540  0.09370  Biso   1.000  H
  H682     1.0000 0.34830  0.19540  0.90630  Biso   1.000  H
  H683     1.0000 0.65170  0.80460  0.90630  Biso   1.000  H
  H684     1.0000 0.34830  0.80460  0.09370  Biso   1.000  H
  H685     1.0000 0.65170  0.09370  0.80460  Biso   1.000  H
  H686     1.0000 0.34830  0.90630  0.80460  Biso   1.000  H
  H687     1.0000 0.65170  0.90630  0.19540  Biso   1.000  H
  H688     1.0000 0.34830  0.09370  0.19540  Biso   1.000  H
  H689     1.0000 0.09370  0.19540  0.34830  Biso   1.000  H
  H690     1.0000 0.90630  0.19540  0.65170  Biso   1.000  H
  H691     1.0000 0.90630  0.80460  0.34830  Biso   1.000  H
  H692     1.0000 0.09370  0.80460  0.65170  Biso   1.000  H
  H693     1.0000 0.19540  0.65170  0.90630  Biso   1.000  H
  H694     1.0000 0.19540  0.34830  0.09370  Biso   1.000  H
  H695     1.0000 0.80460  0.65170  0.09370  Biso   1.000  H
  H696     1.0000 0.80460  0.34830  0.90630  Biso   1.000  H
  H697     1.0000 0.09370  0.15170  0.69540  Biso   1.000  H
  H698     1.0000 0.90630  0.84830  0.69540  Biso   1.000  H
  H699     1.0000 0.90630  0.15170  0.30460  Biso   1.000  H
  H700     1.0000 0.09370  0.84830  0.30460  Biso   1.000  H
  H701     1.0000 0.19540  0.59370  0.15170  Biso   1.000  H
  H702     1.0000 0.19540  0.40630  0.84830  Biso   1.000  H
  H703     1.0000 0.80460  0.40630  0.15170  Biso   1.000  H
  H704     1.0000 0.80460  0.59370  0.84830  Biso   1.000  H
  H705     1.0000 0.65170  0.69540  0.59370  Biso   1.000  H
  H706     1.0000 0.34830  0.69540  0.40630  Biso   1.000  H
  H707     1.0000 0.65170  0.30460  0.40630  Biso   1.000  H
  H708     1.0000 0.34830  0.30460  0.59370  Biso   1.000  H
  H709     1.0000 0.65170  0.59370  0.30460  Biso   1.000  H
  H710     1.0000 0.34830  0.40630  0.30460  Biso   1.000  H
  H711     1.0000 0.65170  0.40630  0.69540  Biso   1.000  H
  H712     1.0000 0.34830  0.59370  0.69540  Biso   1.000  H
  H713     1.0000 0.09370  0.69540  0.84830  Biso   1.000  H
  H714     1.0000 0.90630  0.69540  0.15170  Biso   1.000  H
  H715     1.0000 0.90630  0.30460  0.84830  Biso   1.000  H
  H716     1.0000 0.09370  0.30460  0.15170  Biso   1.000  H
  H717     1.0000 0.19540  0.15170  0.40630  Biso   1.000  H
  H718     1.0000 0.19540  0.84830  0.59370  Biso   1.000  H
  H719     1.0000 0.80460  0.15170  0.59370  Biso   1.000  H
  H720     1.0000 0.80460  0.84830  0.40630  Biso   1.000  H
  H721     1.0000 0.59370  0.65170  0.69540  Biso   1.000  H
  H722     1.0000 0.40630  0.34830  0.69540  Biso   1.000  H
  H723     1.0000 0.40630  0.65170  0.30460  Biso   1.000  H
  H724     1.0000 0.59370  0.34830  0.30460  Biso   1.000  H
  H725     1.0000 0.69540  0.09370  0.15170  Biso   1.000  H
  H726     1.0000 0.69540  0.90630  0.84830  Biso   1.000  H
  H727     1.0000 0.30460  0.90630  0.15170  Biso   1.000  H
  H728     1.0000 0.30460  0.09370  0.84830  Biso   1.000  H
  H729     1.0000 0.15170  0.19540  0.59370  Biso   1.000  H
  H730     1.0000 0.84830  0.19540  0.40630  Biso   1.000  H
  H731     1.0000 0.15170  0.80460  0.40630  Biso   1.000  H
  H732     1.0000 0.84830  0.80460  0.59370  Biso   1.000  H
  H733     1.0000 0.15170  0.09370  0.30460  Biso   1.000  H
  H734     1.0000 0.84830  0.90630  0.30460  Biso   1.000  H
  H735     1.0000 0.15170  0.90630  0.69540  Biso   1.000  H
  H736     1.0000 0.84830  0.09370  0.69540  Biso   1.000  H
  H737     1.0000 0.59370  0.19540  0.84830  Biso   1.000  H
  H738     1.0000 0.40630  0.19540  0.15170  Biso   1.000  H
  H739     1.0000 0.40630  0.80460  0.84830  Biso   1.000  H
  H740     1.0000 0.59370  0.80460  0.15170  Biso   1.000  H
  H741     1.0000 0.69540  0.65170  0.40630  Biso   1.000  H
  H742     1.0000 0.69540  0.34830  0.59370  Biso   1.000  H
  H743     1.0000 0.30460  0.65170  0.59370  Biso   1.000  H
  H744     1.0000 0.30460  0.34830  0.40630  Biso   1.000  H
  H745     1.0000 0.59370  0.15170  0.19540  Biso   1.000  H
  H746     1.0000 0.40630  0.84830  0.19540  Biso   1.000  H
  H747     1.0000 0.40630  0.15170  0.80460  Biso   1.000  H
  H748     1.0000 0.59370  0.84830  0.80460  Biso   1.000  H
  H749     1.0000 0.69540  0.59370  0.65170  Biso   1.000  H
  H750     1.0000 0.69540  0.40630  0.34830  Biso   1.000  H
  H751     1.0000 0.30460  0.40630  0.65170  Biso   1.000  H
  H752     1.0000 0.30460  0.59370  0.34830  Biso   1.000  H
  H753     1.0000 0.15170  0.69540  0.09370  Biso   1.000  H
  H754     1.0000 0.84830  0.69540  0.90630  Biso   1.000  H
  H755     1.0000 0.15170  0.30460  0.90630  Biso   1.000  H
  H756     1.0000 0.84830  0.30460  0.09370  Biso   1.000  H
  H757     1.0000 0.15170  0.59370  0.80460  Biso   1.000  H
  H758     1.0000 0.84830  0.40630  0.80460  Biso   1.000  H
  H759     1.0000 0.15170  0.40630  0.19540  Biso   1.000  H
  H760     1.0000 0.84830  0.59370  0.19540  Biso   1.000  H
  H761     1.0000 0.59370  0.69540  0.34830  Biso   1.000  H
  H762     1.0000 0.40630  0.69540  0.65170  Biso   1.000  H
  H763     1.0000 0.40630  0.30460  0.34830  Biso   1.000  H
  H764     1.0000 0.59370  0.30460  0.65170  Biso   1.000  H
  H765     1.0000 0.69540  0.15170  0.90630  Biso   1.000  H
  H766     1.0000 0.69540  0.84830  0.09370  Biso   1.000  H
  H767     1.0000 0.30460  0.15170  0.09370  Biso   1.000  H
  H768     1.0000 0.30460  0.84830  0.90630  Biso   1.000  H
