data_image0
_cell_length_a       35.49
_cell_length_b       35.49
_cell_length_c       35.49
_cell_angle_alpha    90
_cell_angle_beta     90
_cell_angle_gamma    90

_symmetry_space_group_name_H-M    "P 1"
_symmetry_int_tables_number       1

loop_
  _symmetry_equiv_pos_as_xyz
  'x, y, z'

loop_
  _atom_site_label
  _atom_site_occupancy
  _atom_site_fract_x
  _atom_site_fract_y
  _atom_site_fract_z
  _atom_site_thermal_displace_type
  _atom_site_B_iso_or_equiv
  _atom_site_type_symbol
  Cu1      1.0000 0.28769  0.50000  0.00000  Biso   1.000  Cu
  Cu2      1.0000 0.71231  0.50000  0.00000  Biso   1.000  Cu
  Cu3      1.0000 0.00000  0.28769  0.50000  Biso   1.000  Cu
  Cu4      1.0000 0.00000  0.71231  0.50000  Biso   1.000  Cu
  Cu5      1.0000 0.50000  0.00000  0.28769  Biso   1.000  Cu
  Cu6      1.0000 0.50000  0.00000  0.71231  Biso   1.000  Cu
  Cu7      1.0000 0.00000  0.78769  0.50000  Biso   1.000  Cu
  Cu8      1.0000 0.00000  0.21231  0.50000  Biso   1.000  Cu
  Cu9      1.0000 0.78769  0.50000  0.00000  Biso   1.000  Cu
  Cu10     1.0000 0.21231  0.50000  0.00000  Biso   1.000  Cu
  Cu11     1.0000 0.50000  0.00000  0.21231  Biso   1.000  Cu
  Cu12     1.0000 0.50000  0.00000  0.78769  Biso   1.000  Cu
  Cu13     1.0000 0.50000  0.52560  0.00000  Biso   1.000  Cu
  Cu14     1.0000 0.50000  0.47440  0.00000  Biso   1.000  Cu
  Cu15     1.0000 0.00000  0.50000  0.52560  Biso   1.000  Cu
  Cu16     1.0000 0.00000  0.50000  0.47440  Biso   1.000  Cu
  Cu17     1.0000 0.52560  0.00000  0.50000  Biso   1.000  Cu
  Cu18     1.0000 0.47440  0.00000  0.50000  Biso   1.000  Cu
  Cu19     1.0000 0.02560  0.00000  0.50000  Biso   1.000  Cu
  Cu20     1.0000 0.97440  0.00000  0.50000  Biso   1.000  Cu
  Cu21     1.0000 0.00000  0.50000  0.97440  Biso   1.000  Cu
  Cu22     1.0000 0.00000  0.50000  0.02560  Biso   1.000  Cu
  Cu23     1.0000 0.50000  0.02560  0.00000  Biso   1.000  Cu
  Cu24     1.0000 0.50000  0.97440  0.00000  Biso   1.000  Cu
  N1       1.0000 0.25000  0.25000  0.75000  Biso   1.000  N
  N2       1.0000 0.75000  0.75000  0.75000  Biso   1.000  N
  N3       1.0000 0.75000  0.25000  0.25000  Biso   1.000  N
  N4       1.0000 0.25000  0.75000  0.25000  Biso   1.000  N
  N5       1.0000 0.75000  0.75000  0.25000  Biso   1.000  N
  N6       1.0000 0.25000  0.25000  0.25000  Biso   1.000  N
  N7       1.0000 0.25000  0.75000  0.75000  Biso   1.000  N
  N8       1.0000 0.75000  0.25000  0.75000  Biso   1.000  N
  N9       1.0000 0.34840  0.50000  0.00000  Biso   1.000  N
  N10      1.0000 0.65160  0.50000  0.00000  Biso   1.000  N
  N11      1.0000 0.00000  0.34840  0.50000  Biso   1.000  N
  N12      1.0000 0.00000  0.65160  0.50000  Biso   1.000  N
  N13      1.0000 0.50000  0.00000  0.34840  Biso   1.000  N
  N14      1.0000 0.50000  0.00000  0.65160  Biso   1.000  N
  N15      1.0000 0.00000  0.84840  0.50000  Biso   1.000  N
  N16      1.0000 0.00000  0.15160  0.50000  Biso   1.000  N
  N17      1.0000 0.84840  0.50000  0.00000  Biso   1.000  N
  N18      1.0000 0.15160  0.50000  0.00000  Biso   1.000  N
  N19      1.0000 0.50000  0.00000  0.15160  Biso   1.000  N
  N20      1.0000 0.50000  0.00000  0.84840  Biso   1.000  N
  O1       1.0000 0.28152  0.46077  0.96102  Biso   1.000  O
  O2       1.0000 0.71848  0.53923  0.96102  Biso   1.000  O
  O3       1.0000 0.71848  0.46077  0.03898  Biso   1.000  O
  O4       1.0000 0.28152  0.53923  0.03898  Biso   1.000  O
  O5       1.0000 0.96102  0.28152  0.46077  Biso   1.000  O
  O6       1.0000 0.96102  0.71848  0.53923  Biso   1.000  O
  O7       1.0000 0.03898  0.71848  0.46077  Biso   1.000  O
  O8       1.0000 0.03898  0.28152  0.53923  Biso   1.000  O
  O9       1.0000 0.46077  0.96102  0.28152  Biso   1.000  O
  O10      1.0000 0.53923  0.96102  0.71848  Biso   1.000  O
  O11      1.0000 0.46077  0.03898  0.71848  Biso   1.000  O
  O12      1.0000 0.53923  0.03898  0.28152  Biso   1.000  O
  O13      1.0000 0.96077  0.78152  0.53898  Biso   1.000  O
  O14      1.0000 0.03923  0.21848  0.53898  Biso   1.000  O
  O15      1.0000 0.96077  0.21848  0.46102  Biso   1.000  O
  O16      1.0000 0.03923  0.78152  0.46102  Biso   1.000  O
  O17      1.0000 0.78152  0.46102  0.03923  Biso   1.000  O
  O18      1.0000 0.21848  0.46102  0.96077  Biso   1.000  O
  O19      1.0000 0.21848  0.53898  0.03923  Biso   1.000  O
  O20      1.0000 0.78152  0.53898  0.96077  Biso   1.000  O
  O21      1.0000 0.46102  0.96077  0.21848  Biso   1.000  O
  O22      1.0000 0.46102  0.03923  0.78152  Biso   1.000  O
  O23      1.0000 0.53898  0.96077  0.78152  Biso   1.000  O
  O24      1.0000 0.53898  0.03923  0.21848  Biso   1.000  O
  O25      1.0000 0.71848  0.53923  0.03898  Biso   1.000  O
  O26      1.0000 0.28152  0.46077  0.03898  Biso   1.000  O
  O27      1.0000 0.28152  0.53923  0.96102  Biso   1.000  O
  O28      1.0000 0.71848  0.46077  0.96102  Biso   1.000  O
  O29      1.0000 0.03898  0.71848  0.53923  Biso   1.000  O
  O30      1.0000 0.03898  0.28152  0.46077  Biso   1.000  O
  O31      1.0000 0.96102  0.28152  0.53923  Biso   1.000  O
  O32      1.0000 0.96102  0.71848  0.46077  Biso   1.000  O
  O33      1.0000 0.53923  0.03898  0.71848  Biso   1.000  O
  O34      1.0000 0.46077  0.03898  0.28152  Biso   1.000  O
  O35      1.0000 0.53923  0.96102  0.28152  Biso   1.000  O
  O36      1.0000 0.46077  0.96102  0.71848  Biso   1.000  O
  O37      1.0000 0.03923  0.21848  0.46102  Biso   1.000  O
  O38      1.0000 0.96077  0.78152  0.46102  Biso   1.000  O
  O39      1.0000 0.03923  0.78152  0.53898  Biso   1.000  O
  O40      1.0000 0.96077  0.21848  0.53898  Biso   1.000  O
  O41      1.0000 0.21848  0.53898  0.96077  Biso   1.000  O
  O42      1.0000 0.78152  0.53898  0.03923  Biso   1.000  O
  O43      1.0000 0.78152  0.46102  0.96077  Biso   1.000  O
  O44      1.0000 0.21848  0.46102  0.03923  Biso   1.000  O
  O45      1.0000 0.53898  0.03923  0.78152  Biso   1.000  O
  O46      1.0000 0.53898  0.96077  0.21848  Biso   1.000  O
  O47      1.0000 0.46102  0.03923  0.21848  Biso   1.000  O
  O48      1.0000 0.46102  0.96077  0.78152  Biso   1.000  O
  C1       1.0000 0.25000  0.45030  0.95030  Biso   1.000  C
  C2       1.0000 0.75000  0.54970  0.95030  Biso   1.000  C
  C3       1.0000 0.75000  0.45030  0.04970  Biso   1.000  C
  C4       1.0000 0.25000  0.54970  0.04970  Biso   1.000  C
  C5       1.0000 0.95030  0.25000  0.45030  Biso   1.000  C
  C6       1.0000 0.95030  0.75000  0.54970  Biso   1.000  C
  C7       1.0000 0.04970  0.75000  0.45030  Biso   1.000  C
  C8       1.0000 0.04970  0.25000  0.54970  Biso   1.000  C
  C9       1.0000 0.45030  0.95030  0.25000  Biso   1.000  C
  C10      1.0000 0.54970  0.95030  0.75000  Biso   1.000  C
  C11      1.0000 0.45030  0.04970  0.75000  Biso   1.000  C
  C12      1.0000 0.54970  0.04970  0.25000  Biso   1.000  C
  C13      1.0000 0.75000  0.54970  0.04970  Biso   1.000  C
  C14      1.0000 0.25000  0.45030  0.04970  Biso   1.000  C
  C15      1.0000 0.25000  0.54970  0.95030  Biso   1.000  C
  C16      1.0000 0.75000  0.45030  0.95030  Biso   1.000  C
  C17      1.0000 0.04970  0.75000  0.54970  Biso   1.000  C
  C18      1.0000 0.04970  0.25000  0.45030  Biso   1.000  C
  C19      1.0000 0.95030  0.25000  0.54970  Biso   1.000  C
  C20      1.0000 0.95030  0.75000  0.45030  Biso   1.000  C
  C21      1.0000 0.54970  0.04970  0.75000  Biso   1.000  C
  C22      1.0000 0.45030  0.04970  0.25000  Biso   1.000  C
  C23      1.0000 0.54970  0.95030  0.25000  Biso   1.000  C
  C24      1.0000 0.45030  0.95030  0.75000  Biso   1.000  C
  C25      1.0000 0.25000  0.41960  0.91960  Biso   1.000  C
  C26      1.0000 0.75000  0.58040  0.91960  Biso   1.000  C
  C27      1.0000 0.75000  0.41960  0.08040  Biso   1.000  C
  C28      1.0000 0.25000  0.58040  0.08040  Biso   1.000  C
  C29      1.0000 0.91960  0.25000  0.41960  Biso   1.000  C
  C30      1.0000 0.91960  0.75000  0.58040  Biso   1.000  C
  C31      1.0000 0.08040  0.75000  0.41960  Biso   1.000  C
  C32      1.0000 0.08040  0.25000  0.58040  Biso   1.000  C
  C33      1.0000 0.41960  0.91960  0.25000  Biso   1.000  C
  C34      1.0000 0.58040  0.91960  0.75000  Biso   1.000  C
  C35      1.0000 0.41960  0.08040  0.75000  Biso   1.000  C
  C36      1.0000 0.58040  0.08040  0.25000  Biso   1.000  C
  C37      1.0000 0.75000  0.58040  0.08040  Biso   1.000  C
  C38      1.0000 0.25000  0.41960  0.08040  Biso   1.000  C
  C39      1.0000 0.25000  0.58040  0.91960  Biso   1.000  C
  C40      1.0000 0.75000  0.41960  0.91960  Biso   1.000  C
  C41      1.0000 0.08040  0.75000  0.58040  Biso   1.000  C
  C42      1.0000 0.08040  0.25000  0.41960  Biso   1.000  C
  C43      1.0000 0.91960  0.25000  0.58040  Biso   1.000  C
  C44      1.0000 0.91960  0.75000  0.41960  Biso   1.000  C
  C45      1.0000 0.58040  0.08040  0.75000  Biso   1.000  C
  C46      1.0000 0.41960  0.08040  0.25000  Biso   1.000  C
  C47      1.0000 0.58040  0.91960  0.25000  Biso   1.000  C
  C48      1.0000 0.41960  0.91960  0.75000  Biso   1.000  C
  C49      1.0000 0.21640  0.40640  0.90530  Biso   1.000  C
  C50      1.0000 0.78360  0.59360  0.90530  Biso   1.000  C
  C51      1.0000 0.78360  0.40640  0.09470  Biso   1.000  C
  C52      1.0000 0.21640  0.59360  0.09470  Biso   1.000  C
  C53      1.0000 0.90530  0.21640  0.40640  Biso   1.000  C
  C54      1.0000 0.90530  0.78360  0.59360  Biso   1.000  C
  C55      1.0000 0.09470  0.78360  0.40640  Biso   1.000  C
  C56      1.0000 0.09470  0.21640  0.59360  Biso   1.000  C
  C57      1.0000 0.40640  0.90530  0.21640  Biso   1.000  C
  C58      1.0000 0.59360  0.90530  0.78360  Biso   1.000  C
  C59      1.0000 0.40640  0.09470  0.78360  Biso   1.000  C
  C60      1.0000 0.59360  0.09470  0.21640  Biso   1.000  C
  C61      1.0000 0.90640  0.71640  0.59470  Biso   1.000  C
  C62      1.0000 0.09360  0.28360  0.59470  Biso   1.000  C
  C63      1.0000 0.90640  0.28360  0.40530  Biso   1.000  C
  C64      1.0000 0.09360  0.71640  0.40530  Biso   1.000  C
  C65      1.0000 0.71640  0.40530  0.09360  Biso   1.000  C
  C66      1.0000 0.28360  0.40530  0.90640  Biso   1.000  C
  C67      1.0000 0.28360  0.59470  0.09360  Biso   1.000  C
  C68      1.0000 0.71640  0.59470  0.90640  Biso   1.000  C
  C69      1.0000 0.40530  0.90640  0.28360  Biso   1.000  C
  C70      1.0000 0.40530  0.09360  0.71640  Biso   1.000  C
  C71      1.0000 0.59470  0.90640  0.71640  Biso   1.000  C
  C72      1.0000 0.59470  0.09360  0.28360  Biso   1.000  C
  C73      1.0000 0.78360  0.59360  0.09470  Biso   1.000  C
  C74      1.0000 0.21640  0.40640  0.09470  Biso   1.000  C
  C75      1.0000 0.21640  0.59360  0.90530  Biso   1.000  C
  C76      1.0000 0.78360  0.40640  0.90530  Biso   1.000  C
  C77      1.0000 0.09470  0.78360  0.59360  Biso   1.000  C
  C78      1.0000 0.09470  0.21640  0.40640  Biso   1.000  C
  C79      1.0000 0.90530  0.21640  0.59360  Biso   1.000  C
  C80      1.0000 0.90530  0.78360  0.40640  Biso   1.000  C
  C81      1.0000 0.59360  0.09470  0.78360  Biso   1.000  C
  C82      1.0000 0.40640  0.09470  0.21640  Biso   1.000  C
  C83      1.0000 0.59360  0.90530  0.21640  Biso   1.000  C
  C84      1.0000 0.40640  0.90530  0.78360  Biso   1.000  C
  C85      1.0000 0.09360  0.28360  0.40530  Biso   1.000  C
  C86      1.0000 0.90640  0.71640  0.40530  Biso   1.000  C
  C87      1.0000 0.09360  0.71640  0.59470  Biso   1.000  C
  C88      1.0000 0.90640  0.28360  0.59470  Biso   1.000  C
  C89      1.0000 0.28360  0.59470  0.90640  Biso   1.000  C
  C90      1.0000 0.71640  0.59470  0.09360  Biso   1.000  C
  C91      1.0000 0.71640  0.40530  0.90640  Biso   1.000  C
  C92      1.0000 0.28360  0.40530  0.09360  Biso   1.000  C
  C93      1.0000 0.59470  0.09360  0.71640  Biso   1.000  C
  C94      1.0000 0.59470  0.90640  0.28360  Biso   1.000  C
  C95      1.0000 0.40530  0.09360  0.28360  Biso   1.000  C
  C96      1.0000 0.40530  0.90640  0.71640  Biso   1.000  C
  H1       1.0000 0.19370  0.41590  0.91420  Biso   1.000  H
  H2       1.0000 0.80630  0.58410  0.91420  Biso   1.000  H
  H3       1.0000 0.80630  0.41590  0.08580  Biso   1.000  H
  H4       1.0000 0.19370  0.58410  0.08580  Biso   1.000  H
  H5       1.0000 0.91420  0.19370  0.41590  Biso   1.000  H
  H6       1.0000 0.91420  0.80630  0.58410  Biso   1.000  H
  H7       1.0000 0.08580  0.80630  0.41590  Biso   1.000  H
  H8       1.0000 0.08580  0.19370  0.58410  Biso   1.000  H
  H9       1.0000 0.41590  0.91420  0.19370  Biso   1.000  H
  H10      1.0000 0.58410  0.91420  0.80630  Biso   1.000  H
  H11      1.0000 0.41590  0.08580  0.80630  Biso   1.000  H
  H12      1.0000 0.58410  0.08580  0.19370  Biso   1.000  H
  H13      1.0000 0.91590  0.69370  0.58580  Biso   1.000  H
  H14      1.0000 0.08410  0.30630  0.58580  Biso   1.000  H
  H15      1.0000 0.91590  0.30630  0.41420  Biso   1.000  H
  H16      1.0000 0.08410  0.69370  0.41420  Biso   1.000  H
  H17      1.0000 0.69370  0.41420  0.08410  Biso   1.000  H
  H18      1.0000 0.30630  0.41420  0.91590  Biso   1.000  H
  H19      1.0000 0.30630  0.58580  0.08410  Biso   1.000  H
  H20      1.0000 0.69370  0.58580  0.91590  Biso   1.000  H
  H21      1.0000 0.41420  0.91590  0.30630  Biso   1.000  H
  H22      1.0000 0.41420  0.08410  0.69370  Biso   1.000  H
  H23      1.0000 0.58580  0.91590  0.69370  Biso   1.000  H
  H24      1.0000 0.58580  0.08410  0.30630  Biso   1.000  H
  H25      1.0000 0.80630  0.58410  0.08580  Biso   1.000  H
  H26      1.0000 0.19370  0.41590  0.08580  Biso   1.000  H
  H27      1.0000 0.19370  0.58410  0.91420  Biso   1.000  H
  H28      1.0000 0.80630  0.41590  0.91420  Biso   1.000  H
  H29      1.0000 0.08580  0.80630  0.58410  Biso   1.000  H
  H30      1.0000 0.08580  0.19370  0.41590  Biso   1.000  H
  H31      1.0000 0.91420  0.19370  0.58410  Biso   1.000  H
  H32      1.0000 0.91420  0.80630  0.41590  Biso   1.000  H
  H33      1.0000 0.58410  0.08580  0.80630  Biso   1.000  H
  H34      1.0000 0.41590  0.08580  0.19370  Biso   1.000  H
  H35      1.0000 0.58410  0.91420  0.19370  Biso   1.000  H
  H36      1.0000 0.41590  0.91420  0.80630  Biso   1.000  H
  H37      1.0000 0.08410  0.30630  0.41420  Biso   1.000  H
  H38      1.0000 0.91590  0.69370  0.41420  Biso   1.000  H
  H39      1.0000 0.08410  0.69370  0.58580  Biso   1.000  H
  H40      1.0000 0.91590  0.30630  0.58580  Biso   1.000  H
  H41      1.0000 0.30630  0.58580  0.91590  Biso   1.000  H
  H42      1.0000 0.69370  0.58580  0.08410  Biso   1.000  H
  H43      1.0000 0.69370  0.41420  0.91590  Biso   1.000  H
  H44      1.0000 0.30630  0.41420  0.08410  Biso   1.000  H
  H45      1.0000 0.58580  0.08410  0.69370  Biso   1.000  H
  H46      1.0000 0.58580  0.91590  0.30630  Biso   1.000  H
  H47      1.0000 0.41420  0.08410  0.30630  Biso   1.000  H
  H48      1.0000 0.41420  0.91590  0.69370  Biso   1.000  H
  C97      1.0000 0.21690  0.37880  0.87780  Biso   1.000  C
  C98      1.0000 0.78310  0.62120  0.87780  Biso   1.000  C
  C99      1.0000 0.78310  0.37880  0.12220  Biso   1.000  C
  C100     1.0000 0.21690  0.62120  0.12220  Biso   1.000  C
  C101     1.0000 0.87780  0.21690  0.37880  Biso   1.000  C
  C102     1.0000 0.87780  0.78310  0.62120  Biso   1.000  C
  C103     1.0000 0.12220  0.78310  0.37880  Biso   1.000  C
  C104     1.0000 0.12220  0.21690  0.62120  Biso   1.000  C
  C105     1.0000 0.37880  0.87780  0.21690  Biso   1.000  C
  C106     1.0000 0.62120  0.87780  0.78310  Biso   1.000  C
  C107     1.0000 0.37880  0.12220  0.78310  Biso   1.000  C
  C108     1.0000 0.62120  0.12220  0.21690  Biso   1.000  C
  C109     1.0000 0.87880  0.71690  0.62220  Biso   1.000  C
  C110     1.0000 0.12120  0.28310  0.62220  Biso   1.000  C
  C111     1.0000 0.87880  0.28310  0.37780  Biso   1.000  C
  C112     1.0000 0.12120  0.71690  0.37780  Biso   1.000  C
  C113     1.0000 0.71690  0.37780  0.12120  Biso   1.000  C
  C114     1.0000 0.28310  0.37780  0.87880  Biso   1.000  C
  C115     1.0000 0.28310  0.62220  0.12120  Biso   1.000  C
  C116     1.0000 0.71690  0.62220  0.87880  Biso   1.000  C
  C117     1.0000 0.37780  0.87880  0.28310  Biso   1.000  C
  C118     1.0000 0.37780  0.12120  0.71690  Biso   1.000  C
  C119     1.0000 0.62220  0.87880  0.71690  Biso   1.000  C
  C120     1.0000 0.62220  0.12120  0.28310  Biso   1.000  C
  C121     1.0000 0.78310  0.62120  0.12220  Biso   1.000  C
  C122     1.0000 0.21690  0.37880  0.12220  Biso   1.000  C
  C123     1.0000 0.21690  0.62120  0.87780  Biso   1.000  C
  C124     1.0000 0.78310  0.37880  0.87780  Biso   1.000  C
  C125     1.0000 0.12220  0.78310  0.62120  Biso   1.000  C
  C126     1.0000 0.12220  0.21690  0.37880  Biso   1.000  C
  C127     1.0000 0.87780  0.21690  0.62120  Biso   1.000  C
  C128     1.0000 0.87780  0.78310  0.37880  Biso   1.000  C
  C129     1.0000 0.62120  0.12220  0.78310  Biso   1.000  C
  C130     1.0000 0.37880  0.12220  0.21690  Biso   1.000  C
  C131     1.0000 0.62120  0.87780  0.21690  Biso   1.000  C
  C132     1.0000 0.37880  0.87780  0.78310  Biso   1.000  C
  C133     1.0000 0.12120  0.28310  0.37780  Biso   1.000  C
  C134     1.0000 0.87880  0.71690  0.37780  Biso   1.000  C
  C135     1.0000 0.12120  0.71690  0.62220  Biso   1.000  C
  C136     1.0000 0.87880  0.28310  0.62220  Biso   1.000  C
  C137     1.0000 0.28310  0.62220  0.87880  Biso   1.000  C
  C138     1.0000 0.71690  0.62220  0.12120  Biso   1.000  C
  C139     1.0000 0.71690  0.37780  0.87880  Biso   1.000  C
  C140     1.0000 0.28310  0.37780  0.12120  Biso   1.000  C
  C141     1.0000 0.62220  0.12120  0.71690  Biso   1.000  C
  C142     1.0000 0.62220  0.87880  0.28310  Biso   1.000  C
  C143     1.0000 0.37780  0.12120  0.28310  Biso   1.000  C
  C144     1.0000 0.37780  0.87880  0.71690  Biso   1.000  C
  H49      1.0000 0.19400  0.37000  0.86830  Biso   1.000  H
  H50      1.0000 0.80600  0.63000  0.86830  Biso   1.000  H
  H51      1.0000 0.80600  0.37000  0.13170  Biso   1.000  H
  H52      1.0000 0.19400  0.63000  0.13170  Biso   1.000  H
  H53      1.0000 0.86830  0.19400  0.37000  Biso   1.000  H
  H54      1.0000 0.86830  0.80600  0.63000  Biso   1.000  H
  H55      1.0000 0.13170  0.80600  0.37000  Biso   1.000  H
  H56      1.0000 0.13170  0.19400  0.63000  Biso   1.000  H
  H57      1.0000 0.37000  0.86830  0.19400  Biso   1.000  H
  H58      1.0000 0.63000  0.86830  0.80600  Biso   1.000  H
  H59      1.0000 0.37000  0.13170  0.80600  Biso   1.000  H
  H60      1.0000 0.63000  0.13170  0.19400  Biso   1.000  H
  H61      1.0000 0.87000  0.69400  0.63170  Biso   1.000  H
  H62      1.0000 0.13000  0.30600  0.63170  Biso   1.000  H
  H63      1.0000 0.87000  0.30600  0.36830  Biso   1.000  H
  H64      1.0000 0.13000  0.69400  0.36830  Biso   1.000  H
  H65      1.0000 0.69400  0.36830  0.13000  Biso   1.000  H
  H66      1.0000 0.30600  0.36830  0.87000  Biso   1.000  H
  H67      1.0000 0.30600  0.63170  0.13000  Biso   1.000  H
  H68      1.0000 0.69400  0.63170  0.87000  Biso   1.000  H
  H69      1.0000 0.36830  0.87000  0.30600  Biso   1.000  H
  H70      1.0000 0.36830  0.13000  0.69400  Biso   1.000  H
  H71      1.0000 0.63170  0.87000  0.69400  Biso   1.000  H
  H72      1.0000 0.63170  0.13000  0.30600  Biso   1.000  H
  H73      1.0000 0.80600  0.63000  0.13170  Biso   1.000  H
  H74      1.0000 0.19400  0.37000  0.13170  Biso   1.000  H
  H75      1.0000 0.19400  0.63000  0.86830  Biso   1.000  H
  H76      1.0000 0.80600  0.37000  0.86830  Biso   1.000  H
  H77      1.0000 0.13170  0.80600  0.63000  Biso   1.000  H
  H78      1.0000 0.13170  0.19400  0.37000  Biso   1.000  H
  H79      1.0000 0.86830  0.19400  0.63000  Biso   1.000  H
  H80      1.0000 0.86830  0.80600  0.37000  Biso   1.000  H
  H81      1.0000 0.63000  0.13170  0.80600  Biso   1.000  H
  H82      1.0000 0.37000  0.13170  0.19400  Biso   1.000  H
  H83      1.0000 0.63000  0.86830  0.19400  Biso   1.000  H
  H84      1.0000 0.37000  0.86830  0.80600  Biso   1.000  H
  H85      1.0000 0.13000  0.30600  0.36830  Biso   1.000  H
  H86      1.0000 0.87000  0.69400  0.36830  Biso   1.000  H
  H87      1.0000 0.13000  0.69400  0.63170  Biso   1.000  H
  H88      1.0000 0.87000  0.30600  0.63170  Biso   1.000  H
  H89      1.0000 0.30600  0.63170  0.87000  Biso   1.000  H
  H90      1.0000 0.69400  0.63170  0.13000  Biso   1.000  H
  H91      1.0000 0.69400  0.36830  0.87000  Biso   1.000  H
  H92      1.0000 0.30600  0.36830  0.13000  Biso   1.000  H
  H93      1.0000 0.63170  0.13000  0.69400  Biso   1.000  H
  H94      1.0000 0.63170  0.87000  0.30600  Biso   1.000  H
  H95      1.0000 0.36830  0.13000  0.30600  Biso   1.000  H
  H96      1.0000 0.36830  0.87000  0.69400  Biso   1.000  H
  C145     1.0000 0.25000  0.36370  0.86370  Biso   1.000  C
  C146     1.0000 0.75000  0.63630  0.86370  Biso   1.000  C
  C147     1.0000 0.75000  0.36370  0.13630  Biso   1.000  C
  C148     1.0000 0.25000  0.63630  0.13630  Biso   1.000  C
  C149     1.0000 0.86370  0.25000  0.36370  Biso   1.000  C
  C150     1.0000 0.86370  0.75000  0.63630  Biso   1.000  C
  C151     1.0000 0.13630  0.75000  0.36370  Biso   1.000  C
  C152     1.0000 0.13630  0.25000  0.63630  Biso   1.000  C
  C153     1.0000 0.36370  0.86370  0.25000  Biso   1.000  C
  C154     1.0000 0.63630  0.86370  0.75000  Biso   1.000  C
  C155     1.0000 0.36370  0.13630  0.75000  Biso   1.000  C
  C156     1.0000 0.63630  0.13630  0.25000  Biso   1.000  C
  C157     1.0000 0.75000  0.63630  0.13630  Biso   1.000  C
  C158     1.0000 0.25000  0.36370  0.13630  Biso   1.000  C
  C159     1.0000 0.25000  0.63630  0.86370  Biso   1.000  C
  C160     1.0000 0.75000  0.36370  0.86370  Biso   1.000  C
  C161     1.0000 0.13630  0.75000  0.63630  Biso   1.000  C
  C162     1.0000 0.13630  0.25000  0.36370  Biso   1.000  C
  C163     1.0000 0.86370  0.25000  0.63630  Biso   1.000  C
  C164     1.0000 0.86370  0.75000  0.36370  Biso   1.000  C
  C165     1.0000 0.63630  0.13630  0.75000  Biso   1.000  C
  C166     1.0000 0.36370  0.13630  0.25000  Biso   1.000  C
  C167     1.0000 0.63630  0.86370  0.25000  Biso   1.000  C
  C168     1.0000 0.36370  0.86370  0.75000  Biso   1.000  C
  C169     1.0000 0.25000  0.33380  0.83380  Biso   1.000  C
  C170     1.0000 0.75000  0.66620  0.83380  Biso   1.000  C
  C171     1.0000 0.75000  0.33380  0.16620  Biso   1.000  C
  C172     1.0000 0.25000  0.66620  0.16620  Biso   1.000  C
  C173     1.0000 0.83380  0.25000  0.33380  Biso   1.000  C
  C174     1.0000 0.83380  0.75000  0.66620  Biso   1.000  C
  C175     1.0000 0.16620  0.75000  0.33380  Biso   1.000  C
  C176     1.0000 0.16620  0.25000  0.66620  Biso   1.000  C
  C177     1.0000 0.33380  0.83380  0.25000  Biso   1.000  C
  C178     1.0000 0.66620  0.83380  0.75000  Biso   1.000  C
  C179     1.0000 0.33380  0.16620  0.75000  Biso   1.000  C
  C180     1.0000 0.66620  0.16620  0.25000  Biso   1.000  C
  C181     1.0000 0.75000  0.66620  0.16620  Biso   1.000  C
  C182     1.0000 0.25000  0.33380  0.16620  Biso   1.000  C
  C183     1.0000 0.25000  0.66620  0.83380  Biso   1.000  C
  C184     1.0000 0.75000  0.33380  0.83380  Biso   1.000  C
  C185     1.0000 0.16620  0.75000  0.66620  Biso   1.000  C
  C186     1.0000 0.16620  0.25000  0.33380  Biso   1.000  C
  C187     1.0000 0.83380  0.25000  0.66620  Biso   1.000  C
  C188     1.0000 0.83380  0.75000  0.33380  Biso   1.000  C
  C189     1.0000 0.66620  0.16620  0.75000  Biso   1.000  C
  C190     1.0000 0.33380  0.16620  0.25000  Biso   1.000  C
  C191     1.0000 0.66620  0.83380  0.25000  Biso   1.000  C
  C192     1.0000 0.33380  0.83380  0.75000  Biso   1.000  C
  C193     1.0000 0.22250  0.33280  0.80650  Biso   1.000  C
  C194     1.0000 0.77750  0.66720  0.80650  Biso   1.000  C
  C195     1.0000 0.77750  0.33280  0.19350  Biso   1.000  C
  C196     1.0000 0.22250  0.66720  0.19350  Biso   1.000  C
  C197     1.0000 0.80650  0.22250  0.33280  Biso   1.000  C
  C198     1.0000 0.80650  0.77750  0.66720  Biso   1.000  C
  C199     1.0000 0.19350  0.77750  0.33280  Biso   1.000  C
  C200     1.0000 0.19350  0.22250  0.66720  Biso   1.000  C
  C201     1.0000 0.33280  0.80650  0.22250  Biso   1.000  C
  C202     1.0000 0.66720  0.80650  0.77750  Biso   1.000  C
  C203     1.0000 0.33280  0.19350  0.77750  Biso   1.000  C
  C204     1.0000 0.66720  0.19350  0.22250  Biso   1.000  C
  C205     1.0000 0.83280  0.72250  0.69350  Biso   1.000  C
  C206     1.0000 0.16720  0.27750  0.69350  Biso   1.000  C
  C207     1.0000 0.83280  0.27750  0.30650  Biso   1.000  C
  C208     1.0000 0.16720  0.72250  0.30650  Biso   1.000  C
  C209     1.0000 0.72250  0.30650  0.16720  Biso   1.000  C
  C210     1.0000 0.27750  0.30650  0.83280  Biso   1.000  C
  C211     1.0000 0.27750  0.69350  0.16720  Biso   1.000  C
  C212     1.0000 0.72250  0.69350  0.83280  Biso   1.000  C
  C213     1.0000 0.30650  0.83280  0.27750  Biso   1.000  C
  C214     1.0000 0.30650  0.16720  0.72250  Biso   1.000  C
  C215     1.0000 0.69350  0.83280  0.72250  Biso   1.000  C
  C216     1.0000 0.69350  0.16720  0.27750  Biso   1.000  C
  C217     1.0000 0.77750  0.66720  0.19350  Biso   1.000  C
  C218     1.0000 0.22250  0.33280  0.19350  Biso   1.000  C
  C219     1.0000 0.22250  0.66720  0.80650  Biso   1.000  C
  C220     1.0000 0.77750  0.33280  0.80650  Biso   1.000  C
  C221     1.0000 0.19350  0.77750  0.66720  Biso   1.000  C
  C222     1.0000 0.19350  0.22250  0.33280  Biso   1.000  C
  C223     1.0000 0.80650  0.22250  0.66720  Biso   1.000  C
  C224     1.0000 0.80650  0.77750  0.33280  Biso   1.000  C
  C225     1.0000 0.66720  0.19350  0.77750  Biso   1.000  C
  C226     1.0000 0.33280  0.19350  0.22250  Biso   1.000  C
  C227     1.0000 0.66720  0.80650  0.22250  Biso   1.000  C
  C228     1.0000 0.33280  0.80650  0.77750  Biso   1.000  C
  C229     1.0000 0.16720  0.27750  0.30650  Biso   1.000  C
  C230     1.0000 0.83280  0.72250  0.30650  Biso   1.000  C
  C231     1.0000 0.16720  0.72250  0.69350  Biso   1.000  C
  C232     1.0000 0.83280  0.27750  0.69350  Biso   1.000  C
  C233     1.0000 0.27750  0.69350  0.83280  Biso   1.000  C
  C234     1.0000 0.72250  0.69350  0.16720  Biso   1.000  C
  C235     1.0000 0.72250  0.30650  0.83280  Biso   1.000  C
  C236     1.0000 0.27750  0.30650  0.16720  Biso   1.000  C
  C237     1.0000 0.69350  0.16720  0.72250  Biso   1.000  C
  C238     1.0000 0.69350  0.83280  0.27750  Biso   1.000  C
  C239     1.0000 0.30650  0.16720  0.27750  Biso   1.000  C
  C240     1.0000 0.30650  0.83280  0.72250  Biso   1.000  C
  H97      1.0000 0.20460  0.35190  0.80550  Biso   1.000  H
  H98      1.0000 0.79540  0.64810  0.80550  Biso   1.000  H
  H99      1.0000 0.79540  0.35190  0.19450  Biso   1.000  H
  H100     1.0000 0.20460  0.64810  0.19450  Biso   1.000  H
  H101     1.0000 0.80550  0.20460  0.35190  Biso   1.000  H
  H102     1.0000 0.80550  0.79540  0.64810  Biso   1.000  H
  H103     1.0000 0.19450  0.79540  0.35190  Biso   1.000  H
  H104     1.0000 0.19450  0.20460  0.64810  Biso   1.000  H
  H105     1.0000 0.35190  0.80550  0.20460  Biso   1.000  H
  H106     1.0000 0.64810  0.80550  0.79540  Biso   1.000  H
  H107     1.0000 0.35190  0.19450  0.79540  Biso   1.000  H
  H108     1.0000 0.64810  0.19450  0.20460  Biso   1.000  H
  H109     1.0000 0.85190  0.70460  0.69450  Biso   1.000  H
  H110     1.0000 0.14810  0.29540  0.69450  Biso   1.000  H
  H111     1.0000 0.85190  0.29540  0.30550  Biso   1.000  H
  H112     1.0000 0.14810  0.70460  0.30550  Biso   1.000  H
  H113     1.0000 0.70460  0.30550  0.14810  Biso   1.000  H
  H114     1.0000 0.29540  0.30550  0.85190  Biso   1.000  H
  H115     1.0000 0.29540  0.69450  0.14810  Biso   1.000  H
  H116     1.0000 0.70460  0.69450  0.85190  Biso   1.000  H
  H117     1.0000 0.30550  0.85190  0.29540  Biso   1.000  H
  H118     1.0000 0.30550  0.14810  0.70460  Biso   1.000  H
  H119     1.0000 0.69450  0.85190  0.70460  Biso   1.000  H
  H120     1.0000 0.69450  0.14810  0.29540  Biso   1.000  H
  H121     1.0000 0.79540  0.64810  0.19450  Biso   1.000  H
  H122     1.0000 0.20460  0.35190  0.19450  Biso   1.000  H
  H123     1.0000 0.20460  0.64810  0.80550  Biso   1.000  H
  H124     1.0000 0.79540  0.35190  0.80550  Biso   1.000  H
  H125     1.0000 0.19450  0.79540  0.64810  Biso   1.000  H
  H126     1.0000 0.19450  0.20460  0.35190  Biso   1.000  H
  H127     1.0000 0.80550  0.20460  0.64810  Biso   1.000  H
  H128     1.0000 0.80550  0.79540  0.35190  Biso   1.000  H
  H129     1.0000 0.64810  0.19450  0.79540  Biso   1.000  H
  H130     1.0000 0.35190  0.19450  0.20460  Biso   1.000  H
  H131     1.0000 0.64810  0.80550  0.20460  Biso   1.000  H
  H132     1.0000 0.35190  0.80550  0.79540  Biso   1.000  H
  H133     1.0000 0.14810  0.29540  0.30550  Biso   1.000  H
  H134     1.0000 0.85190  0.70460  0.30550  Biso   1.000  H
  H135     1.0000 0.14810  0.70460  0.69450  Biso   1.000  H
  H136     1.0000 0.85190  0.29540  0.69450  Biso   1.000  H
  H137     1.0000 0.29540  0.69450  0.85190  Biso   1.000  H
  H138     1.0000 0.70460  0.69450  0.14810  Biso   1.000  H
  H139     1.0000 0.70460  0.30550  0.85190  Biso   1.000  H
  H140     1.0000 0.29540  0.30550  0.14810  Biso   1.000  H
  H141     1.0000 0.69450  0.14810  0.70460  Biso   1.000  H
  H142     1.0000 0.69450  0.85190  0.29540  Biso   1.000  H
  H143     1.0000 0.30550  0.14810  0.29540  Biso   1.000  H
  H144     1.0000 0.30550  0.85190  0.70460  Biso   1.000  H
  C241     1.0000 0.22110  0.30360  0.78040  Biso   1.000  C
  C242     1.0000 0.77890  0.69640  0.78040  Biso   1.000  C
  C243     1.0000 0.77890  0.30360  0.21960  Biso   1.000  C
  C244     1.0000 0.22110  0.69640  0.21960  Biso   1.000  C
  C245     1.0000 0.78040  0.22110  0.30360  Biso   1.000  C
  C246     1.0000 0.78040  0.77890  0.69640  Biso   1.000  C
  C247     1.0000 0.21960  0.77890  0.30360  Biso   1.000  C
  C248     1.0000 0.21960  0.22110  0.69640  Biso   1.000  C
  C249     1.0000 0.30360  0.78040  0.22110  Biso   1.000  C
  C250     1.0000 0.69640  0.78040  0.77890  Biso   1.000  C
  C251     1.0000 0.30360  0.21960  0.77890  Biso   1.000  C
  C252     1.0000 0.69640  0.21960  0.22110  Biso   1.000  C
  C253     1.0000 0.80360  0.72110  0.71960  Biso   1.000  C
  C254     1.0000 0.19640  0.27890  0.71960  Biso   1.000  C
  C255     1.0000 0.80360  0.27890  0.28040  Biso   1.000  C
  C256     1.0000 0.19640  0.72110  0.28040  Biso   1.000  C
  C257     1.0000 0.72110  0.28040  0.19640  Biso   1.000  C
  C258     1.0000 0.27890  0.28040  0.80360  Biso   1.000  C
  C259     1.0000 0.27890  0.71960  0.19640  Biso   1.000  C
  C260     1.0000 0.72110  0.71960  0.80360  Biso   1.000  C
  C261     1.0000 0.28040  0.80360  0.27890  Biso   1.000  C
  C262     1.0000 0.28040  0.19640  0.72110  Biso   1.000  C
  C263     1.0000 0.71960  0.80360  0.72110  Biso   1.000  C
  C264     1.0000 0.71960  0.19640  0.27890  Biso   1.000  C
  C265     1.0000 0.77890  0.69640  0.21960  Biso   1.000  C
  C266     1.0000 0.22110  0.30360  0.21960  Biso   1.000  C
  C267     1.0000 0.22110  0.69640  0.78040  Biso   1.000  C
  C268     1.0000 0.77890  0.30360  0.78040  Biso   1.000  C
  C269     1.0000 0.21960  0.77890  0.69640  Biso   1.000  C
  C270     1.0000 0.21960  0.22110  0.30360  Biso   1.000  C
  C271     1.0000 0.78040  0.22110  0.69640  Biso   1.000  C
  C272     1.0000 0.78040  0.77890  0.30360  Biso   1.000  C
  C273     1.0000 0.69640  0.21960  0.77890  Biso   1.000  C
  C274     1.0000 0.30360  0.21960  0.22110  Biso   1.000  C
  C275     1.0000 0.69640  0.78040  0.22110  Biso   1.000  C
  C276     1.0000 0.30360  0.78040  0.77890  Biso   1.000  C
  C277     1.0000 0.19640  0.27890  0.28040  Biso   1.000  C
  C278     1.0000 0.80360  0.72110  0.28040  Biso   1.000  C
  C279     1.0000 0.19640  0.72110  0.71960  Biso   1.000  C
  C280     1.0000 0.80360  0.27890  0.71960  Biso   1.000  C
  C281     1.0000 0.27890  0.71960  0.80360  Biso   1.000  C
  C282     1.0000 0.72110  0.71960  0.19640  Biso   1.000  C
  C283     1.0000 0.72110  0.28040  0.80360  Biso   1.000  C
  C284     1.0000 0.27890  0.28040  0.19640  Biso   1.000  C
  C285     1.0000 0.71960  0.19640  0.72110  Biso   1.000  C
  C286     1.0000 0.71960  0.80360  0.27890  Biso   1.000  C
  C287     1.0000 0.28040  0.19640  0.27890  Biso   1.000  C
  C288     1.0000 0.28040  0.80360  0.72110  Biso   1.000  C
  C289     1.0000 0.25000  0.27830  0.77830  Biso   1.000  C
  C290     1.0000 0.75000  0.72170  0.77830  Biso   1.000  C
  C291     1.0000 0.75000  0.27830  0.22170  Biso   1.000  C
  C292     1.0000 0.25000  0.72170  0.22170  Biso   1.000  C
  C293     1.0000 0.77830  0.25000  0.27830  Biso   1.000  C
  C294     1.0000 0.77830  0.75000  0.72170  Biso   1.000  C
  C295     1.0000 0.22170  0.75000  0.27830  Biso   1.000  C
  C296     1.0000 0.22170  0.25000  0.72170  Biso   1.000  C
  C297     1.0000 0.27830  0.77830  0.25000  Biso   1.000  C
  C298     1.0000 0.72170  0.77830  0.75000  Biso   1.000  C
  C299     1.0000 0.27830  0.22170  0.75000  Biso   1.000  C
  C300     1.0000 0.72170  0.22170  0.25000  Biso   1.000  C
  C301     1.0000 0.75000  0.72170  0.22170  Biso   1.000  C
  C302     1.0000 0.25000  0.27830  0.22170  Biso   1.000  C
  C303     1.0000 0.25000  0.72170  0.77830  Biso   1.000  C
  C304     1.0000 0.75000  0.27830  0.77830  Biso   1.000  C
  C305     1.0000 0.22170  0.75000  0.72170  Biso   1.000  C
  C306     1.0000 0.22170  0.25000  0.27830  Biso   1.000  C
  C307     1.0000 0.77830  0.25000  0.72170  Biso   1.000  C
  C308     1.0000 0.77830  0.75000  0.27830  Biso   1.000  C
  C309     1.0000 0.72170  0.22170  0.75000  Biso   1.000  C
  C310     1.0000 0.27830  0.22170  0.25000  Biso   1.000  C
  C311     1.0000 0.72170  0.77830  0.25000  Biso   1.000  C
  C312     1.0000 0.27830  0.77830  0.75000  Biso   1.000  C
  C313     1.0000 0.19230  0.30770  0.75000  Biso   1.000  C
  C314     1.0000 0.80770  0.69230  0.75000  Biso   1.000  C
  C315     1.0000 0.80770  0.30770  0.25000  Biso   1.000  C
  C316     1.0000 0.19230  0.69230  0.25000  Biso   1.000  C
  C317     1.0000 0.75000  0.19230  0.30770  Biso   1.000  C
  C318     1.0000 0.75000  0.80770  0.69230  Biso   1.000  C
  C319     1.0000 0.25000  0.80770  0.30770  Biso   1.000  C
  C320     1.0000 0.25000  0.19230  0.69230  Biso   1.000  C
  C321     1.0000 0.30770  0.75000  0.19230  Biso   1.000  C
  C322     1.0000 0.69230  0.75000  0.80770  Biso   1.000  C
  C323     1.0000 0.30770  0.25000  0.80770  Biso   1.000  C
  C324     1.0000 0.69230  0.25000  0.19230  Biso   1.000  C
  C325     1.0000 0.80770  0.69230  0.25000  Biso   1.000  C
  C326     1.0000 0.19230  0.30770  0.25000  Biso   1.000  C
  C327     1.0000 0.19230  0.69230  0.75000  Biso   1.000  C
  C328     1.0000 0.80770  0.30770  0.75000  Biso   1.000  C
  C329     1.0000 0.25000  0.80770  0.69230  Biso   1.000  C
  C330     1.0000 0.25000  0.19230  0.30770  Biso   1.000  C
  C331     1.0000 0.75000  0.19230  0.69230  Biso   1.000  C
  C332     1.0000 0.75000  0.80770  0.30770  Biso   1.000  C
  C333     1.0000 0.69230  0.25000  0.80770  Biso   1.000  C
  C334     1.0000 0.30770  0.25000  0.19230  Biso   1.000  C
  C335     1.0000 0.69230  0.75000  0.19230  Biso   1.000  C
  C336     1.0000 0.30770  0.75000  0.80770  Biso   1.000  C
  C337     1.0000 0.36640  0.46820  0.00000  Biso   1.000  C
  C338     1.0000 0.63360  0.53180  0.00000  Biso   1.000  C
  C339     1.0000 0.63360  0.46820  0.00000  Biso   1.000  C
  C340     1.0000 0.36640  0.53180  0.00000  Biso   1.000  C
  C341     1.0000 0.00000  0.36640  0.46820  Biso   1.000  C
  C342     1.0000 0.00000  0.63360  0.53180  Biso   1.000  C
  C343     1.0000 0.00000  0.63360  0.46820  Biso   1.000  C
  C344     1.0000 0.00000  0.36640  0.53180  Biso   1.000  C
  C345     1.0000 0.46820  0.00000  0.36640  Biso   1.000  C
  C346     1.0000 0.53180  0.00000  0.63360  Biso   1.000  C
  C347     1.0000 0.46820  0.00000  0.63360  Biso   1.000  C
  C348     1.0000 0.53180  0.00000  0.36640  Biso   1.000  C
  C349     1.0000 0.96820  0.86640  0.50000  Biso   1.000  C
  C350     1.0000 0.03180  0.13360  0.50000  Biso   1.000  C
  C351     1.0000 0.96820  0.13360  0.50000  Biso   1.000  C
  C352     1.0000 0.03180  0.86640  0.50000  Biso   1.000  C
  C353     1.0000 0.86640  0.50000  0.03180  Biso   1.000  C
  C354     1.0000 0.13360  0.50000  0.96820  Biso   1.000  C
  C355     1.0000 0.13360  0.50000  0.03180  Biso   1.000  C
  C356     1.0000 0.86640  0.50000  0.96820  Biso   1.000  C
  C357     1.0000 0.50000  0.96820  0.13360  Biso   1.000  C
  C358     1.0000 0.50000  0.03180  0.86640  Biso   1.000  C
  C359     1.0000 0.50000  0.96820  0.86640  Biso   1.000  C
  C360     1.0000 0.50000  0.03180  0.13360  Biso   1.000  C
  H145     1.0000 0.35320  0.44550  0.00000  Biso   1.000  H
  H146     1.0000 0.64680  0.55450  0.00000  Biso   1.000  H
  H147     1.0000 0.64680  0.44550  0.00000  Biso   1.000  H
  H148     1.0000 0.35320  0.55450  0.00000  Biso   1.000  H
  H149     1.0000 0.00000  0.35320  0.44550  Biso   1.000  H
  H150     1.0000 0.00000  0.64680  0.55450  Biso   1.000  H
  H151     1.0000 0.00000  0.64680  0.44550  Biso   1.000  H
  H152     1.0000 0.00000  0.35320  0.55450  Biso   1.000  H
  H153     1.0000 0.44550  0.00000  0.35320  Biso   1.000  H
  H154     1.0000 0.55450  0.00000  0.64680  Biso   1.000  H
  H155     1.0000 0.44550  0.00000  0.64680  Biso   1.000  H
  H156     1.0000 0.55450  0.00000  0.35320  Biso   1.000  H
  H157     1.0000 0.94550  0.85320  0.50000  Biso   1.000  H
  H158     1.0000 0.05450  0.14680  0.50000  Biso   1.000  H
  H159     1.0000 0.94550  0.14680  0.50000  Biso   1.000  H
  H160     1.0000 0.05450  0.85320  0.50000  Biso   1.000  H
  H161     1.0000 0.85320  0.50000  0.05450  Biso   1.000  H
  H162     1.0000 0.14680  0.50000  0.94550  Biso   1.000  H
  H163     1.0000 0.14680  0.50000  0.05450  Biso   1.000  H
  H164     1.0000 0.85320  0.50000  0.94550  Biso   1.000  H
  H165     1.0000 0.50000  0.94550  0.14680  Biso   1.000  H
  H166     1.0000 0.50000  0.05450  0.85320  Biso   1.000  H
  H167     1.0000 0.50000  0.94550  0.85320  Biso   1.000  H
  H168     1.0000 0.50000  0.05450  0.14680  Biso   1.000  H
  C361     1.0000 0.40460  0.46800  0.00000  Biso   1.000  C
  C362     1.0000 0.59540  0.53200  0.00000  Biso   1.000  C
  C363     1.0000 0.59540  0.46800  0.00000  Biso   1.000  C
  C364     1.0000 0.40460  0.53200  0.00000  Biso   1.000  C
  C365     1.0000 0.00000  0.40460  0.46800  Biso   1.000  C
  C366     1.0000 0.00000  0.59540  0.53200  Biso   1.000  C
  C367     1.0000 0.00000  0.59540  0.46800  Biso   1.000  C
  C368     1.0000 0.00000  0.40460  0.53200  Biso   1.000  C
  C369     1.0000 0.46800  0.00000  0.40460  Biso   1.000  C
  C370     1.0000 0.53200  0.00000  0.59540  Biso   1.000  C
  C371     1.0000 0.46800  0.00000  0.59540  Biso   1.000  C
  C372     1.0000 0.53200  0.00000  0.40460  Biso   1.000  C
  C373     1.0000 0.96800  0.90460  0.50000  Biso   1.000  C
  C374     1.0000 0.03200  0.09540  0.50000  Biso   1.000  C
  C375     1.0000 0.96800  0.09540  0.50000  Biso   1.000  C
  C376     1.0000 0.03200  0.90460  0.50000  Biso   1.000  C
  C377     1.0000 0.90460  0.50000  0.03200  Biso   1.000  C
  C378     1.0000 0.09540  0.50000  0.96800  Biso   1.000  C
  C379     1.0000 0.09540  0.50000  0.03200  Biso   1.000  C
  C380     1.0000 0.90460  0.50000  0.96800  Biso   1.000  C
  C381     1.0000 0.50000  0.96800  0.09540  Biso   1.000  C
  C382     1.0000 0.50000  0.03200  0.90460  Biso   1.000  C
  C383     1.0000 0.50000  0.96800  0.90460  Biso   1.000  C
  C384     1.0000 0.50000  0.03200  0.09540  Biso   1.000  C
  C385     1.0000 0.42430  0.50000  0.00000  Biso   1.000  C
  C386     1.0000 0.57570  0.50000  0.00000  Biso   1.000  C
  C387     1.0000 0.00000  0.42430  0.50000  Biso   1.000  C
  C388     1.0000 0.00000  0.57570  0.50000  Biso   1.000  C
  C389     1.0000 0.50000  0.00000  0.42430  Biso   1.000  C
  C390     1.0000 0.50000  0.00000  0.57570  Biso   1.000  C
  C391     1.0000 0.00000  0.92430  0.50000  Biso   1.000  C
  C392     1.0000 0.00000  0.07570  0.50000  Biso   1.000  C
  C393     1.0000 0.92430  0.50000  0.00000  Biso   1.000  C
  C394     1.0000 0.07570  0.50000  0.00000  Biso   1.000  C
  C395     1.0000 0.50000  0.00000  0.07570  Biso   1.000  C
  C396     1.0000 0.50000  0.00000  0.92430  Biso   1.000  C
  O49      1.0000 0.46170  0.50000  0.00000  Biso   1.000  O
  O50      1.0000 0.53830  0.50000  0.00000  Biso   1.000  O
  O51      1.0000 0.00000  0.46170  0.50000  Biso   1.000  O
  O52      1.0000 0.00000  0.53830  0.50000  Biso   1.000  O
  O53      1.0000 0.50000  0.00000  0.46170  Biso   1.000  O
  O54      1.0000 0.50000  0.00000  0.53830  Biso   1.000  O
  O55      1.0000 0.00000  0.96170  0.50000  Biso   1.000  O
  O56      1.0000 0.00000  0.03830  0.50000  Biso   1.000  O
  O57      1.0000 0.96170  0.50000  0.00000  Biso   1.000  O
  O58      1.0000 0.03830  0.50000  0.00000  Biso   1.000  O
  O59      1.0000 0.50000  0.00000  0.03830  Biso   1.000  O
  O60      1.0000 0.50000  0.00000  0.96170  Biso   1.000  O
  C397     1.0000 0.42220  0.43330  0.98220  Biso   1.000  C
  C398     1.0000 0.57780  0.56670  0.98220  Biso   1.000  C
  C399     1.0000 0.57780  0.43330  0.01780  Biso   1.000  C
  C400     1.0000 0.42220  0.56670  0.01780  Biso   1.000  C
  C401     1.0000 0.98220  0.42220  0.43330  Biso   1.000  C
  C402     1.0000 0.98220  0.57780  0.56670  Biso   1.000  C
  C403     1.0000 0.01780  0.57780  0.43330  Biso   1.000  C
  C404     1.0000 0.01780  0.42220  0.56670  Biso   1.000  C
  C405     1.0000 0.43330  0.98220  0.42220  Biso   1.000  C
  C406     1.0000 0.56670  0.98220  0.57780  Biso   1.000  C
  C407     1.0000 0.43330  0.01780  0.57780  Biso   1.000  C
  C408     1.0000 0.56670  0.01780  0.42220  Biso   1.000  C
  C409     1.0000 0.93330  0.92220  0.51780  Biso   1.000  C
  C410     1.0000 0.06670  0.07780  0.51780  Biso   1.000  C
  C411     1.0000 0.93330  0.07780  0.48220  Biso   1.000  C
  C412     1.0000 0.06670  0.92220  0.48220  Biso   1.000  C
  C413     1.0000 0.92220  0.48220  0.06670  Biso   1.000  C
  C414     1.0000 0.07780  0.48220  0.93330  Biso   1.000  C
  C415     1.0000 0.07780  0.51780  0.06670  Biso   1.000  C
  C416     1.0000 0.92220  0.51780  0.93330  Biso   1.000  C
  C417     1.0000 0.48220  0.93330  0.07780  Biso   1.000  C
  C418     1.0000 0.48220  0.06670  0.92220  Biso   1.000  C
  C419     1.0000 0.51780  0.93330  0.92220  Biso   1.000  C
  C420     1.0000 0.51780  0.06670  0.07780  Biso   1.000  C
  C421     1.0000 0.57780  0.56670  0.01780  Biso   1.000  C
  C422     1.0000 0.42220  0.43330  0.01780  Biso   1.000  C
  C423     1.0000 0.42220  0.56670  0.98220  Biso   1.000  C
  C424     1.0000 0.57780  0.43330  0.98220  Biso   1.000  C
  C425     1.0000 0.01780  0.57780  0.56670  Biso   1.000  C
  C426     1.0000 0.01780  0.42220  0.43330  Biso   1.000  C
  C427     1.0000 0.98220  0.42220  0.56670  Biso   1.000  C
  C428     1.0000 0.98220  0.57780  0.43330  Biso   1.000  C
  C429     1.0000 0.56670  0.01780  0.57780  Biso   1.000  C
  C430     1.0000 0.43330  0.01780  0.42220  Biso   1.000  C
  C431     1.0000 0.56670  0.98220  0.42220  Biso   1.000  C
  C432     1.0000 0.43330  0.98220  0.57780  Biso   1.000  C
  C433     1.0000 0.06670  0.07780  0.48220  Biso   1.000  C
  C434     1.0000 0.93330  0.92220  0.48220  Biso   1.000  C
  C435     1.0000 0.06670  0.92220  0.51780  Biso   1.000  C
  C436     1.0000 0.93330  0.07780  0.51780  Biso   1.000  C
  C437     1.0000 0.07780  0.51780  0.93330  Biso   1.000  C
  C438     1.0000 0.92220  0.51780  0.06670  Biso   1.000  C
  C439     1.0000 0.92220  0.48220  0.93330  Biso   1.000  C
  C440     1.0000 0.07780  0.48220  0.06670  Biso   1.000  C
  C441     1.0000 0.51780  0.06670  0.92220  Biso   1.000  C
  C442     1.0000 0.51780  0.93330  0.07780  Biso   1.000  C
  C443     1.0000 0.48220  0.06670  0.07780  Biso   1.000  C
  C444     1.0000 0.48220  0.93330  0.92220  Biso   1.000  C
  H169     1.0000 0.41220  0.41540  0.96590  Biso   1.000  H
  H170     1.0000 0.58780  0.58460  0.96590  Biso   1.000  H
  H171     1.0000 0.58780  0.41540  0.03410  Biso   1.000  H
  H172     1.0000 0.41220  0.58460  0.03410  Biso   1.000  H
  H173     1.0000 0.96590  0.41220  0.41540  Biso   1.000  H
  H174     1.0000 0.96590  0.58780  0.58460  Biso   1.000  H
  H175     1.0000 0.03410  0.58780  0.41540  Biso   1.000  H
  H176     1.0000 0.03410  0.41220  0.58460  Biso   1.000  H
  H177     1.0000 0.41540  0.96590  0.41220  Biso   1.000  H
  H178     1.0000 0.58460  0.96590  0.58780  Biso   1.000  H
  H179     1.0000 0.41540  0.03410  0.58780  Biso   1.000  H
  H180     1.0000 0.58460  0.03410  0.41220  Biso   1.000  H
  H181     1.0000 0.91540  0.91220  0.53410  Biso   1.000  H
  H182     1.0000 0.08460  0.08780  0.53410  Biso   1.000  H
  H183     1.0000 0.91540  0.08780  0.46590  Biso   1.000  H
  H184     1.0000 0.08460  0.91220  0.46590  Biso   1.000  H
  H185     1.0000 0.91220  0.46590  0.08460  Biso   1.000  H
  H186     1.0000 0.08780  0.46590  0.91540  Biso   1.000  H
  H187     1.0000 0.08780  0.53410  0.08460  Biso   1.000  H
  H188     1.0000 0.91220  0.53410  0.91540  Biso   1.000  H
  H189     1.0000 0.46590  0.91540  0.08780  Biso   1.000  H
  H190     1.0000 0.46590  0.08460  0.91220  Biso   1.000  H
  H191     1.0000 0.53410  0.91540  0.91220  Biso   1.000  H
  H192     1.0000 0.53410  0.08460  0.08780  Biso   1.000  H
  H193     1.0000 0.58780  0.58460  0.03410  Biso   1.000  H
  H194     1.0000 0.41220  0.41540  0.03410  Biso   1.000  H
  H195     1.0000 0.41220  0.58460  0.96590  Biso   1.000  H
  H196     1.0000 0.58780  0.41540  0.96590  Biso   1.000  H
  H197     1.0000 0.03410  0.58780  0.58460  Biso   1.000  H
  H198     1.0000 0.03410  0.41220  0.41540  Biso   1.000  H
  H199     1.0000 0.96590  0.41220  0.58460  Biso   1.000  H
  H200     1.0000 0.96590  0.58780  0.41540  Biso   1.000  H
  H201     1.0000 0.58460  0.03410  0.58780  Biso   1.000  H
  H202     1.0000 0.41540  0.03410  0.41220  Biso   1.000  H
  H203     1.0000 0.58460  0.96590  0.41220  Biso   1.000  H
  H204     1.0000 0.41540  0.96590  0.58780  Biso   1.000  H
  H205     1.0000 0.08460  0.08780  0.46590  Biso   1.000  H
  H206     1.0000 0.91540  0.91220  0.46590  Biso   1.000  H
  H207     1.0000 0.08460  0.91220  0.53410  Biso   1.000  H
  H208     1.0000 0.91540  0.08780  0.53410  Biso   1.000  H
  H209     1.0000 0.08780  0.53410  0.91540  Biso   1.000  H
  H210     1.0000 0.91220  0.53410  0.08460  Biso   1.000  H
  H211     1.0000 0.91220  0.46590  0.91540  Biso   1.000  H
  H212     1.0000 0.08780  0.46590  0.08460  Biso   1.000  H
  H213     1.0000 0.53410  0.08460  0.91220  Biso   1.000  H
  H214     1.0000 0.53410  0.91540  0.08780  Biso   1.000  H
  H215     1.0000 0.46590  0.08460  0.08780  Biso   1.000  H
  H216     1.0000 0.46590  0.91540  0.91220  Biso   1.000  H
  N21      1.0000 0.46310  0.43700  0.00000  Biso   1.000  N
  N22      1.0000 0.53690  0.56300  0.00000  Biso   1.000  N
  N23      1.0000 0.53690  0.43700  0.00000  Biso   1.000  N
  N24      1.0000 0.46310  0.56300  0.00000  Biso   1.000  N
  N25      1.0000 0.00000  0.46310  0.43700  Biso   1.000  N
  N26      1.0000 0.00000  0.53690  0.56300  Biso   1.000  N
  N27      1.0000 0.00000  0.53690  0.43700  Biso   1.000  N
  N28      1.0000 0.00000  0.46310  0.56300  Biso   1.000  N
  N29      1.0000 0.43700  0.00000  0.46310  Biso   1.000  N
  N30      1.0000 0.56300  0.00000  0.53690  Biso   1.000  N
  N31      1.0000 0.43700  0.00000  0.53690  Biso   1.000  N
  N32      1.0000 0.56300  0.00000  0.46310  Biso   1.000  N
  N33      1.0000 0.93700  0.96310  0.50000  Biso   1.000  N
  N34      1.0000 0.06300  0.03690  0.50000  Biso   1.000  N
  N35      1.0000 0.93700  0.03690  0.50000  Biso   1.000  N
  N36      1.0000 0.06300  0.96310  0.50000  Biso   1.000  N
  N37      1.0000 0.96310  0.50000  0.06300  Biso   1.000  N
  N38      1.0000 0.03690  0.50000  0.93700  Biso   1.000  N
  N39      1.0000 0.03690  0.50000  0.06300  Biso   1.000  N
  N40      1.0000 0.96310  0.50000  0.93700  Biso   1.000  N
  N41      1.0000 0.50000  0.93700  0.03690  Biso   1.000  N
  N42      1.0000 0.50000  0.06300  0.96310  Biso   1.000  N
  N43      1.0000 0.50000  0.93700  0.96310  Biso   1.000  N
  N44      1.0000 0.50000  0.06300  0.03690  Biso   1.000  N
  C445     1.0000 0.47940  0.39550  0.00000  Biso   1.000  C
  C446     1.0000 0.52060  0.60450  0.00000  Biso   1.000  C
  C447     1.0000 0.52060  0.39550  0.00000  Biso   1.000  C
  C448     1.0000 0.47940  0.60450  0.00000  Biso   1.000  C
  C449     1.0000 0.00000  0.47940  0.39550  Biso   1.000  C
  C450     1.0000 0.00000  0.52060  0.60450  Biso   1.000  C
  C451     1.0000 0.00000  0.52060  0.39550  Biso   1.000  C
  C452     1.0000 0.00000  0.47940  0.60450  Biso   1.000  C
  C453     1.0000 0.39550  0.00000  0.47940  Biso   1.000  C
  C454     1.0000 0.60450  0.00000  0.52060  Biso   1.000  C
  C455     1.0000 0.39550  0.00000  0.52060  Biso   1.000  C
  C456     1.0000 0.60450  0.00000  0.47940  Biso   1.000  C
  C457     1.0000 0.89550  0.97940  0.50000  Biso   1.000  C
  C458     1.0000 0.10450  0.02060  0.50000  Biso   1.000  C
  C459     1.0000 0.89550  0.02060  0.50000  Biso   1.000  C
  C460     1.0000 0.10450  0.97940  0.50000  Biso   1.000  C
  C461     1.0000 0.97940  0.50000  0.10450  Biso   1.000  C
  C462     1.0000 0.02060  0.50000  0.89550  Biso   1.000  C
  C463     1.0000 0.02060  0.50000  0.10450  Biso   1.000  C
  C464     1.0000 0.97940  0.50000  0.89550  Biso   1.000  C
  C465     1.0000 0.50000  0.89550  0.02060  Biso   1.000  C
  C466     1.0000 0.50000  0.10450  0.97940  Biso   1.000  C
  C467     1.0000 0.50000  0.89550  0.97940  Biso   1.000  C
  C468     1.0000 0.50000  0.10450  0.02060  Biso   1.000  C
  H217     1.0000 0.47040  0.38230  0.02210  Biso   1.000  H
  H218     1.0000 0.52960  0.61770  0.02210  Biso   1.000  H
  H219     1.0000 0.52960  0.38230  0.97790  Biso   1.000  H
  H220     1.0000 0.47040  0.61770  0.97790  Biso   1.000  H
  H221     1.0000 0.02210  0.47040  0.38230  Biso   1.000  H
  H222     1.0000 0.02210  0.52960  0.61770  Biso   1.000  H
  H223     1.0000 0.97790  0.52960  0.38230  Biso   1.000  H
  H224     1.0000 0.97790  0.47040  0.61770  Biso   1.000  H
  H225     1.0000 0.38230  0.02210  0.47040  Biso   1.000  H
  H226     1.0000 0.61770  0.02210  0.52960  Biso   1.000  H
  H227     1.0000 0.38230  0.97790  0.52960  Biso   1.000  H
  H228     1.0000 0.61770  0.97790  0.47040  Biso   1.000  H
  H229     1.0000 0.88230  0.97040  0.47790  Biso   1.000  H
  H230     1.0000 0.11770  0.02960  0.47790  Biso   1.000  H
  H231     1.0000 0.88230  0.02960  0.52210  Biso   1.000  H
  H232     1.0000 0.11770  0.97040  0.52210  Biso   1.000  H
  H233     1.0000 0.97040  0.52210  0.11770  Biso   1.000  H
  H234     1.0000 0.02960  0.52210  0.88230  Biso   1.000  H
  H235     1.0000 0.02960  0.47790  0.11770  Biso   1.000  H
  H236     1.0000 0.97040  0.47790  0.88230  Biso   1.000  H
  H237     1.0000 0.52210  0.88230  0.02960  Biso   1.000  H
  H238     1.0000 0.52210  0.11770  0.97040  Biso   1.000  H
  H239     1.0000 0.47790  0.88230  0.97040  Biso   1.000  H
  H240     1.0000 0.47790  0.11770  0.02960  Biso   1.000  H
  H241     1.0000 0.52960  0.61770  0.97790  Biso   1.000  H
  H242     1.0000 0.47040  0.38230  0.97790  Biso   1.000  H
  H243     1.0000 0.47040  0.61770  0.02210  Biso   1.000  H
  H244     1.0000 0.52960  0.38230  0.02210  Biso   1.000  H
  H245     1.0000 0.97790  0.52960  0.61770  Biso   1.000  H
  H246     1.0000 0.97790  0.47040  0.38230  Biso   1.000  H
  H247     1.0000 0.02210  0.47040  0.61770  Biso   1.000  H
  H248     1.0000 0.02210  0.52960  0.38230  Biso   1.000  H
  H249     1.0000 0.61770  0.97790  0.52960  Biso   1.000  H
  H250     1.0000 0.38230  0.97790  0.47040  Biso   1.000  H
  H251     1.0000 0.61770  0.02210  0.47040  Biso   1.000  H
  H252     1.0000 0.38230  0.02210  0.52960  Biso   1.000  H
  H253     1.0000 0.11770  0.02960  0.52210  Biso   1.000  H
  H254     1.0000 0.88230  0.97040  0.52210  Biso   1.000  H
  H255     1.0000 0.11770  0.97040  0.47790  Biso   1.000  H
  H256     1.0000 0.88230  0.02960  0.47790  Biso   1.000  H
  H257     1.0000 0.02960  0.47790  0.88230  Biso   1.000  H
  H258     1.0000 0.97040  0.47790  0.11770  Biso   1.000  H
  H259     1.0000 0.97040  0.52210  0.88230  Biso   1.000  H
  H260     1.0000 0.02960  0.52210  0.11770  Biso   1.000  H
  H261     1.0000 0.47790  0.11770  0.97040  Biso   1.000  H
  H262     1.0000 0.47790  0.88230  0.02960  Biso   1.000  H
  H263     1.0000 0.52210  0.11770  0.02960  Biso   1.000  H
  H264     1.0000 0.52210  0.88230  0.97040  Biso   1.000  H
  C469     1.0000 0.15250  0.30650  0.76900  Biso   1.000  C
  C470     1.0000 0.84750  0.69350  0.76900  Biso   1.000  C
  C471     1.0000 0.84750  0.30650  0.23100  Biso   1.000  C
  C472     1.0000 0.15250  0.69350  0.23100  Biso   1.000  C
  C473     1.0000 0.76900  0.15250  0.30650  Biso   1.000  C
  C474     1.0000 0.76900  0.84750  0.69350  Biso   1.000  C
  C475     1.0000 0.23100  0.84750  0.30650  Biso   1.000  C
  C476     1.0000 0.23100  0.15250  0.69350  Biso   1.000  C
  C477     1.0000 0.30650  0.76900  0.15250  Biso   1.000  C
  C478     1.0000 0.69350  0.76900  0.84750  Biso   1.000  C
  C479     1.0000 0.30650  0.23100  0.84750  Biso   1.000  C
  C480     1.0000 0.69350  0.23100  0.15250  Biso   1.000  C
  C481     1.0000 0.80650  0.65250  0.73100  Biso   1.000  C
  C482     1.0000 0.19350  0.34750  0.73100  Biso   1.000  C
  C483     1.0000 0.80650  0.34750  0.26900  Biso   1.000  C
  C484     1.0000 0.19350  0.65250  0.26900  Biso   1.000  C
  C485     1.0000 0.65250  0.26900  0.19350  Biso   1.000  C
  C486     1.0000 0.34750  0.26900  0.80650  Biso   1.000  C
  C487     1.0000 0.34750  0.73100  0.19350  Biso   1.000  C
  C488     1.0000 0.65250  0.73100  0.80650  Biso   1.000  C
  C489     1.0000 0.26900  0.80650  0.34750  Biso   1.000  C
  C490     1.0000 0.26900  0.19350  0.65250  Biso   1.000  C
  C491     1.0000 0.73100  0.80650  0.65250  Biso   1.000  C
  C492     1.0000 0.73100  0.19350  0.34750  Biso   1.000  C
  C493     1.0000 0.84750  0.69350  0.23100  Biso   1.000  C
  C494     1.0000 0.15250  0.30650  0.23100  Biso   1.000  C
  C495     1.0000 0.15250  0.69350  0.76900  Biso   1.000  C
  C496     1.0000 0.84750  0.30650  0.76900  Biso   1.000  C
  C497     1.0000 0.23100  0.84750  0.69350  Biso   1.000  C
  C498     1.0000 0.23100  0.15250  0.30650  Biso   1.000  C
  C499     1.0000 0.76900  0.15250  0.69350  Biso   1.000  C
  C500     1.0000 0.76900  0.84750  0.30650  Biso   1.000  C
  C501     1.0000 0.69350  0.23100  0.84750  Biso   1.000  C
  C502     1.0000 0.30650  0.23100  0.15250  Biso   1.000  C
  C503     1.0000 0.69350  0.76900  0.15250  Biso   1.000  C
  C504     1.0000 0.30650  0.76900  0.84750  Biso   1.000  C
  C505     1.0000 0.19350  0.34750  0.26900  Biso   1.000  C
  C506     1.0000 0.80650  0.65250  0.26900  Biso   1.000  C
  C507     1.0000 0.19350  0.65250  0.73100  Biso   1.000  C
  C508     1.0000 0.80650  0.34750  0.73100  Biso   1.000  C
  C509     1.0000 0.34750  0.73100  0.80650  Biso   1.000  C
  C510     1.0000 0.65250  0.73100  0.19350  Biso   1.000  C
  C511     1.0000 0.65250  0.26900  0.80650  Biso   1.000  C
  C512     1.0000 0.34750  0.26900  0.19350  Biso   1.000  C
  C513     1.0000 0.73100  0.19350  0.65250  Biso   1.000  C
  C514     1.0000 0.73100  0.80650  0.34750  Biso   1.000  C
  C515     1.0000 0.26900  0.19350  0.34750  Biso   1.000  C
  C516     1.0000 0.26900  0.80650  0.65250  Biso   1.000  C
  H265     1.0000 0.13340  0.30910  0.75010  Biso   1.000  H
  H266     1.0000 0.86660  0.69090  0.75010  Biso   1.000  H
  H267     1.0000 0.86660  0.30910  0.24990  Biso   1.000  H
  H268     1.0000 0.13340  0.69090  0.24990  Biso   1.000  H
  H269     1.0000 0.75010  0.13340  0.30910  Biso   1.000  H
  H270     1.0000 0.75010  0.86660  0.69090  Biso   1.000  H
  H271     1.0000 0.24990  0.86660  0.30910  Biso   1.000  H
  H272     1.0000 0.24990  0.13340  0.69090  Biso   1.000  H
  H273     1.0000 0.30910  0.75010  0.13340  Biso   1.000  H
  H274     1.0000 0.69090  0.75010  0.86660  Biso   1.000  H
  H275     1.0000 0.30910  0.24990  0.86660  Biso   1.000  H
  H276     1.0000 0.69090  0.24990  0.13340  Biso   1.000  H
  H277     1.0000 0.80910  0.63340  0.74990  Biso   1.000  H
  H278     1.0000 0.19090  0.36660  0.74990  Biso   1.000  H
  H279     1.0000 0.80910  0.36660  0.25010  Biso   1.000  H
  H280     1.0000 0.19090  0.63340  0.25010  Biso   1.000  H
  H281     1.0000 0.63340  0.25010  0.19090  Biso   1.000  H
  H282     1.0000 0.36660  0.25010  0.80910  Biso   1.000  H
  H283     1.0000 0.36660  0.74990  0.19090  Biso   1.000  H
  H284     1.0000 0.63340  0.74990  0.80910  Biso   1.000  H
  H285     1.0000 0.25010  0.80910  0.36660  Biso   1.000  H
  H286     1.0000 0.25010  0.19090  0.63340  Biso   1.000  H
  H287     1.0000 0.74990  0.80910  0.63340  Biso   1.000  H
  H288     1.0000 0.74990  0.19090  0.36660  Biso   1.000  H
  H289     1.0000 0.86660  0.69090  0.24990  Biso   1.000  H
  H290     1.0000 0.13340  0.30910  0.24990  Biso   1.000  H
  H291     1.0000 0.13340  0.69090  0.75010  Biso   1.000  H
  H292     1.0000 0.86660  0.30910  0.75010  Biso   1.000  H
  H293     1.0000 0.24990  0.86660  0.69090  Biso   1.000  H
  H294     1.0000 0.24990  0.13340  0.30910  Biso   1.000  H
  H295     1.0000 0.75010  0.13340  0.69090  Biso   1.000  H
  H296     1.0000 0.75010  0.86660  0.30910  Biso   1.000  H
  H297     1.0000 0.69090  0.24990  0.86660  Biso   1.000  H
  H298     1.0000 0.30910  0.24990  0.13340  Biso   1.000  H
  H299     1.0000 0.69090  0.75010  0.13340  Biso   1.000  H
  H300     1.0000 0.30910  0.75010  0.86660  Biso   1.000  H
  H301     1.0000 0.19090  0.36660  0.25010  Biso   1.000  H
  H302     1.0000 0.80910  0.63340  0.25010  Biso   1.000  H
  H303     1.0000 0.19090  0.63340  0.74990  Biso   1.000  H
  H304     1.0000 0.80910  0.36660  0.74990  Biso   1.000  H
  H305     1.0000 0.36660  0.74990  0.80910  Biso   1.000  H
  H306     1.0000 0.63340  0.74990  0.19090  Biso   1.000  H
  H307     1.0000 0.63340  0.25010  0.80910  Biso   1.000  H
  H308     1.0000 0.36660  0.25010  0.19090  Biso   1.000  H
  H309     1.0000 0.74990  0.19090  0.63340  Biso   1.000  H
  H310     1.0000 0.74990  0.80910  0.36660  Biso   1.000  H
  H311     1.0000 0.25010  0.19090  0.36660  Biso   1.000  H
  H312     1.0000 0.25010  0.80910  0.63340  Biso   1.000  H
  H313     1.0000 0.14940  0.28300  0.78190  Biso   1.000  H
  H314     1.0000 0.85060  0.71700  0.78190  Biso   1.000  H
  H315     1.0000 0.85060  0.28300  0.21810  Biso   1.000  H
  H316     1.0000 0.14940  0.71700  0.21810  Biso   1.000  H
  H317     1.0000 0.78190  0.14940  0.28300  Biso   1.000  H
  H318     1.0000 0.78190  0.85060  0.71700  Biso   1.000  H
  H319     1.0000 0.21810  0.85060  0.28300  Biso   1.000  H
  H320     1.0000 0.21810  0.14940  0.71700  Biso   1.000  H
  H321     1.0000 0.28300  0.78190  0.14940  Biso   1.000  H
  H322     1.0000 0.71700  0.78190  0.85060  Biso   1.000  H
  H323     1.0000 0.28300  0.21810  0.85060  Biso   1.000  H
  H324     1.0000 0.71700  0.21810  0.14940  Biso   1.000  H
  H325     1.0000 0.78300  0.64940  0.71810  Biso   1.000  H
  H326     1.0000 0.21700  0.35060  0.71810  Biso   1.000  H
  H327     1.0000 0.78300  0.35060  0.28190  Biso   1.000  H
  H328     1.0000 0.21700  0.64940  0.28190  Biso   1.000  H
  H329     1.0000 0.64940  0.28190  0.21700  Biso   1.000  H
  H330     1.0000 0.35060  0.28190  0.78300  Biso   1.000  H
  H331     1.0000 0.35060  0.71810  0.21700  Biso   1.000  H
  H332     1.0000 0.64940  0.71810  0.78300  Biso   1.000  H
  H333     1.0000 0.28190  0.78300  0.35060  Biso   1.000  H
  H334     1.0000 0.28190  0.21700  0.64940  Biso   1.000  H
  H335     1.0000 0.71810  0.78300  0.64940  Biso   1.000  H
  H336     1.0000 0.71810  0.21700  0.35060  Biso   1.000  H
  H337     1.0000 0.85060  0.71700  0.21810  Biso   1.000  H
  H338     1.0000 0.14940  0.28300  0.21810  Biso   1.000  H
  H339     1.0000 0.14940  0.71700  0.78190  Biso   1.000  H
  H340     1.0000 0.85060  0.28300  0.78190  Biso   1.000  H
  H341     1.0000 0.21810  0.85060  0.71700  Biso   1.000  H
  H342     1.0000 0.21810  0.14940  0.28300  Biso   1.000  H
  H343     1.0000 0.78190  0.14940  0.71700  Biso   1.000  H
  H344     1.0000 0.78190  0.85060  0.28300  Biso   1.000  H
  H345     1.0000 0.71700  0.21810  0.85060  Biso   1.000  H
  H346     1.0000 0.28300  0.21810  0.14940  Biso   1.000  H
  H347     1.0000 0.71700  0.78190  0.14940  Biso   1.000  H
  H348     1.0000 0.28300  0.78190  0.85060  Biso   1.000  H
  H349     1.0000 0.21700  0.35060  0.28190  Biso   1.000  H
  H350     1.0000 0.78300  0.64940  0.28190  Biso   1.000  H
  H351     1.0000 0.21700  0.64940  0.71810  Biso   1.000  H
  H352     1.0000 0.78300  0.35060  0.71810  Biso   1.000  H
  H353     1.0000 0.35060  0.71810  0.78300  Biso   1.000  H
  H354     1.0000 0.64940  0.71810  0.21700  Biso   1.000  H
  H355     1.0000 0.64940  0.28190  0.78300  Biso   1.000  H
  H356     1.0000 0.35060  0.28190  0.21700  Biso   1.000  H
  H357     1.0000 0.71810  0.21700  0.64940  Biso   1.000  H
  H358     1.0000 0.71810  0.78300  0.35060  Biso   1.000  H
  H359     1.0000 0.28190  0.21700  0.35060  Biso   1.000  H
  H360     1.0000 0.28190  0.78300  0.64940  Biso   1.000  H
  H361     1.0000 0.15040  0.32680  0.78680  Biso   1.000  H
  H362     1.0000 0.84960  0.67320  0.78680  Biso   1.000  H
  H363     1.0000 0.84960  0.32680  0.21320  Biso   1.000  H
  H364     1.0000 0.15040  0.67320  0.21320  Biso   1.000  H
  H365     1.0000 0.78680  0.15040  0.32680  Biso   1.000  H
  H366     1.0000 0.78680  0.84960  0.67320  Biso   1.000  H
  H367     1.0000 0.21320  0.84960  0.32680  Biso   1.000  H
  H368     1.0000 0.21320  0.15040  0.67320  Biso   1.000  H
  H369     1.0000 0.32680  0.78680  0.15040  Biso   1.000  H
  H370     1.0000 0.67320  0.78680  0.84960  Biso   1.000  H
  H371     1.0000 0.32680  0.21320  0.84960  Biso   1.000  H
  H372     1.0000 0.67320  0.21320  0.15040  Biso   1.000  H
  H373     1.0000 0.82680  0.65040  0.71320  Biso   1.000  H
  H374     1.0000 0.17320  0.34960  0.71320  Biso   1.000  H
  H375     1.0000 0.82680  0.34960  0.28680  Biso   1.000  H
  H376     1.0000 0.17320  0.65040  0.28680  Biso   1.000  H
  H377     1.0000 0.65040  0.28680  0.17320  Biso   1.000  H
  H378     1.0000 0.34960  0.28680  0.82680  Biso   1.000  H
  H379     1.0000 0.34960  0.71320  0.17320  Biso   1.000  H
  H380     1.0000 0.65040  0.71320  0.82680  Biso   1.000  H
  H381     1.0000 0.28680  0.82680  0.34960  Biso   1.000  H
  H382     1.0000 0.28680  0.17320  0.65040  Biso   1.000  H
  H383     1.0000 0.71320  0.82680  0.65040  Biso   1.000  H
  H384     1.0000 0.71320  0.17320  0.34960  Biso   1.000  H
  H385     1.0000 0.84960  0.67320  0.21320  Biso   1.000  H
  H386     1.0000 0.15040  0.32680  0.21320  Biso   1.000  H
  H387     1.0000 0.15040  0.67320  0.78680  Biso   1.000  H
  H388     1.0000 0.84960  0.32680  0.78680  Biso   1.000  H
  H389     1.0000 0.21320  0.84960  0.67320  Biso   1.000  H
  H390     1.0000 0.21320  0.15040  0.32680  Biso   1.000  H
  H391     1.0000 0.78680  0.15040  0.67320  Biso   1.000  H
  H392     1.0000 0.78680  0.84960  0.32680  Biso   1.000  H
  H393     1.0000 0.67320  0.21320  0.84960  Biso   1.000  H
  H394     1.0000 0.32680  0.21320  0.15040  Biso   1.000  H
  H395     1.0000 0.67320  0.78680  0.15040  Biso   1.000  H
  H396     1.0000 0.32680  0.78680  0.84960  Biso   1.000  H
  H397     1.0000 0.17320  0.34960  0.28680  Biso   1.000  H
  H398     1.0000 0.82680  0.65040  0.28680  Biso   1.000  H
  H399     1.0000 0.17320  0.65040  0.71320  Biso   1.000  H
  H400     1.0000 0.82680  0.34960  0.71320  Biso   1.000  H
  H401     1.0000 0.34960  0.71320  0.82680  Biso   1.000  H
  H402     1.0000 0.65040  0.71320  0.17320  Biso   1.000  H
  H403     1.0000 0.65040  0.28680  0.82680  Biso   1.000  H
  H404     1.0000 0.34960  0.28680  0.17320  Biso   1.000  H
  H405     1.0000 0.71320  0.17320  0.65040  Biso   1.000  H
  H406     1.0000 0.71320  0.82680  0.34960  Biso   1.000  H
  H407     1.0000 0.28680  0.17320  0.34960  Biso   1.000  H
  H408     1.0000 0.28680  0.82680  0.65040  Biso   1.000  H
  Cu25     1.0000 0.50000  0.50000  0.02030  Biso   1.000  Cu
  Cu26     1.0000 0.50000  0.50000  0.97970  Biso   1.000  Cu
  Cu27     1.0000 0.02030  0.50000  0.50000  Biso   1.000  Cu
  Cu28     1.0000 0.97970  0.50000  0.50000  Biso   1.000  Cu
  Cu29     1.0000 0.50000  0.02030  0.50000  Biso   1.000  Cu
  Cu30     1.0000 0.50000  0.97970  0.50000  Biso   1.000  Cu
  Cu31     1.0000 0.00000  0.00000  0.47970  Biso   1.000  Cu
  Cu32     1.0000 0.00000  0.00000  0.52030  Biso   1.000  Cu
  Cu33     1.0000 0.00000  0.52030  0.00000  Biso   1.000  Cu
  Cu34     1.0000 0.00000  0.47970  0.00000  Biso   1.000  Cu
  Cu35     1.0000 0.52030  0.00000  0.00000  Biso   1.000  Cu
  Cu36     1.0000 0.47970  0.00000  0.00000  Biso   1.000  Cu
