data_image0
_cell_length_a       35.51
_cell_length_b       35.51
_cell_length_c       35.51
_cell_angle_alpha    90
_cell_angle_beta     90
_cell_angle_gamma    90

_symmetry_space_group_name_H-M    "P 1"
_symmetry_int_tables_number       1

loop_
  _symmetry_equiv_pos_as_xyz
  'x, y, z'

loop_
  _atom_site_label
  _atom_site_occupancy
  _atom_site_fract_x
  _atom_site_fract_y
  _atom_site_fract_z
  _atom_site_thermal_displace_type
  _atom_site_B_iso_or_equiv
  _atom_site_type_symbol
  Cu1      1.0000 0.00000  0.50000  0.71224  Biso   1.000  Cu
  Cu2      1.0000 0.00000  0.50000  0.28776  Biso   1.000  Cu
  Cu3      1.0000 0.71224  0.00000  0.50000  Biso   1.000  Cu
  Cu4      1.0000 0.28776  0.00000  0.50000  Biso   1.000  Cu
  Cu5      1.0000 0.50000  0.71224  0.00000  Biso   1.000  Cu
  Cu6      1.0000 0.50000  0.28776  0.00000  Biso   1.000  Cu
  Cu7      1.0000 0.00000  0.50000  0.78776  Biso   1.000  Cu
  Cu8      1.0000 0.00000  0.50000  0.21224  Biso   1.000  Cu
  Cu9      1.0000 0.50000  0.21224  0.00000  Biso   1.000  Cu
  Cu10     1.0000 0.50000  0.78776  0.00000  Biso   1.000  Cu
  Cu11     1.0000 0.21224  0.00000  0.50000  Biso   1.000  Cu
  Cu12     1.0000 0.78776  0.00000  0.50000  Biso   1.000  Cu
  O1       1.0000 0.03881  0.53873  0.71846  Biso   1.000  O
  O2       1.0000 0.96119  0.46127  0.71846  Biso   1.000  O
  O3       1.0000 0.96119  0.53873  0.28154  Biso   1.000  O
  O4       1.0000 0.03881  0.46127  0.28154  Biso   1.000  O
  O5       1.0000 0.71846  0.03881  0.53873  Biso   1.000  O
  O6       1.0000 0.71846  0.96119  0.46127  Biso   1.000  O
  O7       1.0000 0.28154  0.96119  0.53873  Biso   1.000  O
  O8       1.0000 0.28154  0.03881  0.46127  Biso   1.000  O
  O9       1.0000 0.53873  0.71846  0.03881  Biso   1.000  O
  O10      1.0000 0.46127  0.71846  0.96119  Biso   1.000  O
  O11      1.0000 0.53873  0.28154  0.96119  Biso   1.000  O
  O12      1.0000 0.46127  0.28154  0.03881  Biso   1.000  O
  O13      1.0000 0.03873  0.53881  0.78154  Biso   1.000  O
  O14      1.0000 0.96127  0.46119  0.78154  Biso   1.000  O
  O15      1.0000 0.03873  0.46119  0.21846  Biso   1.000  O
  O16      1.0000 0.96127  0.53881  0.21846  Biso   1.000  O
  O17      1.0000 0.53881  0.21846  0.96127  Biso   1.000  O
  O18      1.0000 0.46119  0.21846  0.03873  Biso   1.000  O
  O19      1.0000 0.46119  0.78154  0.96127  Biso   1.000  O
  O20      1.0000 0.53881  0.78154  0.03873  Biso   1.000  O
  O21      1.0000 0.21846  0.03873  0.46119  Biso   1.000  O
  O22      1.0000 0.21846  0.96127  0.53881  Biso   1.000  O
  O23      1.0000 0.78154  0.03873  0.53881  Biso   1.000  O
  O24      1.0000 0.78154  0.96127  0.46119  Biso   1.000  O
  O25      1.0000 0.96119  0.46127  0.28154  Biso   1.000  O
  O26      1.0000 0.03881  0.53873  0.28154  Biso   1.000  O
  O27      1.0000 0.03881  0.46127  0.71846  Biso   1.000  O
  O28      1.0000 0.96119  0.53873  0.71846  Biso   1.000  O
  O29      1.0000 0.28154  0.96119  0.46127  Biso   1.000  O
  O30      1.0000 0.28154  0.03881  0.53873  Biso   1.000  O
  O31      1.0000 0.71846  0.03881  0.46127  Biso   1.000  O
  O32      1.0000 0.71846  0.96119  0.53873  Biso   1.000  O
  O33      1.0000 0.46127  0.28154  0.96119  Biso   1.000  O
  O34      1.0000 0.53873  0.28154  0.03881  Biso   1.000  O
  O35      1.0000 0.46127  0.71846  0.03881  Biso   1.000  O
  O36      1.0000 0.53873  0.71846  0.96119  Biso   1.000  O
  O37      1.0000 0.96127  0.46119  0.21846  Biso   1.000  O
  O38      1.0000 0.03873  0.53881  0.21846  Biso   1.000  O
  O39      1.0000 0.96127  0.53881  0.78154  Biso   1.000  O
  O40      1.0000 0.03873  0.46119  0.78154  Biso   1.000  O
  O41      1.0000 0.46119  0.78154  0.03873  Biso   1.000  O
  O42      1.0000 0.53881  0.78154  0.96127  Biso   1.000  O
  O43      1.0000 0.53881  0.21846  0.03873  Biso   1.000  O
  O44      1.0000 0.46119  0.21846  0.96127  Biso   1.000  O
  O45      1.0000 0.78154  0.96127  0.53881  Biso   1.000  O
  O46      1.0000 0.78154  0.03873  0.46119  Biso   1.000  O
  O47      1.0000 0.21846  0.96127  0.46119  Biso   1.000  O
  O48      1.0000 0.21846  0.03873  0.53881  Biso   1.000  O
  N1       1.0000 0.00000  0.50000  0.65282  Biso   1.000  N
  N2       1.0000 0.00000  0.50000  0.34718  Biso   1.000  N
  N3       1.0000 0.65282  0.00000  0.50000  Biso   1.000  N
  N4       1.0000 0.34718  0.00000  0.50000  Biso   1.000  N
  N5       1.0000 0.50000  0.65282  0.00000  Biso   1.000  N
  N6       1.0000 0.50000  0.34718  0.00000  Biso   1.000  N
  N7       1.0000 0.00000  0.50000  0.84718  Biso   1.000  N
  N8       1.0000 0.00000  0.50000  0.15282  Biso   1.000  N
  N9       1.0000 0.50000  0.15282  0.00000  Biso   1.000  N
  N10      1.0000 0.50000  0.84718  0.00000  Biso   1.000  N
  N11      1.0000 0.15282  0.00000  0.50000  Biso   1.000  N
  N12      1.0000 0.84718  0.00000  0.50000  Biso   1.000  N
  C1       1.0000 0.05043  0.55043  0.75000  Biso   1.000  C
  C2       1.0000 0.94957  0.44957  0.75000  Biso   1.000  C
  C3       1.0000 0.94957  0.55043  0.25000  Biso   1.000  C
  C4       1.0000 0.05043  0.44957  0.25000  Biso   1.000  C
  C5       1.0000 0.75000  0.05043  0.55043  Biso   1.000  C
  C6       1.0000 0.75000  0.94957  0.44957  Biso   1.000  C
  C7       1.0000 0.25000  0.94957  0.55043  Biso   1.000  C
  C8       1.0000 0.25000  0.05043  0.44957  Biso   1.000  C
  C9       1.0000 0.55043  0.75000  0.05043  Biso   1.000  C
  C10      1.0000 0.44957  0.75000  0.94957  Biso   1.000  C
  C11      1.0000 0.55043  0.25000  0.94957  Biso   1.000  C
  C12      1.0000 0.44957  0.25000  0.05043  Biso   1.000  C
  C13      1.0000 0.94957  0.44957  0.25000  Biso   1.000  C
  C14      1.0000 0.05043  0.55043  0.25000  Biso   1.000  C
  C15      1.0000 0.05043  0.44957  0.75000  Biso   1.000  C
  C16      1.0000 0.94957  0.55043  0.75000  Biso   1.000  C
  C17      1.0000 0.25000  0.94957  0.44957  Biso   1.000  C
  C18      1.0000 0.25000  0.05043  0.55043  Biso   1.000  C
  C19      1.0000 0.75000  0.05043  0.44957  Biso   1.000  C
  C20      1.0000 0.75000  0.94957  0.55043  Biso   1.000  C
  C21      1.0000 0.44957  0.25000  0.94957  Biso   1.000  C
  C22      1.0000 0.55043  0.25000  0.05043  Biso   1.000  C
  C23      1.0000 0.44957  0.75000  0.05043  Biso   1.000  C
  C24      1.0000 0.55043  0.75000  0.94957  Biso   1.000  C
  C25      1.0000 0.03030  0.50000  0.63334  Biso   1.000  C
  C26      1.0000 0.96970  0.50000  0.63334  Biso   1.000  C
  C27      1.0000 0.96970  0.50000  0.36666  Biso   1.000  C
  C28      1.0000 0.03030  0.50000  0.36666  Biso   1.000  C
  C29      1.0000 0.63334  0.03030  0.50000  Biso   1.000  C
  C30      1.0000 0.63334  0.96970  0.50000  Biso   1.000  C
  C31      1.0000 0.36666  0.96970  0.50000  Biso   1.000  C
  C32      1.0000 0.36666  0.03030  0.50000  Biso   1.000  C
  C33      1.0000 0.50000  0.63334  0.03030  Biso   1.000  C
  C34      1.0000 0.50000  0.63334  0.96970  Biso   1.000  C
  C35      1.0000 0.50000  0.36666  0.96970  Biso   1.000  C
  C36      1.0000 0.50000  0.36666  0.03030  Biso   1.000  C
  C37      1.0000 0.00000  0.53030  0.86666  Biso   1.000  C
  C38      1.0000 0.00000  0.46970  0.86666  Biso   1.000  C
  C39      1.0000 0.00000  0.46970  0.13334  Biso   1.000  C
  C40      1.0000 0.00000  0.53030  0.13334  Biso   1.000  C
  C41      1.0000 0.53030  0.13334  0.00000  Biso   1.000  C
  C42      1.0000 0.46970  0.13334  0.00000  Biso   1.000  C
  C43      1.0000 0.46970  0.86666  0.00000  Biso   1.000  C
  C44      1.0000 0.53030  0.86666  0.00000  Biso   1.000  C
  C45      1.0000 0.13334  0.00000  0.46970  Biso   1.000  C
  C46      1.0000 0.13334  0.00000  0.53030  Biso   1.000  C
  C47      1.0000 0.86666  0.00000  0.53030  Biso   1.000  C
  C48      1.0000 0.86666  0.00000  0.46970  Biso   1.000  C
  C49      1.0000 0.08019  0.58019  0.75000  Biso   1.000  C
  C50      1.0000 0.91981  0.41981  0.75000  Biso   1.000  C
  C51      1.0000 0.91981  0.58019  0.25000  Biso   1.000  C
  C52      1.0000 0.08019  0.41981  0.25000  Biso   1.000  C
  C53      1.0000 0.75000  0.08019  0.58019  Biso   1.000  C
  C54      1.0000 0.75000  0.91981  0.41981  Biso   1.000  C
  C55      1.0000 0.25000  0.91981  0.58019  Biso   1.000  C
  C56      1.0000 0.25000  0.08019  0.41981  Biso   1.000  C
  C57      1.0000 0.58019  0.75000  0.08019  Biso   1.000  C
  C58      1.0000 0.41981  0.75000  0.91981  Biso   1.000  C
  C59      1.0000 0.58019  0.25000  0.91981  Biso   1.000  C
  C60      1.0000 0.41981  0.25000  0.08019  Biso   1.000  C
  C61      1.0000 0.91981  0.41981  0.25000  Biso   1.000  C
  C62      1.0000 0.08019  0.58019  0.25000  Biso   1.000  C
  C63      1.0000 0.08019  0.41981  0.75000  Biso   1.000  C
  C64      1.0000 0.91981  0.58019  0.75000  Biso   1.000  C
  C65      1.0000 0.25000  0.91981  0.41981  Biso   1.000  C
  C66      1.0000 0.25000  0.08019  0.58019  Biso   1.000  C
  C67      1.0000 0.75000  0.08019  0.41981  Biso   1.000  C
  C68      1.0000 0.75000  0.91981  0.58019  Biso   1.000  C
  C69      1.0000 0.41981  0.25000  0.91981  Biso   1.000  C
  C70      1.0000 0.58019  0.25000  0.08019  Biso   1.000  C
  C71      1.0000 0.41981  0.75000  0.08019  Biso   1.000  C
  C72      1.0000 0.58019  0.75000  0.91981  Biso   1.000  C
  H1       1.0000 0.05320  0.50000  0.64610  Biso   1.000  H
  H2       1.0000 0.94680  0.50000  0.64610  Biso   1.000  H
  H3       1.0000 0.94680  0.50000  0.35390  Biso   1.000  H
  H4       1.0000 0.05320  0.50000  0.35390  Biso   1.000  H
  H5       1.0000 0.64610  0.05320  0.50000  Biso   1.000  H
  H6       1.0000 0.64610  0.94680  0.50000  Biso   1.000  H
  H7       1.0000 0.35390  0.94680  0.50000  Biso   1.000  H
  H8       1.0000 0.35390  0.05320  0.50000  Biso   1.000  H
  H9       1.0000 0.50000  0.64610  0.05320  Biso   1.000  H
  H10      1.0000 0.50000  0.64610  0.94680  Biso   1.000  H
  H11      1.0000 0.50000  0.35390  0.94680  Biso   1.000  H
  H12      1.0000 0.50000  0.35390  0.05320  Biso   1.000  H
  H13      1.0000 0.00000  0.55320  0.85390  Biso   1.000  H
  H14      1.0000 0.00000  0.44680  0.85390  Biso   1.000  H
  H15      1.0000 0.00000  0.44680  0.14610  Biso   1.000  H
  H16      1.0000 0.00000  0.55320  0.14610  Biso   1.000  H
  H17      1.0000 0.55320  0.14610  0.00000  Biso   1.000  H
  H18      1.0000 0.44680  0.14610  0.00000  Biso   1.000  H
  H19      1.0000 0.44680  0.85390  0.00000  Biso   1.000  H
  H20      1.0000 0.55320  0.85390  0.00000  Biso   1.000  H
  H21      1.0000 0.14610  0.00000  0.44680  Biso   1.000  H
  H22      1.0000 0.14610  0.00000  0.55320  Biso   1.000  H
  H23      1.0000 0.85390  0.00000  0.55320  Biso   1.000  H
  H24      1.0000 0.85390  0.00000  0.44680  Biso   1.000  H
  C73      1.0000 0.03110  0.50000  0.59320  Biso   1.000  C
  C74      1.0000 0.96890  0.50000  0.59320  Biso   1.000  C
  C75      1.0000 0.96890  0.50000  0.40680  Biso   1.000  C
  C76      1.0000 0.03110  0.50000  0.40680  Biso   1.000  C
  C77      1.0000 0.59320  0.03110  0.50000  Biso   1.000  C
  C78      1.0000 0.59320  0.96890  0.50000  Biso   1.000  C
  C79      1.0000 0.40680  0.96890  0.50000  Biso   1.000  C
  C80      1.0000 0.40680  0.03110  0.50000  Biso   1.000  C
  C81      1.0000 0.50000  0.59320  0.03110  Biso   1.000  C
  C82      1.0000 0.50000  0.59320  0.96890  Biso   1.000  C
  C83      1.0000 0.50000  0.40680  0.96890  Biso   1.000  C
  C84      1.0000 0.50000  0.40680  0.03110  Biso   1.000  C
  C85      1.0000 0.00000  0.53110  0.90680  Biso   1.000  C
  C86      1.0000 0.00000  0.46890  0.90680  Biso   1.000  C
  C87      1.0000 0.00000  0.46890  0.09320  Biso   1.000  C
  C88      1.0000 0.00000  0.53110  0.09320  Biso   1.000  C
  C89      1.0000 0.53110  0.09320  0.00000  Biso   1.000  C
  C90      1.0000 0.46890  0.09320  0.00000  Biso   1.000  C
  C91      1.0000 0.46890  0.90680  0.00000  Biso   1.000  C
  C92      1.0000 0.53110  0.90680  0.00000  Biso   1.000  C
  C93      1.0000 0.09320  0.00000  0.46890  Biso   1.000  C
  C94      1.0000 0.09320  0.00000  0.53110  Biso   1.000  C
  C95      1.0000 0.90680  0.00000  0.53110  Biso   1.000  C
  C96      1.0000 0.90680  0.00000  0.46890  Biso   1.000  C
  C97      1.0000 0.09576  0.59303  0.78274  Biso   1.000  C
  C98      1.0000 0.90424  0.40697  0.78274  Biso   1.000  C
  C99      1.0000 0.90424  0.59303  0.21726  Biso   1.000  C
  C100     1.0000 0.09576  0.40697  0.21726  Biso   1.000  C
  C101     1.0000 0.78274  0.09576  0.59303  Biso   1.000  C
  C102     1.0000 0.78274  0.90424  0.40697  Biso   1.000  C
  C103     1.0000 0.21726  0.90424  0.59303  Biso   1.000  C
  C104     1.0000 0.21726  0.09576  0.40697  Biso   1.000  C
  C105     1.0000 0.59303  0.78274  0.09576  Biso   1.000  C
  C106     1.0000 0.40697  0.78274  0.90424  Biso   1.000  C
  C107     1.0000 0.59303  0.21726  0.90424  Biso   1.000  C
  C108     1.0000 0.40697  0.21726  0.09576  Biso   1.000  C
  C109     1.0000 0.09303  0.59576  0.71726  Biso   1.000  C
  C110     1.0000 0.90697  0.40424  0.71726  Biso   1.000  C
  C111     1.0000 0.09303  0.40424  0.28274  Biso   1.000  C
  C112     1.0000 0.90697  0.59576  0.28274  Biso   1.000  C
  C113     1.0000 0.59576  0.28274  0.90697  Biso   1.000  C
  C114     1.0000 0.40424  0.28274  0.09303  Biso   1.000  C
  C115     1.0000 0.40424  0.71726  0.90697  Biso   1.000  C
  C116     1.0000 0.59576  0.71726  0.09303  Biso   1.000  C
  C117     1.0000 0.28274  0.09303  0.40424  Biso   1.000  C
  C118     1.0000 0.28274  0.90697  0.59576  Biso   1.000  C
  C119     1.0000 0.71726  0.09303  0.59576  Biso   1.000  C
  C120     1.0000 0.71726  0.90697  0.40424  Biso   1.000  C
  C121     1.0000 0.90424  0.40697  0.21726  Biso   1.000  C
  C122     1.0000 0.09576  0.59303  0.21726  Biso   1.000  C
  C123     1.0000 0.09576  0.40697  0.78274  Biso   1.000  C
  C124     1.0000 0.90424  0.59303  0.78274  Biso   1.000  C
  C125     1.0000 0.21726  0.90424  0.40697  Biso   1.000  C
  C126     1.0000 0.21726  0.09576  0.59303  Biso   1.000  C
  C127     1.0000 0.78274  0.09576  0.40697  Biso   1.000  C
  C128     1.0000 0.78274  0.90424  0.59303  Biso   1.000  C
  C129     1.0000 0.40697  0.21726  0.90424  Biso   1.000  C
  C130     1.0000 0.59303  0.21726  0.09576  Biso   1.000  C
  C131     1.0000 0.40697  0.78274  0.09576  Biso   1.000  C
  C132     1.0000 0.59303  0.78274  0.90424  Biso   1.000  C
  C133     1.0000 0.90697  0.40424  0.28274  Biso   1.000  C
  C134     1.0000 0.09303  0.59576  0.28274  Biso   1.000  C
  C135     1.0000 0.90697  0.59576  0.71726  Biso   1.000  C
  C136     1.0000 0.09303  0.40424  0.71726  Biso   1.000  C
  C137     1.0000 0.40424  0.71726  0.09303  Biso   1.000  C
  C138     1.0000 0.59576  0.71726  0.90697  Biso   1.000  C
  C139     1.0000 0.59576  0.28274  0.09303  Biso   1.000  C
  C140     1.0000 0.40424  0.28274  0.90697  Biso   1.000  C
  C141     1.0000 0.71726  0.90697  0.59576  Biso   1.000  C
  C142     1.0000 0.71726  0.09303  0.40424  Biso   1.000  C
  C143     1.0000 0.28274  0.90697  0.40424  Biso   1.000  C
  C144     1.0000 0.28274  0.09303  0.59576  Biso   1.000  C
  C145     1.0000 0.00000  0.50000  0.57440  Biso   1.000  C
  C146     1.0000 0.00000  0.50000  0.42560  Biso   1.000  C
  C147     1.0000 0.57440  0.00000  0.50000  Biso   1.000  C
  C148     1.0000 0.42560  0.00000  0.50000  Biso   1.000  C
  C149     1.0000 0.50000  0.57440  0.00000  Biso   1.000  C
  C150     1.0000 0.50000  0.42560  0.00000  Biso   1.000  C
  C151     1.0000 0.00000  0.50000  0.92560  Biso   1.000  C
  C152     1.0000 0.00000  0.50000  0.07440  Biso   1.000  C
  C153     1.0000 0.50000  0.07440  0.00000  Biso   1.000  C
  C154     1.0000 0.50000  0.92560  0.00000  Biso   1.000  C
  C155     1.0000 0.07440  0.00000  0.50000  Biso   1.000  C
  C156     1.0000 0.92560  0.00000  0.50000  Biso   1.000  C
  C157     1.0000 0.06900  0.50000  0.57540  Biso   1.000  C
  C158     1.0000 0.93100  0.50000  0.57540  Biso   1.000  C
  C159     1.0000 0.93100  0.50000  0.42460  Biso   1.000  C
  C160     1.0000 0.06900  0.50000  0.42460  Biso   1.000  C
  C161     1.0000 0.57540  0.06900  0.50000  Biso   1.000  C
  C162     1.0000 0.57540  0.93100  0.50000  Biso   1.000  C
  C163     1.0000 0.42460  0.93100  0.50000  Biso   1.000  C
  C164     1.0000 0.42460  0.06900  0.50000  Biso   1.000  C
  C165     1.0000 0.50000  0.57540  0.06900  Biso   1.000  C
  C166     1.0000 0.50000  0.57540  0.93100  Biso   1.000  C
  C167     1.0000 0.50000  0.42460  0.93100  Biso   1.000  C
  C168     1.0000 0.50000  0.42460  0.06900  Biso   1.000  C
  C169     1.0000 0.00000  0.56900  0.92460  Biso   1.000  C
  C170     1.0000 0.00000  0.43100  0.92460  Biso   1.000  C
  C171     1.0000 0.00000  0.43100  0.07540  Biso   1.000  C
  C172     1.0000 0.00000  0.56900  0.07540  Biso   1.000  C
  C173     1.0000 0.56900  0.07540  0.00000  Biso   1.000  C
  C174     1.0000 0.43100  0.07540  0.00000  Biso   1.000  C
  C175     1.0000 0.43100  0.92460  0.00000  Biso   1.000  C
  C176     1.0000 0.56900  0.92460  0.00000  Biso   1.000  C
  C177     1.0000 0.07540  0.00000  0.43100  Biso   1.000  C
  C178     1.0000 0.07540  0.00000  0.56900  Biso   1.000  C
  C179     1.0000 0.92460  0.00000  0.56900  Biso   1.000  C
  C180     1.0000 0.92460  0.00000  0.43100  Biso   1.000  C
  H25      1.0000 0.08800  0.58280  0.80560  Biso   1.000  H
  H26      1.0000 0.91200  0.41720  0.80560  Biso   1.000  H
  H27      1.0000 0.91200  0.58280  0.19440  Biso   1.000  H
  H28      1.0000 0.08800  0.41720  0.19440  Biso   1.000  H
  H29      1.0000 0.80560  0.08800  0.58280  Biso   1.000  H
  H30      1.0000 0.80560  0.91200  0.41720  Biso   1.000  H
  H31      1.0000 0.19440  0.91200  0.58280  Biso   1.000  H
  H32      1.0000 0.19440  0.08800  0.41720  Biso   1.000  H
  H33      1.0000 0.58280  0.80560  0.08800  Biso   1.000  H
  H34      1.0000 0.41720  0.80560  0.91200  Biso   1.000  H
  H35      1.0000 0.58280  0.19440  0.91200  Biso   1.000  H
  H36      1.0000 0.41720  0.19440  0.08800  Biso   1.000  H
  H37      1.0000 0.08280  0.58800  0.69440  Biso   1.000  H
  H38      1.0000 0.91720  0.41200  0.69440  Biso   1.000  H
  H39      1.0000 0.08280  0.41200  0.30560  Biso   1.000  H
  H40      1.0000 0.91720  0.58800  0.30560  Biso   1.000  H
  H41      1.0000 0.58800  0.30560  0.91720  Biso   1.000  H
  H42      1.0000 0.41200  0.30560  0.08280  Biso   1.000  H
  H43      1.0000 0.41200  0.69440  0.91720  Biso   1.000  H
  H44      1.0000 0.58800  0.69440  0.08280  Biso   1.000  H
  H45      1.0000 0.30560  0.08280  0.41200  Biso   1.000  H
  H46      1.0000 0.30560  0.91720  0.58800  Biso   1.000  H
  H47      1.0000 0.69440  0.08280  0.58800  Biso   1.000  H
  H48      1.0000 0.69440  0.91720  0.41200  Biso   1.000  H
  H49      1.0000 0.91200  0.41720  0.19440  Biso   1.000  H
  H50      1.0000 0.08800  0.58280  0.19440  Biso   1.000  H
  H51      1.0000 0.08800  0.41720  0.80560  Biso   1.000  H
  H52      1.0000 0.91200  0.58280  0.80560  Biso   1.000  H
  H53      1.0000 0.19440  0.91200  0.41720  Biso   1.000  H
  H54      1.0000 0.19440  0.08800  0.58280  Biso   1.000  H
  H55      1.0000 0.80560  0.08800  0.41720  Biso   1.000  H
  H56      1.0000 0.80560  0.91200  0.58280  Biso   1.000  H
  H57      1.0000 0.41720  0.19440  0.91200  Biso   1.000  H
  H58      1.0000 0.58280  0.19440  0.08800  Biso   1.000  H
  H59      1.0000 0.41720  0.80560  0.08800  Biso   1.000  H
  H60      1.0000 0.58280  0.80560  0.91200  Biso   1.000  H
  H61      1.0000 0.91720  0.41200  0.30560  Biso   1.000  H
  H62      1.0000 0.08280  0.58800  0.30560  Biso   1.000  H
  H63      1.0000 0.91720  0.58800  0.69440  Biso   1.000  H
  H64      1.0000 0.08280  0.41200  0.69440  Biso   1.000  H
  H65      1.0000 0.41200  0.69440  0.08280  Biso   1.000  H
  H66      1.0000 0.58800  0.69440  0.91720  Biso   1.000  H
  H67      1.0000 0.58800  0.30560  0.08280  Biso   1.000  H
  H68      1.0000 0.41200  0.30560  0.91720  Biso   1.000  H
  H69      1.0000 0.69440  0.91720  0.58800  Biso   1.000  H
  H70      1.0000 0.69440  0.08280  0.41200  Biso   1.000  H
  H71      1.0000 0.30560  0.91720  0.41200  Biso   1.000  H
  H72      1.0000 0.30560  0.08280  0.58800  Biso   1.000  H
  C181     1.0000 0.12315  0.62115  0.78250  Biso   1.000  C
  C182     1.0000 0.87685  0.37885  0.78250  Biso   1.000  C
  C183     1.0000 0.87685  0.62115  0.21750  Biso   1.000  C
  C184     1.0000 0.12315  0.37885  0.21750  Biso   1.000  C
  C185     1.0000 0.78250  0.12315  0.62115  Biso   1.000  C
  C186     1.0000 0.78250  0.87685  0.37885  Biso   1.000  C
  C187     1.0000 0.21750  0.87685  0.62115  Biso   1.000  C
  C188     1.0000 0.21750  0.12315  0.37885  Biso   1.000  C
  C189     1.0000 0.62115  0.78250  0.12315  Biso   1.000  C
  C190     1.0000 0.37885  0.78250  0.87685  Biso   1.000  C
  C191     1.0000 0.62115  0.21750  0.87685  Biso   1.000  C
  C192     1.0000 0.37885  0.21750  0.12315  Biso   1.000  C
  C193     1.0000 0.12115  0.62315  0.71750  Biso   1.000  C
  C194     1.0000 0.87885  0.37685  0.71750  Biso   1.000  C
  C195     1.0000 0.12115  0.37685  0.28250  Biso   1.000  C
  C196     1.0000 0.87885  0.62315  0.28250  Biso   1.000  C
  C197     1.0000 0.62315  0.28250  0.87885  Biso   1.000  C
  C198     1.0000 0.37685  0.28250  0.12115  Biso   1.000  C
  C199     1.0000 0.37685  0.71750  0.87885  Biso   1.000  C
  C200     1.0000 0.62315  0.71750  0.12115  Biso   1.000  C
  C201     1.0000 0.28250  0.12115  0.37685  Biso   1.000  C
  C202     1.0000 0.28250  0.87885  0.62315  Biso   1.000  C
  C203     1.0000 0.71750  0.12115  0.62315  Biso   1.000  C
  C204     1.0000 0.71750  0.87885  0.37685  Biso   1.000  C
  C205     1.0000 0.87685  0.37885  0.21750  Biso   1.000  C
  C206     1.0000 0.12315  0.62115  0.21750  Biso   1.000  C
  C207     1.0000 0.12315  0.37885  0.78250  Biso   1.000  C
  C208     1.0000 0.87685  0.62115  0.78250  Biso   1.000  C
  C209     1.0000 0.21750  0.87685  0.37885  Biso   1.000  C
  C210     1.0000 0.21750  0.12315  0.62115  Biso   1.000  C
  C211     1.0000 0.78250  0.12315  0.37885  Biso   1.000  C
  C212     1.0000 0.78250  0.87685  0.62115  Biso   1.000  C
  C213     1.0000 0.37885  0.21750  0.87685  Biso   1.000  C
  C214     1.0000 0.62115  0.21750  0.12315  Biso   1.000  C
  C215     1.0000 0.37885  0.78250  0.12315  Biso   1.000  C
  C216     1.0000 0.62115  0.78250  0.87685  Biso   1.000  C
  C217     1.0000 0.87885  0.37685  0.28250  Biso   1.000  C
  C218     1.0000 0.12115  0.62315  0.28250  Biso   1.000  C
  C219     1.0000 0.87885  0.62315  0.71750  Biso   1.000  C
  C220     1.0000 0.12115  0.37685  0.71750  Biso   1.000  C
  C221     1.0000 0.37685  0.71750  0.12115  Biso   1.000  C
  C222     1.0000 0.62315  0.71750  0.87885  Biso   1.000  C
  C223     1.0000 0.62315  0.28250  0.12115  Biso   1.000  C
  C224     1.0000 0.37685  0.28250  0.87885  Biso   1.000  C
  C225     1.0000 0.71750  0.87885  0.62315  Biso   1.000  C
  C226     1.0000 0.71750  0.12115  0.37685  Biso   1.000  C
  C227     1.0000 0.28250  0.87885  0.37685  Biso   1.000  C
  C228     1.0000 0.28250  0.12115  0.62315  Biso   1.000  C
  O49      1.0000 0.00000  0.50000  0.53822  Biso   1.000  O
  O50      1.0000 0.00000  0.50000  0.46178  Biso   1.000  O
  O51      1.0000 0.53822  0.00000  0.50000  Biso   1.000  O
  O52      1.0000 0.46178  0.00000  0.50000  Biso   1.000  O
  O53      1.0000 0.50000  0.53822  0.00000  Biso   1.000  O
  O54      1.0000 0.50000  0.46178  0.00000  Biso   1.000  O
  O55      1.0000 0.00000  0.50000  0.96178  Biso   1.000  O
  O56      1.0000 0.00000  0.50000  0.03822  Biso   1.000  O
  O57      1.0000 0.50000  0.03822  0.00000  Biso   1.000  O
  O58      1.0000 0.50000  0.96178  0.00000  Biso   1.000  O
  O59      1.0000 0.03822  0.00000  0.50000  Biso   1.000  O
  O60      1.0000 0.96178  0.00000  0.50000  Biso   1.000  O
  H73      1.0000 0.09190  0.50000  0.58810  Biso   1.000  H
  H74      1.0000 0.90810  0.50000  0.58810  Biso   1.000  H
  H75      1.0000 0.90810  0.50000  0.41190  Biso   1.000  H
  H76      1.0000 0.09190  0.50000  0.41190  Biso   1.000  H
  H77      1.0000 0.58810  0.09190  0.50000  Biso   1.000  H
  H78      1.0000 0.58810  0.90810  0.50000  Biso   1.000  H
  H79      1.0000 0.41190  0.90810  0.50000  Biso   1.000  H
  H80      1.0000 0.41190  0.09190  0.50000  Biso   1.000  H
  H81      1.0000 0.50000  0.58810  0.09190  Biso   1.000  H
  H82      1.0000 0.50000  0.58810  0.90810  Biso   1.000  H
  H83      1.0000 0.50000  0.41190  0.90810  Biso   1.000  H
  H84      1.0000 0.50000  0.41190  0.09190  Biso   1.000  H
  H85      1.0000 0.00000  0.59190  0.91190  Biso   1.000  H
  H86      1.0000 0.00000  0.40810  0.91190  Biso   1.000  H
  H87      1.0000 0.00000  0.40810  0.08810  Biso   1.000  H
  H88      1.0000 0.00000  0.59190  0.08810  Biso   1.000  H
  H89      1.0000 0.59190  0.08810  0.00000  Biso   1.000  H
  H90      1.0000 0.40810  0.08810  0.00000  Biso   1.000  H
  H91      1.0000 0.40810  0.91190  0.00000  Biso   1.000  H
  H92      1.0000 0.59190  0.91190  0.00000  Biso   1.000  H
  H93      1.0000 0.08810  0.00000  0.40810  Biso   1.000  H
  H94      1.0000 0.08810  0.00000  0.59190  Biso   1.000  H
  H95      1.0000 0.91190  0.00000  0.59190  Biso   1.000  H
  H96      1.0000 0.91190  0.00000  0.40810  Biso   1.000  H
  N13      1.0000 0.06430  0.50000  0.53630  Biso   1.000  N
  N14      1.0000 0.93570  0.50000  0.53630  Biso   1.000  N
  N15      1.0000 0.93570  0.50000  0.46370  Biso   1.000  N
  N16      1.0000 0.06430  0.50000  0.46370  Biso   1.000  N
  N17      1.0000 0.53630  0.06430  0.50000  Biso   1.000  N
  N18      1.0000 0.53630  0.93570  0.50000  Biso   1.000  N
  N19      1.0000 0.46370  0.93570  0.50000  Biso   1.000  N
  N20      1.0000 0.46370  0.06430  0.50000  Biso   1.000  N
  N21      1.0000 0.50000  0.53630  0.06430  Biso   1.000  N
  N22      1.0000 0.50000  0.53630  0.93570  Biso   1.000  N
  N23      1.0000 0.50000  0.46370  0.93570  Biso   1.000  N
  N24      1.0000 0.50000  0.46370  0.06430  Biso   1.000  N
  N25      1.0000 0.00000  0.56430  0.96370  Biso   1.000  N
  N26      1.0000 0.00000  0.43570  0.96370  Biso   1.000  N
  N27      1.0000 0.00000  0.43570  0.03630  Biso   1.000  N
  N28      1.0000 0.00000  0.56430  0.03630  Biso   1.000  N
  N29      1.0000 0.56430  0.03630  0.00000  Biso   1.000  N
  N30      1.0000 0.43570  0.03630  0.00000  Biso   1.000  N
  N31      1.0000 0.43570  0.96370  0.00000  Biso   1.000  N
  N32      1.0000 0.56430  0.96370  0.00000  Biso   1.000  N
  N33      1.0000 0.03630  0.00000  0.43570  Biso   1.000  N
  N34      1.0000 0.03630  0.00000  0.56430  Biso   1.000  N
  N35      1.0000 0.96370  0.00000  0.56430  Biso   1.000  N
  N36      1.0000 0.96370  0.00000  0.43570  Biso   1.000  N
  H97      1.0000 0.13270  0.62970  0.80530  Biso   1.000  H
  H98      1.0000 0.86730  0.37030  0.80530  Biso   1.000  H
  H99      1.0000 0.86730  0.62970  0.19470  Biso   1.000  H
  H100     1.0000 0.13270  0.37030  0.19470  Biso   1.000  H
  H101     1.0000 0.80530  0.13270  0.62970  Biso   1.000  H
  H102     1.0000 0.80530  0.86730  0.37030  Biso   1.000  H
  H103     1.0000 0.19470  0.86730  0.62970  Biso   1.000  H
  H104     1.0000 0.19470  0.13270  0.37030  Biso   1.000  H
  H105     1.0000 0.62970  0.80530  0.13270  Biso   1.000  H
  H106     1.0000 0.37030  0.80530  0.86730  Biso   1.000  H
  H107     1.0000 0.62970  0.19470  0.86730  Biso   1.000  H
  H108     1.0000 0.37030  0.19470  0.13270  Biso   1.000  H
  H109     1.0000 0.12970  0.63270  0.69470  Biso   1.000  H
  H110     1.0000 0.87030  0.36730  0.69470  Biso   1.000  H
  H111     1.0000 0.12970  0.36730  0.30530  Biso   1.000  H
  H112     1.0000 0.87030  0.63270  0.30530  Biso   1.000  H
  H113     1.0000 0.63270  0.30530  0.87030  Biso   1.000  H
  H114     1.0000 0.36730  0.30530  0.12970  Biso   1.000  H
  H115     1.0000 0.36730  0.69470  0.87030  Biso   1.000  H
  H116     1.0000 0.63270  0.69470  0.12970  Biso   1.000  H
  H117     1.0000 0.30530  0.12970  0.36730  Biso   1.000  H
  H118     1.0000 0.30530  0.87030  0.63270  Biso   1.000  H
  H119     1.0000 0.69470  0.12970  0.63270  Biso   1.000  H
  H120     1.0000 0.69470  0.87030  0.36730  Biso   1.000  H
  H121     1.0000 0.86730  0.37030  0.19470  Biso   1.000  H
  H122     1.0000 0.13270  0.62970  0.19470  Biso   1.000  H
  H123     1.0000 0.13270  0.37030  0.80530  Biso   1.000  H
  H124     1.0000 0.86730  0.62970  0.80530  Biso   1.000  H
  H125     1.0000 0.19470  0.86730  0.37030  Biso   1.000  H
  H126     1.0000 0.19470  0.13270  0.62970  Biso   1.000  H
  H127     1.0000 0.80530  0.13270  0.37030  Biso   1.000  H
  H128     1.0000 0.80530  0.86730  0.62970  Biso   1.000  H
  H129     1.0000 0.37030  0.19470  0.86730  Biso   1.000  H
  H130     1.0000 0.62970  0.19470  0.13270  Biso   1.000  H
  H131     1.0000 0.37030  0.80530  0.13270  Biso   1.000  H
  H132     1.0000 0.62970  0.80530  0.86730  Biso   1.000  H
  H133     1.0000 0.87030  0.36730  0.30530  Biso   1.000  H
  H134     1.0000 0.12970  0.63270  0.30530  Biso   1.000  H
  H135     1.0000 0.87030  0.63270  0.69470  Biso   1.000  H
  H136     1.0000 0.12970  0.36730  0.69470  Biso   1.000  H
  H137     1.0000 0.36730  0.69470  0.12970  Biso   1.000  H
  H138     1.0000 0.63270  0.69470  0.87030  Biso   1.000  H
  H139     1.0000 0.63270  0.30530  0.12970  Biso   1.000  H
  H140     1.0000 0.36730  0.30530  0.87030  Biso   1.000  H
  H141     1.0000 0.69470  0.87030  0.63270  Biso   1.000  H
  H142     1.0000 0.69470  0.12970  0.36730  Biso   1.000  H
  H143     1.0000 0.30530  0.87030  0.36730  Biso   1.000  H
  H144     1.0000 0.30530  0.12970  0.63270  Biso   1.000  H
  C229     1.0000 0.13643  0.63643  0.75000  Biso   1.000  C
  C230     1.0000 0.86357  0.36357  0.75000  Biso   1.000  C
  C231     1.0000 0.86357  0.63643  0.25000  Biso   1.000  C
  C232     1.0000 0.13643  0.36357  0.25000  Biso   1.000  C
  C233     1.0000 0.75000  0.13643  0.63643  Biso   1.000  C
  C234     1.0000 0.75000  0.86357  0.36357  Biso   1.000  C
  C235     1.0000 0.25000  0.86357  0.63643  Biso   1.000  C
  C236     1.0000 0.25000  0.13643  0.36357  Biso   1.000  C
  C237     1.0000 0.63643  0.75000  0.13643  Biso   1.000  C
  C238     1.0000 0.36357  0.75000  0.86357  Biso   1.000  C
  C239     1.0000 0.63643  0.25000  0.86357  Biso   1.000  C
  C240     1.0000 0.36357  0.25000  0.13643  Biso   1.000  C
  C241     1.0000 0.86357  0.36357  0.25000  Biso   1.000  C
  C242     1.0000 0.13643  0.63643  0.25000  Biso   1.000  C
  C243     1.0000 0.13643  0.36357  0.75000  Biso   1.000  C
  C244     1.0000 0.86357  0.63643  0.75000  Biso   1.000  C
  C245     1.0000 0.25000  0.86357  0.36357  Biso   1.000  C
  C246     1.0000 0.25000  0.13643  0.63643  Biso   1.000  C
  C247     1.0000 0.75000  0.13643  0.36357  Biso   1.000  C
  C248     1.0000 0.75000  0.86357  0.63643  Biso   1.000  C
  C249     1.0000 0.36357  0.25000  0.86357  Biso   1.000  C
  C250     1.0000 0.63643  0.25000  0.13643  Biso   1.000  C
  C251     1.0000 0.36357  0.75000  0.13643  Biso   1.000  C
  C252     1.0000 0.63643  0.75000  0.86357  Biso   1.000  C
  Cu13     1.0000 0.02462  0.50000  0.50000  Biso   1.000  Cu
  Cu14     1.0000 0.97538  0.50000  0.50000  Biso   1.000  Cu
  Cu15     1.0000 0.50000  0.02462  0.50000  Biso   1.000  Cu
  Cu16     1.0000 0.50000  0.97538  0.50000  Biso   1.000  Cu
  Cu17     1.0000 0.50000  0.50000  0.02462  Biso   1.000  Cu
  Cu18     1.0000 0.50000  0.50000  0.97538  Biso   1.000  Cu
  Cu19     1.0000 0.00000  0.52462  0.00000  Biso   1.000  Cu
  Cu20     1.0000 0.00000  0.47538  0.00000  Biso   1.000  Cu
  Cu21     1.0000 0.52462  0.00000  0.00000  Biso   1.000  Cu
  Cu22     1.0000 0.47538  0.00000  0.00000  Biso   1.000  Cu
  Cu23     1.0000 0.00000  0.00000  0.47538  Biso   1.000  Cu
  Cu24     1.0000 0.00000  0.00000  0.52462  Biso   1.000  Cu
  C253     1.0000 0.10290  0.50000  0.51990  Biso   1.000  C
  C254     1.0000 0.89710  0.50000  0.51990  Biso   1.000  C
  C255     1.0000 0.89710  0.50000  0.48010  Biso   1.000  C
  C256     1.0000 0.10290  0.50000  0.48010  Biso   1.000  C
  C257     1.0000 0.51990  0.10290  0.50000  Biso   1.000  C
  C258     1.0000 0.51990  0.89710  0.50000  Biso   1.000  C
  C259     1.0000 0.48010  0.89710  0.50000  Biso   1.000  C
  C260     1.0000 0.48010  0.10290  0.50000  Biso   1.000  C
  C261     1.0000 0.50000  0.51990  0.10290  Biso   1.000  C
  C262     1.0000 0.50000  0.51990  0.89710  Biso   1.000  C
  C263     1.0000 0.50000  0.48010  0.89710  Biso   1.000  C
  C264     1.0000 0.50000  0.48010  0.10290  Biso   1.000  C
  C265     1.0000 0.00000  0.60290  0.98010  Biso   1.000  C
  C266     1.0000 0.00000  0.39710  0.98010  Biso   1.000  C
  C267     1.0000 0.00000  0.39710  0.01990  Biso   1.000  C
  C268     1.0000 0.00000  0.60290  0.01990  Biso   1.000  C
  C269     1.0000 0.60290  0.01990  0.00000  Biso   1.000  C
  C270     1.0000 0.39710  0.01990  0.00000  Biso   1.000  C
  C271     1.0000 0.39710  0.98010  0.00000  Biso   1.000  C
  C272     1.0000 0.60290  0.98010  0.00000  Biso   1.000  C
  C273     1.0000 0.01990  0.00000  0.39710  Biso   1.000  C
  C274     1.0000 0.01990  0.00000  0.60290  Biso   1.000  C
  C275     1.0000 0.98010  0.00000  0.60290  Biso   1.000  C
  C276     1.0000 0.98010  0.00000  0.39710  Biso   1.000  C
  C277     1.0000 0.16615  0.66615  0.75000  Biso   1.000  C
  C278     1.0000 0.83385  0.33385  0.75000  Biso   1.000  C
  C279     1.0000 0.83385  0.66615  0.25000  Biso   1.000  C
  C280     1.0000 0.16615  0.33385  0.25000  Biso   1.000  C
  C281     1.0000 0.75000  0.16615  0.66615  Biso   1.000  C
  C282     1.0000 0.75000  0.83385  0.33385  Biso   1.000  C
  C283     1.0000 0.25000  0.83385  0.66615  Biso   1.000  C
  C284     1.0000 0.25000  0.16615  0.33385  Biso   1.000  C
  C285     1.0000 0.66615  0.75000  0.16615  Biso   1.000  C
  C286     1.0000 0.33385  0.75000  0.83385  Biso   1.000  C
  C287     1.0000 0.66615  0.25000  0.83385  Biso   1.000  C
  C288     1.0000 0.33385  0.25000  0.16615  Biso   1.000  C
  C289     1.0000 0.83385  0.33385  0.25000  Biso   1.000  C
  C290     1.0000 0.16615  0.66615  0.25000  Biso   1.000  C
  C291     1.0000 0.16615  0.33385  0.75000  Biso   1.000  C
  C292     1.0000 0.83385  0.66615  0.75000  Biso   1.000  C
  C293     1.0000 0.25000  0.83385  0.33385  Biso   1.000  C
  C294     1.0000 0.25000  0.16615  0.66615  Biso   1.000  C
  C295     1.0000 0.75000  0.16615  0.33385  Biso   1.000  C
  C296     1.0000 0.75000  0.83385  0.66615  Biso   1.000  C
  C297     1.0000 0.33385  0.25000  0.83385  Biso   1.000  C
  C298     1.0000 0.66615  0.25000  0.16615  Biso   1.000  C
  C299     1.0000 0.33385  0.75000  0.16615  Biso   1.000  C
  C300     1.0000 0.66615  0.75000  0.83385  Biso   1.000  C
  H145     1.0000 0.11630  0.52210  0.52880  Biso   1.000  H
  H146     1.0000 0.88370  0.47790  0.52880  Biso   1.000  H
  H147     1.0000 0.88370  0.52210  0.47120  Biso   1.000  H
  H148     1.0000 0.11630  0.47790  0.47120  Biso   1.000  H
  H149     1.0000 0.52880  0.11630  0.52210  Biso   1.000  H
  H150     1.0000 0.52880  0.88370  0.47790  Biso   1.000  H
  H151     1.0000 0.47120  0.88370  0.52210  Biso   1.000  H
  H152     1.0000 0.47120  0.11630  0.47790  Biso   1.000  H
  H153     1.0000 0.52210  0.52880  0.11630  Biso   1.000  H
  H154     1.0000 0.47790  0.52880  0.88370  Biso   1.000  H
  H155     1.0000 0.52210  0.47120  0.88370  Biso   1.000  H
  H156     1.0000 0.47790  0.47120  0.11630  Biso   1.000  H
  H157     1.0000 0.02210  0.61630  0.97120  Biso   1.000  H
  H158     1.0000 0.97790  0.38370  0.97120  Biso   1.000  H
  H159     1.0000 0.02210  0.38370  0.02880  Biso   1.000  H
  H160     1.0000 0.97790  0.61630  0.02880  Biso   1.000  H
  H161     1.0000 0.61630  0.02880  0.97790  Biso   1.000  H
  H162     1.0000 0.38370  0.02880  0.02210  Biso   1.000  H
  H163     1.0000 0.38370  0.97120  0.97790  Biso   1.000  H
  H164     1.0000 0.61630  0.97120  0.02210  Biso   1.000  H
  H165     1.0000 0.02880  0.02210  0.38370  Biso   1.000  H
  H166     1.0000 0.02880  0.97790  0.61630  Biso   1.000  H
  H167     1.0000 0.97120  0.02210  0.61630  Biso   1.000  H
  H168     1.0000 0.97120  0.97790  0.38370  Biso   1.000  H
  H169     1.0000 0.88370  0.47790  0.47120  Biso   1.000  H
  H170     1.0000 0.11630  0.52210  0.47120  Biso   1.000  H
  H171     1.0000 0.11630  0.47790  0.52880  Biso   1.000  H
  H172     1.0000 0.88370  0.52210  0.52880  Biso   1.000  H
  H173     1.0000 0.47120  0.88370  0.47790  Biso   1.000  H
  H174     1.0000 0.47120  0.11630  0.52210  Biso   1.000  H
  H175     1.0000 0.52880  0.11630  0.47790  Biso   1.000  H
  H176     1.0000 0.52880  0.88370  0.52210  Biso   1.000  H
  H177     1.0000 0.47790  0.47120  0.88370  Biso   1.000  H
  H178     1.0000 0.52210  0.47120  0.11630  Biso   1.000  H
  H179     1.0000 0.47790  0.52880  0.11630  Biso   1.000  H
  H180     1.0000 0.52210  0.52880  0.88370  Biso   1.000  H
  H181     1.0000 0.97790  0.38370  0.02880  Biso   1.000  H
  H182     1.0000 0.02210  0.61630  0.02880  Biso   1.000  H
  H183     1.0000 0.97790  0.61630  0.97120  Biso   1.000  H
  H184     1.0000 0.02210  0.38370  0.97120  Biso   1.000  H
  H185     1.0000 0.38370  0.97120  0.02210  Biso   1.000  H
  H186     1.0000 0.61630  0.97120  0.97790  Biso   1.000  H
  H187     1.0000 0.61630  0.02880  0.02210  Biso   1.000  H
  H188     1.0000 0.38370  0.02880  0.97790  Biso   1.000  H
  H189     1.0000 0.97120  0.97790  0.61630  Biso   1.000  H
  H190     1.0000 0.97120  0.02210  0.38370  Biso   1.000  H
  H191     1.0000 0.02880  0.97790  0.38370  Biso   1.000  H
  H192     1.0000 0.02880  0.02210  0.61630  Biso   1.000  H
  C301     1.0000 0.17812  0.68228  0.78259  Biso   1.000  C
  C302     1.0000 0.82188  0.31772  0.78259  Biso   1.000  C
  C303     1.0000 0.82188  0.68228  0.21741  Biso   1.000  C
  C304     1.0000 0.17812  0.31772  0.21741  Biso   1.000  C
  C305     1.0000 0.78259  0.17812  0.68228  Biso   1.000  C
  C306     1.0000 0.78259  0.82188  0.31772  Biso   1.000  C
  C307     1.0000 0.21741  0.82188  0.68228  Biso   1.000  C
  C308     1.0000 0.21741  0.17812  0.31772  Biso   1.000  C
  C309     1.0000 0.68228  0.78259  0.17812  Biso   1.000  C
  C310     1.0000 0.31772  0.78259  0.82188  Biso   1.000  C
  C311     1.0000 0.68228  0.21741  0.82188  Biso   1.000  C
  C312     1.0000 0.31772  0.21741  0.17812  Biso   1.000  C
  C313     1.0000 0.18228  0.67812  0.71741  Biso   1.000  C
  C314     1.0000 0.81772  0.32188  0.71741  Biso   1.000  C
  C315     1.0000 0.18228  0.32188  0.28259  Biso   1.000  C
  C316     1.0000 0.81772  0.67812  0.28259  Biso   1.000  C
  C317     1.0000 0.67812  0.28259  0.81772  Biso   1.000  C
  C318     1.0000 0.32188  0.28259  0.18228  Biso   1.000  C
  C319     1.0000 0.32188  0.71741  0.81772  Biso   1.000  C
  C320     1.0000 0.67812  0.71741  0.18228  Biso   1.000  C
  C321     1.0000 0.28259  0.18228  0.32188  Biso   1.000  C
  C322     1.0000 0.28259  0.81772  0.67812  Biso   1.000  C
  C323     1.0000 0.71741  0.18228  0.67812  Biso   1.000  C
  C324     1.0000 0.71741  0.81772  0.32188  Biso   1.000  C
  C325     1.0000 0.82188  0.31772  0.21741  Biso   1.000  C
  C326     1.0000 0.17812  0.68228  0.21741  Biso   1.000  C
  C327     1.0000 0.17812  0.31772  0.78259  Biso   1.000  C
  C328     1.0000 0.82188  0.68228  0.78259  Biso   1.000  C
  C329     1.0000 0.21741  0.82188  0.31772  Biso   1.000  C
  C330     1.0000 0.21741  0.17812  0.68228  Biso   1.000  C
  C331     1.0000 0.78259  0.17812  0.31772  Biso   1.000  C
  C332     1.0000 0.78259  0.82188  0.68228  Biso   1.000  C
  C333     1.0000 0.31772  0.21741  0.82188  Biso   1.000  C
  C334     1.0000 0.68228  0.21741  0.17812  Biso   1.000  C
  C335     1.0000 0.31772  0.78259  0.17812  Biso   1.000  C
  C336     1.0000 0.68228  0.78259  0.82188  Biso   1.000  C
  C337     1.0000 0.81772  0.32188  0.28259  Biso   1.000  C
  C338     1.0000 0.18228  0.67812  0.28259  Biso   1.000  C
  C339     1.0000 0.81772  0.67812  0.71741  Biso   1.000  C
  C340     1.0000 0.18228  0.32188  0.71741  Biso   1.000  C
  C341     1.0000 0.32188  0.71741  0.18228  Biso   1.000  C
  C342     1.0000 0.67812  0.71741  0.81772  Biso   1.000  C
  C343     1.0000 0.67812  0.28259  0.18228  Biso   1.000  C
  C344     1.0000 0.32188  0.28259  0.81772  Biso   1.000  C
  C345     1.0000 0.71741  0.81772  0.67812  Biso   1.000  C
  C346     1.0000 0.71741  0.18228  0.32188  Biso   1.000  C
  C347     1.0000 0.28259  0.81772  0.32188  Biso   1.000  C
  C348     1.0000 0.28259  0.18228  0.67812  Biso   1.000  C
  H193     1.0000 0.16780  0.67460  0.80540  Biso   1.000  H
  H194     1.0000 0.83220  0.32540  0.80540  Biso   1.000  H
  H195     1.0000 0.83220  0.67460  0.19460  Biso   1.000  H
  H196     1.0000 0.16780  0.32540  0.19460  Biso   1.000  H
  H197     1.0000 0.80540  0.16780  0.67460  Biso   1.000  H
  H198     1.0000 0.80540  0.83220  0.32540  Biso   1.000  H
  H199     1.0000 0.19460  0.83220  0.67460  Biso   1.000  H
  H200     1.0000 0.19460  0.16780  0.32540  Biso   1.000  H
  H201     1.0000 0.67460  0.80540  0.16780  Biso   1.000  H
  H202     1.0000 0.32540  0.80540  0.83220  Biso   1.000  H
  H203     1.0000 0.67460  0.19460  0.83220  Biso   1.000  H
  H204     1.0000 0.32540  0.19460  0.16780  Biso   1.000  H
  H205     1.0000 0.17460  0.66780  0.69460  Biso   1.000  H
  H206     1.0000 0.82540  0.33220  0.69460  Biso   1.000  H
  H207     1.0000 0.17460  0.33220  0.30540  Biso   1.000  H
  H208     1.0000 0.82540  0.66780  0.30540  Biso   1.000  H
  H209     1.0000 0.66780  0.30540  0.82540  Biso   1.000  H
  H210     1.0000 0.33220  0.30540  0.17460  Biso   1.000  H
  H211     1.0000 0.33220  0.69460  0.82540  Biso   1.000  H
  H212     1.0000 0.66780  0.69460  0.17460  Biso   1.000  H
  H213     1.0000 0.30540  0.17460  0.33220  Biso   1.000  H
  H214     1.0000 0.30540  0.82540  0.66780  Biso   1.000  H
  H215     1.0000 0.69460  0.17460  0.66780  Biso   1.000  H
  H216     1.0000 0.69460  0.82540  0.33220  Biso   1.000  H
  H217     1.0000 0.83220  0.32540  0.19460  Biso   1.000  H
  H218     1.0000 0.16780  0.67460  0.19460  Biso   1.000  H
  H219     1.0000 0.16780  0.32540  0.80540  Biso   1.000  H
  H220     1.0000 0.83220  0.67460  0.80540  Biso   1.000  H
  H221     1.0000 0.19460  0.83220  0.32540  Biso   1.000  H
  H222     1.0000 0.19460  0.16780  0.67460  Biso   1.000  H
  H223     1.0000 0.80540  0.16780  0.32540  Biso   1.000  H
  H224     1.0000 0.80540  0.83220  0.67460  Biso   1.000  H
  H225     1.0000 0.32540  0.19460  0.83220  Biso   1.000  H
  H226     1.0000 0.67460  0.19460  0.16780  Biso   1.000  H
  H227     1.0000 0.32540  0.80540  0.16780  Biso   1.000  H
  H228     1.0000 0.67460  0.80540  0.83220  Biso   1.000  H
  H229     1.0000 0.82540  0.33220  0.30540  Biso   1.000  H
  H230     1.0000 0.17460  0.66780  0.30540  Biso   1.000  H
  H231     1.0000 0.82540  0.66780  0.69460  Biso   1.000  H
  H232     1.0000 0.17460  0.33220  0.69460  Biso   1.000  H
  H233     1.0000 0.33220  0.69460  0.17460  Biso   1.000  H
  H234     1.0000 0.66780  0.69460  0.82540  Biso   1.000  H
  H235     1.0000 0.66780  0.30540  0.17460  Biso   1.000  H
  H236     1.0000 0.33220  0.30540  0.82540  Biso   1.000  H
  H237     1.0000 0.69460  0.82540  0.66780  Biso   1.000  H
  H238     1.0000 0.69460  0.17460  0.33220  Biso   1.000  H
  H239     1.0000 0.30540  0.82540  0.33220  Biso   1.000  H
  H240     1.0000 0.30540  0.17460  0.66780  Biso   1.000  H
  C349     1.0000 0.20539  0.71002  0.78218  Biso   1.000  C
  C350     1.0000 0.79461  0.28998  0.78218  Biso   1.000  C
  C351     1.0000 0.79461  0.71002  0.21782  Biso   1.000  C
  C352     1.0000 0.20539  0.28998  0.21782  Biso   1.000  C
  C353     1.0000 0.78218  0.20539  0.71002  Biso   1.000  C
  C354     1.0000 0.78218  0.79461  0.28998  Biso   1.000  C
  C355     1.0000 0.21782  0.79461  0.71002  Biso   1.000  C
  C356     1.0000 0.21782  0.20539  0.28998  Biso   1.000  C
  C357     1.0000 0.71002  0.78218  0.20539  Biso   1.000  C
  C358     1.0000 0.28998  0.78218  0.79461  Biso   1.000  C
  C359     1.0000 0.71002  0.21782  0.79461  Biso   1.000  C
  C360     1.0000 0.28998  0.21782  0.20539  Biso   1.000  C
  C361     1.0000 0.21002  0.70539  0.71782  Biso   1.000  C
  C362     1.0000 0.78998  0.29461  0.71782  Biso   1.000  C
  C363     1.0000 0.21002  0.29461  0.28218  Biso   1.000  C
  C364     1.0000 0.78998  0.70539  0.28218  Biso   1.000  C
  C365     1.0000 0.70539  0.28218  0.78998  Biso   1.000  C
  C366     1.0000 0.29461  0.28218  0.21002  Biso   1.000  C
  C367     1.0000 0.29461  0.71782  0.78998  Biso   1.000  C
  C368     1.0000 0.70539  0.71782  0.21002  Biso   1.000  C
  C369     1.0000 0.28218  0.21002  0.29461  Biso   1.000  C
  C370     1.0000 0.28218  0.78998  0.70539  Biso   1.000  C
  C371     1.0000 0.71782  0.21002  0.70539  Biso   1.000  C
  C372     1.0000 0.71782  0.78998  0.29461  Biso   1.000  C
  C373     1.0000 0.79461  0.28998  0.21782  Biso   1.000  C
  C374     1.0000 0.20539  0.71002  0.21782  Biso   1.000  C
  C375     1.0000 0.20539  0.28998  0.78218  Biso   1.000  C
  C376     1.0000 0.79461  0.71002  0.78218  Biso   1.000  C
  C377     1.0000 0.21782  0.79461  0.28998  Biso   1.000  C
  C378     1.0000 0.21782  0.20539  0.71002  Biso   1.000  C
  C379     1.0000 0.78218  0.20539  0.28998  Biso   1.000  C
  C380     1.0000 0.78218  0.79461  0.71002  Biso   1.000  C
  C381     1.0000 0.28998  0.21782  0.79461  Biso   1.000  C
  C382     1.0000 0.71002  0.21782  0.20539  Biso   1.000  C
  C383     1.0000 0.28998  0.78218  0.20539  Biso   1.000  C
  C384     1.0000 0.71002  0.78218  0.79461  Biso   1.000  C
  C385     1.0000 0.78998  0.29461  0.28218  Biso   1.000  C
  C386     1.0000 0.21002  0.70539  0.28218  Biso   1.000  C
  C387     1.0000 0.78998  0.70539  0.71782  Biso   1.000  C
  C388     1.0000 0.21002  0.29461  0.71782  Biso   1.000  C
  C389     1.0000 0.29461  0.71782  0.21002  Biso   1.000  C
  C390     1.0000 0.70539  0.71782  0.78998  Biso   1.000  C
  C391     1.0000 0.70539  0.28218  0.21002  Biso   1.000  C
  C392     1.0000 0.29461  0.28218  0.78998  Biso   1.000  C
  C393     1.0000 0.71782  0.78998  0.70539  Biso   1.000  C
  C394     1.0000 0.71782  0.21002  0.29461  Biso   1.000  C
  C395     1.0000 0.28218  0.78998  0.29461  Biso   1.000  C
  C396     1.0000 0.28218  0.21002  0.70539  Biso   1.000  C
  H241     1.0000 0.21280  0.72110  0.80470  Biso   1.000  H
  H242     1.0000 0.78720  0.27890  0.80470  Biso   1.000  H
  H243     1.0000 0.78720  0.72110  0.19530  Biso   1.000  H
  H244     1.0000 0.21280  0.27890  0.19530  Biso   1.000  H
  H245     1.0000 0.80470  0.21280  0.72110  Biso   1.000  H
  H246     1.0000 0.80470  0.78720  0.27890  Biso   1.000  H
  H247     1.0000 0.19530  0.78720  0.72110  Biso   1.000  H
  H248     1.0000 0.19530  0.21280  0.27890  Biso   1.000  H
  H249     1.0000 0.72110  0.80470  0.21280  Biso   1.000  H
  H250     1.0000 0.27890  0.80470  0.78720  Biso   1.000  H
  H251     1.0000 0.72110  0.19530  0.78720  Biso   1.000  H
  H252     1.0000 0.27890  0.19530  0.21280  Biso   1.000  H
  H253     1.0000 0.22110  0.71280  0.69530  Biso   1.000  H
  H254     1.0000 0.77890  0.28720  0.69530  Biso   1.000  H
  H255     1.0000 0.22110  0.28720  0.30470  Biso   1.000  H
  H256     1.0000 0.77890  0.71280  0.30470  Biso   1.000  H
  H257     1.0000 0.71280  0.30470  0.77890  Biso   1.000  H
  H258     1.0000 0.28720  0.30470  0.22110  Biso   1.000  H
  H259     1.0000 0.28720  0.69530  0.77890  Biso   1.000  H
  H260     1.0000 0.71280  0.69530  0.22110  Biso   1.000  H
  H261     1.0000 0.30470  0.22110  0.28720  Biso   1.000  H
  H262     1.0000 0.30470  0.77890  0.71280  Biso   1.000  H
  H263     1.0000 0.69530  0.22110  0.71280  Biso   1.000  H
  H264     1.0000 0.69530  0.77890  0.28720  Biso   1.000  H
  H265     1.0000 0.78720  0.27890  0.19530  Biso   1.000  H
  H266     1.0000 0.21280  0.72110  0.19530  Biso   1.000  H
  H267     1.0000 0.21280  0.27890  0.80470  Biso   1.000  H
  H268     1.0000 0.78720  0.72110  0.80470  Biso   1.000  H
  H269     1.0000 0.19530  0.78720  0.27890  Biso   1.000  H
  H270     1.0000 0.19530  0.21280  0.72110  Biso   1.000  H
  H271     1.0000 0.80470  0.21280  0.27890  Biso   1.000  H
  H272     1.0000 0.80470  0.78720  0.72110  Biso   1.000  H
  H273     1.0000 0.27890  0.19530  0.78720  Biso   1.000  H
  H274     1.0000 0.72110  0.19530  0.21280  Biso   1.000  H
  H275     1.0000 0.27890  0.80470  0.21280  Biso   1.000  H
  H276     1.0000 0.72110  0.80470  0.78720  Biso   1.000  H
  H277     1.0000 0.77890  0.28720  0.30470  Biso   1.000  H
  H278     1.0000 0.22110  0.71280  0.30470  Biso   1.000  H
  H279     1.0000 0.77890  0.71280  0.69530  Biso   1.000  H
  H280     1.0000 0.22110  0.28720  0.69530  Biso   1.000  H
  H281     1.0000 0.28720  0.69530  0.22110  Biso   1.000  H
  H282     1.0000 0.71280  0.69530  0.77890  Biso   1.000  H
  H283     1.0000 0.71280  0.30470  0.22110  Biso   1.000  H
  H284     1.0000 0.28720  0.30470  0.77890  Biso   1.000  H
  H285     1.0000 0.69530  0.77890  0.71280  Biso   1.000  H
  H286     1.0000 0.69530  0.22110  0.28720  Biso   1.000  H
  H287     1.0000 0.30470  0.77890  0.28720  Biso   1.000  H
  H288     1.0000 0.30470  0.22110  0.71280  Biso   1.000  H
  C397     1.0000 0.22125  0.72125  0.75000  Biso   1.000  C
  C398     1.0000 0.77875  0.27875  0.75000  Biso   1.000  C
  C399     1.0000 0.77875  0.72125  0.25000  Biso   1.000  C
  C400     1.0000 0.22125  0.27875  0.25000  Biso   1.000  C
  C401     1.0000 0.75000  0.22125  0.72125  Biso   1.000  C
  C402     1.0000 0.75000  0.77875  0.27875  Biso   1.000  C
  C403     1.0000 0.25000  0.77875  0.72125  Biso   1.000  C
  C404     1.0000 0.25000  0.22125  0.27875  Biso   1.000  C
  C405     1.0000 0.72125  0.75000  0.22125  Biso   1.000  C
  C406     1.0000 0.27875  0.75000  0.77875  Biso   1.000  C
  C407     1.0000 0.72125  0.25000  0.77875  Biso   1.000  C
  C408     1.0000 0.27875  0.25000  0.22125  Biso   1.000  C
  C409     1.0000 0.77875  0.27875  0.25000  Biso   1.000  C
  C410     1.0000 0.22125  0.72125  0.25000  Biso   1.000  C
  C411     1.0000 0.22125  0.27875  0.75000  Biso   1.000  C
  C412     1.0000 0.77875  0.72125  0.75000  Biso   1.000  C
  C413     1.0000 0.25000  0.77875  0.27875  Biso   1.000  C
  C414     1.0000 0.25000  0.22125  0.72125  Biso   1.000  C
  C415     1.0000 0.75000  0.22125  0.27875  Biso   1.000  C
  C416     1.0000 0.75000  0.77875  0.72125  Biso   1.000  C
  C417     1.0000 0.27875  0.25000  0.77875  Biso   1.000  C
  C418     1.0000 0.72125  0.25000  0.22125  Biso   1.000  C
  C419     1.0000 0.27875  0.75000  0.22125  Biso   1.000  C
  C420     1.0000 0.72125  0.75000  0.77875  Biso   1.000  C
  N37      1.0000 0.25000  0.75000  0.75000  Biso   1.000  N
  N38      1.0000 0.75000  0.25000  0.75000  Biso   1.000  N
  N39      1.0000 0.75000  0.75000  0.25000  Biso   1.000  N
  N40      1.0000 0.25000  0.25000  0.25000  Biso   1.000  N
  N41      1.0000 0.75000  0.25000  0.25000  Biso   1.000  N
  N42      1.0000 0.25000  0.75000  0.25000  Biso   1.000  N
  N43      1.0000 0.25000  0.25000  0.75000  Biso   1.000  N
  N44      1.0000 0.75000  0.75000  0.75000  Biso   1.000  N
  Cu25     1.0000 0.00000  0.52650  0.50000  Biso   1.000  Cu
  Cu26     1.0000 0.00000  0.47350  0.50000  Biso   1.000  Cu
  Cu27     1.0000 0.50000  0.00000  0.52650  Biso   1.000  Cu
  Cu28     1.0000 0.50000  0.00000  0.47350  Biso   1.000  Cu
  Cu29     1.0000 0.52650  0.50000  0.00000  Biso   1.000  Cu
  Cu30     1.0000 0.47350  0.50000  0.00000  Biso   1.000  Cu
  Cu31     1.0000 0.02650  0.50000  0.00000  Biso   1.000  Cu
  Cu32     1.0000 0.97350  0.50000  0.00000  Biso   1.000  Cu
  Cu33     1.0000 0.50000  0.00000  0.97350  Biso   1.000  Cu
  Cu34     1.0000 0.50000  0.00000  0.02650  Biso   1.000  Cu
  Cu35     1.0000 0.00000  0.02650  0.50000  Biso   1.000  Cu
  Cu36     1.0000 0.00000  0.97350  0.50000  Biso   1.000  Cu
