data_image0
_cell_length_a       14.5025
_cell_length_b       22.2102
_cell_length_c       26.5655
_cell_angle_alpha    90
_cell_angle_beta     101.813
_cell_angle_gamma    90

_symmetry_space_group_name_H-M    "P 1"
_symmetry_int_tables_number       1

loop_
  _symmetry_equiv_pos_as_xyz
  'x, y, z'

loop_
  _atom_site_label
  _atom_site_occupancy
  _atom_site_fract_x
  _atom_site_fract_y
  _atom_site_fract_z
  _atom_site_thermal_displace_type
  _atom_site_B_iso_or_equiv
  _atom_site_type_symbol
  W1       1.0000 0.37970  0.36194  0.99579  Biso   1.000  W
  W2       1.0000 0.87970  0.86194  0.99579  Biso   1.000  W
  W3       1.0000 0.37970  0.63806  0.49579  Biso   1.000  W
  W4       1.0000 0.87970  0.13806  0.49579  Biso   1.000  W
  W5       1.0000 0.62030  0.63806  0.00421  Biso   1.000  W
  W6       1.0000 0.12030  0.13806  0.00421  Biso   1.000  W
  W7       1.0000 0.62030  0.36194  0.50421  Biso   1.000  W
  W8       1.0000 0.12030  0.86194  0.50421  Biso   1.000  W
  W9       1.0000 0.43789  0.53231  0.11929  Biso   1.000  W
  W10      1.0000 0.93789  0.03231  0.11929  Biso   1.000  W
  W11      1.0000 0.43789  0.46769  0.61929  Biso   1.000  W
  W12      1.0000 0.93789  0.96769  0.61929  Biso   1.000  W
  W13      1.0000 0.56211  0.46769  0.88071  Biso   1.000  W
  W14      1.0000 0.06211  0.96769  0.88071  Biso   1.000  W
  W15      1.0000 0.56211  0.53231  0.38071  Biso   1.000  W
  W16      1.0000 0.06211  0.03231  0.38071  Biso   1.000  W
  W17      1.0000 0.67747  0.53653  0.10856  Biso   1.000  W
  W18      1.0000 0.17747  0.03653  0.10856  Biso   1.000  W
  W19      1.0000 0.67747  0.46347  0.60856  Biso   1.000  W
  W20      1.0000 0.17747  0.96347  0.60856  Biso   1.000  W
  W21      1.0000 0.32253  0.46347  0.89144  Biso   1.000  W
  W22      1.0000 0.82253  0.96347  0.89144  Biso   1.000  W
  W23      1.0000 0.32253  0.53653  0.39144  Biso   1.000  W
  W24      1.0000 0.82253  0.03653  0.39144  Biso   1.000  W
  W25      1.0000 0.55908  0.39610  0.10246  Biso   1.000  W
  W26      1.0000 0.05908  0.89610  0.10246  Biso   1.000  W
  W27      1.0000 0.55908  0.60390  0.60246  Biso   1.000  W
  W28      1.0000 0.05908  0.10390  0.60246  Biso   1.000  W
  W29      1.0000 0.44092  0.60390  0.89754  Biso   1.000  W
  W30      1.0000 0.94092  0.10390  0.89754  Biso   1.000  W
  W31      1.0000 0.44092  0.39610  0.39754  Biso   1.000  W
  W32      1.0000 0.94092  0.89610  0.39754  Biso   1.000  W
  W33      1.0000 0.61521  0.36500  0.98292  Biso   1.000  W
  W34      1.0000 0.11521  0.86500  0.98292  Biso   1.000  W
  W35      1.0000 0.61521  0.63500  0.48292  Biso   1.000  W
  W36      1.0000 0.11521  0.13500  0.48292  Biso   1.000  W
  W37      1.0000 0.38479  0.63500  0.01708  Biso   1.000  W
  W38      1.0000 0.88479  0.13500  0.01708  Biso   1.000  W
  W39      1.0000 0.38479  0.36500  0.51708  Biso   1.000  W
  W40      1.0000 0.88479  0.86500  0.51708  Biso   1.000  W
  W41      1.0000 0.26052  0.49916  0.01079  Biso   1.000  W
  W42      1.0000 0.76052  0.99916  0.01079  Biso   1.000  W
  W43      1.0000 0.26052  0.50084  0.51079  Biso   1.000  W
  W44      1.0000 0.76052  0.00084  0.51079  Biso   1.000  W
  W45      1.0000 0.73948  0.50084  0.98921  Biso   1.000  W
  W46      1.0000 0.23948  0.00084  0.98921  Biso   1.000  W
  W47      1.0000 0.73948  0.49916  0.48921  Biso   1.000  W
  W48      1.0000 0.23948  0.99916  0.48921  Biso   1.000  W
  Cu1      1.0000 0.87982  0.36086  0.25641  Biso   1.000  Cu
  Cu2      1.0000 0.37982  0.86086  0.25641  Biso   1.000  Cu
  Cu3      1.0000 0.87982  0.63914  0.75641  Biso   1.000  Cu
  Cu4      1.0000 0.37982  0.13914  0.75641  Biso   1.000  Cu
  Cu5      1.0000 0.12018  0.63914  0.74359  Biso   1.000  Cu
  Cu6      1.0000 0.62018  0.13914  0.74359  Biso   1.000  Cu
  Cu7      1.0000 0.12018  0.36086  0.24359  Biso   1.000  Cu
  Cu8      1.0000 0.62018  0.86086  0.24359  Biso   1.000  Cu
  Cu9      1.0000 0.89922  0.59354  0.19822  Biso   1.000  Cu
  Cu10     1.0000 0.39922  0.09354  0.19822  Biso   1.000  Cu
  Cu11     1.0000 0.89922  0.40646  0.69822  Biso   1.000  Cu
  Cu12     1.0000 0.39922  0.90646  0.69822  Biso   1.000  Cu
  Cu13     1.0000 0.10078  0.40646  0.80178  Biso   1.000  Cu
  Cu14     1.0000 0.60078  0.90646  0.80178  Biso   1.000  Cu
  Cu15     1.0000 0.10078  0.59354  0.30178  Biso   1.000  Cu
  Cu16     1.0000 0.60078  0.09354  0.30178  Biso   1.000  Cu
  P1       1.0000 0.50000  0.50000  0.00000  Biso   1.000  P
  P2       1.0000 0.00000  0.00000  0.00000  Biso   1.000  P
  P3       1.0000 0.50000  0.50000  0.50000  Biso   1.000  P
  P4       1.0000 0.00000  0.00000  0.50000  Biso   1.000  P
  P5       1.0000 0.00000  0.47740  0.25000  Biso   1.000  P
  P6       1.0000 0.50000  0.97740  0.25000  Biso   1.000  P
  P7       1.0000 0.00000  0.52260  0.75000  Biso   1.000  P
  P8       1.0000 0.50000  0.02260  0.75000  Biso   1.000  P
  O1       1.0000 0.92990  0.43850  0.26960  Biso   1.000  O
  O2       1.0000 0.42990  0.93850  0.26960  Biso   1.000  O
  O3       1.0000 0.92990  0.56150  0.76960  Biso   1.000  O
  O4       1.0000 0.42990  0.06150  0.76960  Biso   1.000  O
  O5       1.0000 0.07010  0.56150  0.73040  Biso   1.000  O
  O6       1.0000 0.57010  0.06150  0.73040  Biso   1.000  O
  O7       1.0000 0.07010  0.43850  0.23040  Biso   1.000  O
  O8       1.0000 0.57010  0.93850  0.23040  Biso   1.000  O
  O9       1.0000 0.95190  0.51680  0.20440  Biso   1.000  O
  O10      1.0000 0.45190  0.01680  0.20440  Biso   1.000  O
  O11      1.0000 0.95190  0.48320  0.70440  Biso   1.000  O
  O12      1.0000 0.45190  0.98320  0.70440  Biso   1.000  O
  O13      1.0000 0.04810  0.48320  0.79560  Biso   1.000  O
  O14      1.0000 0.54810  0.98320  0.79560  Biso   1.000  O
  O15      1.0000 0.04810  0.51680  0.29560  Biso   1.000  O
  O16      1.0000 0.54810  0.01680  0.29560  Biso   1.000  O
  O17      1.0000 0.50940  0.43840  0.01320  Biso   1.000  O
  O18      1.0000 0.00940  0.93840  0.01320  Biso   1.000  O
  O19      1.0000 0.50940  0.56160  0.51320  Biso   1.000  O
  O20      1.0000 0.00940  0.06160  0.51320  Biso   1.000  O
  O21      1.0000 0.49060  0.56160  0.98680  Biso   1.000  O
  O22      1.0000 0.99060  0.06160  0.98680  Biso   1.000  O
  O23      1.0000 0.49060  0.43840  0.48680  Biso   1.000  O
  O24      1.0000 0.99060  0.93840  0.48680  Biso   1.000  O
  O25      1.0000 0.53200  0.48840  0.05960  Biso   1.000  O
  O26      1.0000 0.03200  0.98840  0.05960  Biso   1.000  O
  O27      1.0000 0.53200  0.51160  0.55960  Biso   1.000  O
  O28      1.0000 0.03200  0.01160  0.55960  Biso   1.000  O
  O29      1.0000 0.46800  0.51160  0.94040  Biso   1.000  O
  O30      1.0000 0.96800  0.01160  0.94040  Biso   1.000  O
  O31      1.0000 0.46800  0.48840  0.44040  Biso   1.000  O
  O32      1.0000 0.96800  0.98840  0.44040  Biso   1.000  O
  O33      1.0000 0.40300  0.46520  0.98310  Biso   1.000  O
  O34      1.0000 0.90300  0.96520  0.98310  Biso   1.000  O
  O35      1.0000 0.40300  0.53480  0.48310  Biso   1.000  O
  O36      1.0000 0.90300  0.03480  0.48310  Biso   1.000  O
  O37      1.0000 0.59700  0.53480  0.01690  Biso   1.000  O
  O38      1.0000 0.09700  0.03480  0.01690  Biso   1.000  O
  O39      1.0000 0.59700  0.46520  0.51690  Biso   1.000  O
  O40      1.0000 0.09700  0.96520  0.51690  Biso   1.000  O
  O41      1.0000 0.57230  0.46650  0.97510  Biso   1.000  O
  O42      1.0000 0.07230  0.96650  0.97510  Biso   1.000  O
  O43      1.0000 0.57230  0.53350  0.47510  Biso   1.000  O
  O44      1.0000 0.07230  0.03350  0.47510  Biso   1.000  O
  O45      1.0000 0.42770  0.53350  0.02490  Biso   1.000  O
  O46      1.0000 0.92770  0.03350  0.02490  Biso   1.000  O
  O47      1.0000 0.42770  0.46650  0.52490  Biso   1.000  O
  O48      1.0000 0.92770  0.96650  0.52490  Biso   1.000  O
  O49      1.0000 0.56790  0.55390  0.13210  Biso   1.000  O
  O50      1.0000 0.06790  0.05390  0.13210  Biso   1.000  O
  O51      1.0000 0.56790  0.44610  0.63210  Biso   1.000  O
  O52      1.0000 0.06790  0.94610  0.63210  Biso   1.000  O
  O53      1.0000 0.43210  0.44610  0.86790  Biso   1.000  O
  O54      1.0000 0.93210  0.94610  0.86790  Biso   1.000  O
  O55      1.0000 0.43210  0.55390  0.36790  Biso   1.000  O
  O56      1.0000 0.93210  0.05390  0.36790  Biso   1.000  O
  O57      1.0000 0.32460  0.50280  0.08110  Biso   1.000  O
  O58      1.0000 0.82460  0.00280  0.08110  Biso   1.000  O
  O59      1.0000 0.32460  0.49720  0.58110  Biso   1.000  O
  O60      1.0000 0.82460  0.99720  0.58110  Biso   1.000  O
  O61      1.0000 0.67540  0.49720  0.91890  Biso   1.000  O
  O62      1.0000 0.17540  0.99720  0.91890  Biso   1.000  O
  O63      1.0000 0.67540  0.50280  0.41890  Biso   1.000  O
  O64      1.0000 0.17540  0.00280  0.41890  Biso   1.000  O
  O65      1.0000 0.29210  0.41560  0.01560  Biso   1.000  O
  O66      1.0000 0.79210  0.91560  0.01560  Biso   1.000  O
  O67      1.0000 0.29210  0.58440  0.51560  Biso   1.000  O
  O68      1.0000 0.79210  0.08440  0.51560  Biso   1.000  O
  O69      1.0000 0.70790  0.58440  0.98440  Biso   1.000  O
  O70      1.0000 0.20790  0.08440  0.98440  Biso   1.000  O
  O71      1.0000 0.70790  0.41560  0.48440  Biso   1.000  O
  O72      1.0000 0.20790  0.91560  0.48440  Biso   1.000  O
  O73      1.0000 0.48930  0.33650  0.97580  Biso   1.000  O
  O74      1.0000 0.98930  0.83650  0.97580  Biso   1.000  O
  O75      1.0000 0.48930  0.66350  0.47580  Biso   1.000  O
  O76      1.0000 0.98930  0.16350  0.47580  Biso   1.000  O
  O77      1.0000 0.51070  0.66350  0.02420  Biso   1.000  O
  O78      1.0000 0.01070  0.16350  0.02420  Biso   1.000  O
  O79      1.0000 0.51070  0.33650  0.52420  Biso   1.000  O
  O80      1.0000 0.01070  0.83650  0.52420  Biso   1.000  O
  O81      1.0000 0.65530  0.45460  0.12010  Biso   1.000  O
  O82      1.0000 0.15530  0.95460  0.12010  Biso   1.000  O
  O83      1.0000 0.65530  0.54540  0.62010  Biso   1.000  O
  O84      1.0000 0.15530  0.04540  0.62010  Biso   1.000  O
  O85      1.0000 0.34470  0.54540  0.87990  Biso   1.000  O
  O86      1.0000 0.84470  0.04540  0.87990  Biso   1.000  O
  O87      1.0000 0.34470  0.45460  0.37990  Biso   1.000  O
  O88      1.0000 0.84470  0.95460  0.37990  Biso   1.000  O
  O89      1.0000 0.74960  0.50890  0.06150  Biso   1.000  O
  O90      1.0000 0.24960  0.00890  0.06150  Biso   1.000  O
  O91      1.0000 0.74960  0.49110  0.56150  Biso   1.000  O
  O92      1.0000 0.24960  0.99110  0.56150  Biso   1.000  O
  O93      1.0000 0.25040  0.49110  0.93850  Biso   1.000  O
  O94      1.0000 0.75040  0.99110  0.93850  Biso   1.000  O
  O95      1.0000 0.25040  0.50890  0.43850  Biso   1.000  O
  O96      1.0000 0.75040  0.00890  0.43850  Biso   1.000  O
  O97      1.0000 0.40930  0.54630  0.17740  Biso   1.000  O
  O98      1.0000 0.90930  0.04630  0.17740  Biso   1.000  O
  O99      1.0000 0.40930  0.45370  0.67740  Biso   1.000  O
  O100     1.0000 0.90930  0.95370  0.67740  Biso   1.000  O
  O101     1.0000 0.59070  0.45370  0.82260  Biso   1.000  O
  O102     1.0000 0.09070  0.95370  0.82260  Biso   1.000  O
  O103     1.0000 0.59070  0.54630  0.32260  Biso   1.000  O
  O104     1.0000 0.09070  0.04630  0.32260  Biso   1.000  O
  O105     1.0000 0.58750  0.39250  0.91300  Biso   1.000  O
  O106     1.0000 0.08750  0.89250  0.91300  Biso   1.000  O
  O107     1.0000 0.58750  0.60750  0.41300  Biso   1.000  O
  O108     1.0000 0.08750  0.10750  0.41300  Biso   1.000  O
  O109     1.0000 0.41250  0.60750  0.08700  Biso   1.000  O
  O110     1.0000 0.91250  0.10750  0.08700  Biso   1.000  O
  O111     1.0000 0.41250  0.39250  0.58700  Biso   1.000  O
  O112     1.0000 0.91250  0.89250  0.58700  Biso   1.000  O
  O113     1.0000 0.14800  0.49850  0.01620  Biso   1.000  O
  O114     1.0000 0.64800  0.99850  0.01620  Biso   1.000  O
  O115     1.0000 0.14800  0.50150  0.51620  Biso   1.000  O
  O116     1.0000 0.64800  0.00150  0.51620  Biso   1.000  O
  O117     1.0000 0.85200  0.50150  0.98380  Biso   1.000  O
  O118     1.0000 0.35200  0.00150  0.98380  Biso   1.000  O
  O119     1.0000 0.85200  0.49850  0.48380  Biso   1.000  O
  O120     1.0000 0.35200  0.99850  0.48380  Biso   1.000  O
  O121     1.0000 0.33740  0.38950  0.92670  Biso   1.000  O
  O122     1.0000 0.83740  0.88950  0.92670  Biso   1.000  O
  O123     1.0000 0.33740  0.61050  0.42670  Biso   1.000  O
  O124     1.0000 0.83740  0.11050  0.42670  Biso   1.000  O
  O125     1.0000 0.66260  0.61050  0.07330  Biso   1.000  O
  O126     1.0000 0.16260  0.11050  0.07330  Biso   1.000  O
  O127     1.0000 0.66260  0.38950  0.57330  Biso   1.000  O
  O128     1.0000 0.16260  0.88950  0.57330  Biso   1.000  O
  O129     1.0000 0.32020  0.29660  0.99370  Biso   1.000  O
  O130     1.0000 0.82020  0.79660  0.99370  Biso   1.000  O
  O131     1.0000 0.32020  0.70340  0.49370  Biso   1.000  O
  O132     1.0000 0.82020  0.20340  0.49370  Biso   1.000  O
  O133     1.0000 0.67980  0.70340  0.00630  Biso   1.000  O
  O134     1.0000 0.17980  0.20340  0.00630  Biso   1.000  O
  O135     1.0000 0.67980  0.29660  0.50630  Biso   1.000  O
  O136     1.0000 0.17980  0.79660  0.50630  Biso   1.000  O
  O137     1.0000 0.67840  0.30220  0.97580  Biso   1.000  O
  O138     1.0000 0.17840  0.80220  0.97580  Biso   1.000  O
  O139     1.0000 0.67840  0.69780  0.47580  Biso   1.000  O
  O140     1.0000 0.17840  0.19780  0.47580  Biso   1.000  O
  O141     1.0000 0.32160  0.69780  0.02420  Biso   1.000  O
  O142     1.0000 0.82160  0.19780  0.02420  Biso   1.000  O
  O143     1.0000 0.32160  0.30220  0.52420  Biso   1.000  O
  O144     1.0000 0.82160  0.80220  0.52420  Biso   1.000  O
  O145     1.0000 0.71700  0.41870  0.99480  Biso   1.000  O
  O146     1.0000 0.21700  0.91870  0.99480  Biso   1.000  O
  O147     1.0000 0.71700  0.58130  0.49480  Biso   1.000  O
  O148     1.0000 0.21700  0.08130  0.49480  Biso   1.000  O
  O149     1.0000 0.28300  0.58130  0.00520  Biso   1.000  O
  O150     1.0000 0.78300  0.08130  0.00520  Biso   1.000  O
  O151     1.0000 0.28300  0.41870  0.50520  Biso   1.000  O
  O152     1.0000 0.78300  0.91870  0.50520  Biso   1.000  O
  O153     1.0000 0.62240  0.36440  0.05520  Biso   1.000  O
  O154     1.0000 0.12240  0.86440  0.05520  Biso   1.000  O
  O155     1.0000 0.62240  0.63560  0.55520  Biso   1.000  O
  O156     1.0000 0.12240  0.13560  0.55520  Biso   1.000  O
  O157     1.0000 0.37760  0.63560  0.94480  Biso   1.000  O
  O158     1.0000 0.87760  0.13560  0.94480  Biso   1.000  O
  O159     1.0000 0.37760  0.36440  0.44480  Biso   1.000  O
  O160     1.0000 0.87760  0.86440  0.44480  Biso   1.000  O
  O161     1.0000 0.44550  0.36180  0.06450  Biso   1.000  O
  O162     1.0000 0.94550  0.86180  0.06450  Biso   1.000  O
  O163     1.0000 0.44550  0.63820  0.56450  Biso   1.000  O
  O164     1.0000 0.94550  0.13820  0.56450  Biso   1.000  O
  O165     1.0000 0.55450  0.63820  0.93550  Biso   1.000  O
  O166     1.0000 0.05450  0.13820  0.93550  Biso   1.000  O
  O167     1.0000 0.55450  0.36180  0.43550  Biso   1.000  O
  O168     1.0000 0.05450  0.86180  0.43550  Biso   1.000  O
  O169     1.0000 0.58710  0.34620  0.15070  Biso   1.000  O
  O170     1.0000 0.08710  0.84620  0.15070  Biso   1.000  O
  O171     1.0000 0.58710  0.65380  0.65070  Biso   1.000  O
  O172     1.0000 0.08710  0.15380  0.65070  Biso   1.000  O
  O173     1.0000 0.41290  0.65380  0.84930  Biso   1.000  O
  O174     1.0000 0.91290  0.15380  0.84930  Biso   1.000  O
  O175     1.0000 0.41290  0.34620  0.34930  Biso   1.000  O
  O176     1.0000 0.91290  0.84620  0.34930  Biso   1.000  O
  O177     1.0000 0.47910  0.45160  0.12890  Biso   1.000  O
  O178     1.0000 0.97910  0.95160  0.12890  Biso   1.000  O
  O179     1.0000 0.47910  0.54840  0.62890  Biso   1.000  O
  O180     1.0000 0.97910  0.04840  0.62890  Biso   1.000  O
  O181     1.0000 0.52090  0.54840  0.87110  Biso   1.000  O
  O182     1.0000 0.02090  0.04840  0.87110  Biso   1.000  O
  O183     1.0000 0.52090  0.45160  0.37110  Biso   1.000  O
  O184     1.0000 0.02090  0.95160  0.37110  Biso   1.000  O
  O185     1.0000 0.75950  0.55550  0.16090  Biso   1.000  O
  O186     1.0000 0.25950  0.05550  0.16090  Biso   1.000  O
  O187     1.0000 0.75950  0.44450  0.66090  Biso   1.000  O
  O188     1.0000 0.25950  0.94450  0.66090  Biso   1.000  O
  O189     1.0000 0.24050  0.44450  0.83910  Biso   1.000  O
  O190     1.0000 0.74050  0.94450  0.83910  Biso   1.000  O
  O191     1.0000 0.24050  0.55550  0.33910  Biso   1.000  O
  O192     1.0000 0.74050  0.05550  0.33910  Biso   1.000  O
  O193     1.0000 0.66000  0.23370  0.05710  Biso   1.000  O
  O194     1.0000 0.16000  0.73370  0.05710  Biso   1.000  O
  O195     1.0000 0.66000  0.76630  0.55710  Biso   1.000  O
  O196     1.0000 0.16000  0.26630  0.55710  Biso   1.000  O
  O197     1.0000 0.34000  0.76630  0.94290  Biso   1.000  O
  O198     1.0000 0.84000  0.26630  0.94290  Biso   1.000  O
  O199     1.0000 0.34000  0.23370  0.44290  Biso   1.000  O
  O200     1.0000 0.84000  0.73370  0.44290  Biso   1.000  O
  O201     1.0000 0.73350  0.39510  0.23390  Biso   1.000  O
  O202     1.0000 0.23350  0.89510  0.23390  Biso   1.000  O
  O203     1.0000 0.73350  0.60490  0.73390  Biso   1.000  O
  O204     1.0000 0.23350  0.10490  0.73390  Biso   1.000  O
  O205     1.0000 0.26650  0.60490  0.76610  Biso   1.000  O
  O206     1.0000 0.76650  0.10490  0.76610  Biso   1.000  O
  O207     1.0000 0.26650  0.39510  0.26610  Biso   1.000  O
  O208     1.0000 0.76650  0.89510  0.26610  Biso   1.000  O
  O209     1.0000 0.65300  0.49650  0.24000  Biso   1.000  O
  O210     1.0000 0.15300  0.99650  0.24000  Biso   1.000  O
  O211     1.0000 0.65300  0.50350  0.74000  Biso   1.000  O
  O212     1.0000 0.15300  0.00350  0.74000  Biso   1.000  O
  O213     1.0000 0.34700  0.50350  0.76000  Biso   1.000  O
  O214     1.0000 0.84700  0.00350  0.76000  Biso   1.000  O
  O215     1.0000 0.34700  0.49650  0.26000  Biso   1.000  O
  O216     1.0000 0.84700  0.99650  0.26000  Biso   1.000  O
  O217     1.0000 0.57100  0.44100  0.25240  Biso   1.000  O
  O218     1.0000 0.07100  0.94100  0.25240  Biso   1.000  O
  O219     1.0000 0.57100  0.55900  0.75240  Biso   1.000  O
  O220     1.0000 0.07100  0.05900  0.75240  Biso   1.000  O
  O221     1.0000 0.42900  0.55900  0.74760  Biso   1.000  O
  O222     1.0000 0.92900  0.05900  0.74760  Biso   1.000  O
  O223     1.0000 0.42900  0.44100  0.24760  Biso   1.000  O
  O224     1.0000 0.92900  0.94100  0.24760  Biso   1.000  O
  N1       1.0000 0.87120  0.34380  0.32990  Biso   1.000  N
  N2       1.0000 0.37120  0.84380  0.32990  Biso   1.000  N
  N3       1.0000 0.87120  0.65620  0.82990  Biso   1.000  N
  N4       1.0000 0.37120  0.15620  0.82990  Biso   1.000  N
  N5       1.0000 0.12880  0.65620  0.67010  Biso   1.000  N
  N6       1.0000 0.62880  0.15620  0.67010  Biso   1.000  N
  N7       1.0000 0.12880  0.34380  0.17010  Biso   1.000  N
  N8       1.0000 0.62880  0.84380  0.17010  Biso   1.000  N
  N9       1.0000 0.87530  0.27350  0.25630  Biso   1.000  N
  N10      1.0000 0.37530  0.77350  0.25630  Biso   1.000  N
  N11      1.0000 0.87530  0.72650  0.75630  Biso   1.000  N
  N12      1.0000 0.37530  0.22650  0.75630  Biso   1.000  N
  N13      1.0000 0.12470  0.72650  0.74370  Biso   1.000  N
  N14      1.0000 0.62470  0.22650  0.74370  Biso   1.000  N
  N15      1.0000 0.12470  0.27350  0.24370  Biso   1.000  N
  N16      1.0000 0.62470  0.77350  0.24370  Biso   1.000  N
  N17      1.0000 0.88710  0.34470  0.18240  Biso   1.000  N
  N18      1.0000 0.38710  0.84470  0.18240  Biso   1.000  N
  N19      1.0000 0.88710  0.65530  0.68240  Biso   1.000  N
  N20      1.0000 0.38710  0.15530  0.68240  Biso   1.000  N
  N21      1.0000 0.11290  0.65530  0.81760  Biso   1.000  N
  N22      1.0000 0.61290  0.15530  0.81760  Biso   1.000  N
  N23      1.0000 0.11290  0.34470  0.31760  Biso   1.000  N
  N24      1.0000 0.61290  0.84470  0.31760  Biso   1.000  N
  N25      1.0000 0.86020  0.60960  0.26630  Biso   1.000  N
  N26      1.0000 0.36020  0.10960  0.26630  Biso   1.000  N
  N27      1.0000 0.86020  0.39040  0.76630  Biso   1.000  N
  N28      1.0000 0.36020  0.89040  0.76630  Biso   1.000  N
  N29      1.0000 0.13980  0.39040  0.73370  Biso   1.000  N
  N30      1.0000 0.63980  0.89040  0.73370  Biso   1.000  N
  N31      1.0000 0.13980  0.60960  0.23370  Biso   1.000  N
  N32      1.0000 0.63980  0.10960  0.23370  Biso   1.000  N
  N33      1.0000 0.89070  0.68080  0.19710  Biso   1.000  N
  N34      1.0000 0.39070  0.18080  0.19710  Biso   1.000  N
  N35      1.0000 0.89070  0.31920  0.69710  Biso   1.000  N
  N36      1.0000 0.39070  0.81920  0.69710  Biso   1.000  N
  N37      1.0000 0.10930  0.31920  0.80290  Biso   1.000  N
  N38      1.0000 0.60930  0.81920  0.80290  Biso   1.000  N
  N39      1.0000 0.10930  0.68080  0.30290  Biso   1.000  N
  N40      1.0000 0.60930  0.18080  0.30290  Biso   1.000  N
  N41      1.0000 0.93400  0.61140  0.13020  Biso   1.000  N
  N42      1.0000 0.43400  0.11140  0.13020  Biso   1.000  N
  N43      1.0000 0.93400  0.38860  0.63020  Biso   1.000  N
  N44      1.0000 0.43400  0.88860  0.63020  Biso   1.000  N
  N45      1.0000 0.06600  0.38860  0.86980  Biso   1.000  N
  N46      1.0000 0.56600  0.88860  0.86980  Biso   1.000  N
  N47      1.0000 0.06600  0.61140  0.36980  Biso   1.000  N
  N48      1.0000 0.56600  0.11140  0.36980  Biso   1.000  N
  C1       1.0000 0.86460  0.38620  0.36480  Biso   1.000  C
  C2       1.0000 0.36460  0.88620  0.36480  Biso   1.000  C
  C3       1.0000 0.86460  0.61380  0.86480  Biso   1.000  C
  C4       1.0000 0.36460  0.11380  0.86480  Biso   1.000  C
  C5       1.0000 0.13540  0.61380  0.63520  Biso   1.000  C
  C6       1.0000 0.63540  0.11380  0.63520  Biso   1.000  C
  C7       1.0000 0.13540  0.38620  0.13520  Biso   1.000  C
  C8       1.0000 0.63540  0.88620  0.13520  Biso   1.000  C
  H1       1.0000 0.87110  0.42730  0.35640  Biso   1.000  H
  H2       1.0000 0.37110  0.92730  0.35640  Biso   1.000  H
  H3       1.0000 0.87110  0.57270  0.85640  Biso   1.000  H
  H4       1.0000 0.37110  0.07270  0.85640  Biso   1.000  H
  H5       1.0000 0.12890  0.57270  0.64360  Biso   1.000  H
  H6       1.0000 0.62890  0.07270  0.64360  Biso   1.000  H
  H7       1.0000 0.12890  0.42730  0.14360  Biso   1.000  H
  H8       1.0000 0.62890  0.92730  0.14360  Biso   1.000  H
  C9       1.0000 0.84850  0.37170  0.41250  Biso   1.000  C
  C10      1.0000 0.34850  0.87170  0.41250  Biso   1.000  C
  C11      1.0000 0.84850  0.62830  0.91250  Biso   1.000  C
  C12      1.0000 0.34850  0.12830  0.91250  Biso   1.000  C
  C13      1.0000 0.15150  0.62830  0.58750  Biso   1.000  C
  C14      1.0000 0.65150  0.12830  0.58750  Biso   1.000  C
  C15      1.0000 0.15150  0.37170  0.08750  Biso   1.000  C
  C16      1.0000 0.65150  0.87170  0.08750  Biso   1.000  C
  H9       1.0000 0.84640  0.40200  0.43750  Biso   1.000  H
  H10      1.0000 0.34640  0.90200  0.43750  Biso   1.000  H
  H11      1.0000 0.84640  0.59800  0.93750  Biso   1.000  H
  H12      1.0000 0.34640  0.09800  0.93750  Biso   1.000  H
  H13      1.0000 0.15360  0.59800  0.56250  Biso   1.000  H
  H14      1.0000 0.65360  0.09800  0.56250  Biso   1.000  H
  H15      1.0000 0.15360  0.40200  0.06250  Biso   1.000  H
  H16      1.0000 0.65360  0.90200  0.06250  Biso   1.000  H
  C17      1.0000 0.83570  0.31230  0.42310  Biso   1.000  C
  C18      1.0000 0.33570  0.81230  0.42310  Biso   1.000  C
  C19      1.0000 0.83570  0.68770  0.92310  Biso   1.000  C
  C20      1.0000 0.33570  0.18770  0.92310  Biso   1.000  C
  C21      1.0000 0.16430  0.68770  0.57690  Biso   1.000  C
  C22      1.0000 0.66430  0.18770  0.57690  Biso   1.000  C
  C23      1.0000 0.16430  0.31230  0.07690  Biso   1.000  C
  C24      1.0000 0.66430  0.81230  0.07690  Biso   1.000  C
  H17      1.0000 0.82190  0.30150  0.45540  Biso   1.000  H
  H18      1.0000 0.32190  0.80150  0.45540  Biso   1.000  H
  H19      1.0000 0.82190  0.69850  0.95540  Biso   1.000  H
  H20      1.0000 0.32190  0.19850  0.95540  Biso   1.000  H
  H21      1.0000 0.17810  0.69850  0.54460  Biso   1.000  H
  H22      1.0000 0.67810  0.19850  0.54460  Biso   1.000  H
  H23      1.0000 0.17810  0.30150  0.04460  Biso   1.000  H
  H24      1.0000 0.67810  0.80150  0.04460  Biso   1.000  H
  C25      1.0000 0.84260  0.26700  0.38700  Biso   1.000  C
  C26      1.0000 0.34260  0.76700  0.38700  Biso   1.000  C
  C27      1.0000 0.84260  0.73300  0.88700  Biso   1.000  C
  C28      1.0000 0.34260  0.23300  0.88700  Biso   1.000  C
  C29      1.0000 0.15740  0.73300  0.61300  Biso   1.000  C
  C30      1.0000 0.65740  0.23300  0.61300  Biso   1.000  C
  C31      1.0000 0.15740  0.26700  0.11300  Biso   1.000  C
  C32      1.0000 0.65740  0.76700  0.11300  Biso   1.000  C
  H25      1.0000 0.83380  0.22570  0.39410  Biso   1.000  H
  H26      1.0000 0.33380  0.72570  0.39410  Biso   1.000  H
  H27      1.0000 0.83380  0.77430  0.89410  Biso   1.000  H
  H28      1.0000 0.33380  0.27430  0.89410  Biso   1.000  H
  H29      1.0000 0.16620  0.77430  0.60590  Biso   1.000  H
  H30      1.0000 0.66620  0.27430  0.60590  Biso   1.000  H
  H31      1.0000 0.16620  0.22570  0.10590  Biso   1.000  H
  H32      1.0000 0.66620  0.72570  0.10590  Biso   1.000  H
  C33      1.0000 0.86220  0.28480  0.34180  Biso   1.000  C
  C34      1.0000 0.36220  0.78480  0.34180  Biso   1.000  C
  C35      1.0000 0.86220  0.71520  0.84180  Biso   1.000  C
  C36      1.0000 0.36220  0.21520  0.84180  Biso   1.000  C
  C37      1.0000 0.13780  0.71520  0.65820  Biso   1.000  C
  C38      1.0000 0.63780  0.21520  0.65820  Biso   1.000  C
  C39      1.0000 0.13780  0.28480  0.15820  Biso   1.000  C
  C40      1.0000 0.63780  0.78480  0.15820  Biso   1.000  C
  C41      1.0000 0.87120  0.24430  0.29930  Biso   1.000  C
  C42      1.0000 0.37120  0.74430  0.29930  Biso   1.000  C
  C43      1.0000 0.87120  0.75570  0.79930  Biso   1.000  C
  C44      1.0000 0.37120  0.25570  0.79930  Biso   1.000  C
  C45      1.0000 0.12880  0.75570  0.70070  Biso   1.000  C
  C46      1.0000 0.62880  0.25570  0.70070  Biso   1.000  C
  C47      1.0000 0.12880  0.24430  0.20070  Biso   1.000  C
  C48      1.0000 0.62880  0.74430  0.20070  Biso   1.000  C
  C49      1.0000 0.87390  0.18240  0.30100  Biso   1.000  C
  C50      1.0000 0.37390  0.68240  0.30100  Biso   1.000  C
  C51      1.0000 0.87390  0.81760  0.80100  Biso   1.000  C
  C52      1.0000 0.37390  0.31760  0.80100  Biso   1.000  C
  C53      1.0000 0.12610  0.81760  0.69900  Biso   1.000  C
  C54      1.0000 0.62610  0.31760  0.69900  Biso   1.000  C
  C55      1.0000 0.12610  0.18240  0.19900  Biso   1.000  C
  C56      1.0000 0.62610  0.68240  0.19900  Biso   1.000  C
  H33      1.0000 0.86900  0.16140  0.33150  Biso   1.000  H
  H34      1.0000 0.36900  0.66140  0.33150  Biso   1.000  H
  H35      1.0000 0.86900  0.83860  0.83150  Biso   1.000  H
  H36      1.0000 0.36900  0.33860  0.83150  Biso   1.000  H
  H37      1.0000 0.13100  0.83860  0.66850  Biso   1.000  H
  H38      1.0000 0.63100  0.33860  0.66850  Biso   1.000  H
  H39      1.0000 0.13100  0.16140  0.16850  Biso   1.000  H
  H40      1.0000 0.63100  0.66140  0.16850  Biso   1.000  H
  C57      1.0000 0.88380  0.15150  0.25730  Biso   1.000  C
  C58      1.0000 0.38380  0.65150  0.25730  Biso   1.000  C
  C59      1.0000 0.88380  0.84850  0.75730  Biso   1.000  C
  C60      1.0000 0.38380  0.34850  0.75730  Biso   1.000  C
  C61      1.0000 0.11620  0.84850  0.74270  Biso   1.000  C
  C62      1.0000 0.61620  0.34850  0.74270  Biso   1.000  C
  C63      1.0000 0.11620  0.15150  0.24270  Biso   1.000  C
  C64      1.0000 0.61620  0.65150  0.24270  Biso   1.000  C
  H41      1.0000 0.88700  0.10880  0.25780  Biso   1.000  H
  H42      1.0000 0.38700  0.60880  0.25780  Biso   1.000  H
  H43      1.0000 0.88700  0.89120  0.75780  Biso   1.000  H
  H44      1.0000 0.38700  0.39120  0.75780  Biso   1.000  H
  H45      1.0000 0.11300  0.89120  0.74220  Biso   1.000  H
  H46      1.0000 0.61300  0.39120  0.74220  Biso   1.000  H
  H47      1.0000 0.11300  0.10880  0.24220  Biso   1.000  H
  H48      1.0000 0.61300  0.60880  0.24220  Biso   1.000  H
  C65      1.0000 0.88920  0.18270  0.21230  Biso   1.000  C
  C66      1.0000 0.38920  0.68270  0.21230  Biso   1.000  C
  C67      1.0000 0.88920  0.81730  0.71230  Biso   1.000  C
  C68      1.0000 0.38920  0.31730  0.71230  Biso   1.000  C
  C69      1.0000 0.11080  0.81730  0.78770  Biso   1.000  C
  C70      1.0000 0.61080  0.31730  0.78770  Biso   1.000  C
  C71      1.0000 0.11080  0.18270  0.28770  Biso   1.000  C
  C72      1.0000 0.61080  0.68270  0.28770  Biso   1.000  C
  H49      1.0000 0.89500  0.16160  0.18200  Biso   1.000  H
  H50      1.0000 0.39500  0.66160  0.18200  Biso   1.000  H
  H51      1.0000 0.89500  0.83840  0.68200  Biso   1.000  H
  H52      1.0000 0.39500  0.33840  0.68200  Biso   1.000  H
  H53      1.0000 0.10500  0.83840  0.81800  Biso   1.000  H
  H54      1.0000 0.60500  0.33840  0.81800  Biso   1.000  H
  H55      1.0000 0.10500  0.16160  0.31800  Biso   1.000  H
  H56      1.0000 0.60500  0.66160  0.31800  Biso   1.000  H
  C73      1.0000 0.88590  0.24430  0.21300  Biso   1.000  C
  C74      1.0000 0.38590  0.74430  0.21300  Biso   1.000  C
  C75      1.0000 0.88590  0.75570  0.71300  Biso   1.000  C
  C76      1.0000 0.38590  0.25570  0.71300  Biso   1.000  C
  C77      1.0000 0.11410  0.75570  0.78700  Biso   1.000  C
  C78      1.0000 0.61410  0.25570  0.78700  Biso   1.000  C
  C79      1.0000 0.11410  0.24430  0.28700  Biso   1.000  C
  C80      1.0000 0.61410  0.74430  0.28700  Biso   1.000  C
  C81      1.0000 0.88890  0.28610  0.16970  Biso   1.000  C
  C82      1.0000 0.38890  0.78610  0.16970  Biso   1.000  C
  C83      1.0000 0.88890  0.71390  0.66970  Biso   1.000  C
  C84      1.0000 0.38890  0.21390  0.66970  Biso   1.000  C
  C85      1.0000 0.11110  0.71390  0.83030  Biso   1.000  C
  C86      1.0000 0.61110  0.21390  0.83030  Biso   1.000  C
  C87      1.0000 0.11110  0.28610  0.33030  Biso   1.000  C
  C88      1.0000 0.61110  0.78610  0.33030  Biso   1.000  C
  C89      1.0000 0.89140  0.26760  0.12010  Biso   1.000  C
  C90      1.0000 0.39140  0.76760  0.12010  Biso   1.000  C
  C91      1.0000 0.89140  0.73240  0.62010  Biso   1.000  C
  C92      1.0000 0.39140  0.23240  0.62010  Biso   1.000  C
  C93      1.0000 0.10860  0.73240  0.87990  Biso   1.000  C
  C94      1.0000 0.60860  0.23240  0.87990  Biso   1.000  C
  C95      1.0000 0.10860  0.26760  0.37990  Biso   1.000  C
  C96      1.0000 0.60860  0.76760  0.37990  Biso   1.000  C
  H57      1.0000 0.89580  0.22620  0.11190  Biso   1.000  H
  H58      1.0000 0.39580  0.72620  0.11190  Biso   1.000  H
  H59      1.0000 0.89580  0.77380  0.61190  Biso   1.000  H
  H60      1.0000 0.39580  0.27380  0.61190  Biso   1.000  H
  H61      1.0000 0.10420  0.77380  0.88810  Biso   1.000  H
  H62      1.0000 0.60420  0.27380  0.88810  Biso   1.000  H
  H63      1.0000 0.10420  0.22620  0.38810  Biso   1.000  H
  H64      1.0000 0.60420  0.72620  0.38810  Biso   1.000  H
  C97      1.0000 0.88720  0.31160  0.08320  Biso   1.000  C
  C98      1.0000 0.38720  0.81160  0.08320  Biso   1.000  C
  C99      1.0000 0.88720  0.68840  0.58320  Biso   1.000  C
  C100     1.0000 0.38720  0.18840  0.58320  Biso   1.000  C
  C101     1.0000 0.11280  0.68840  0.91680  Biso   1.000  C
  C102     1.0000 0.61280  0.18840  0.91680  Biso   1.000  C
  C103     1.0000 0.11280  0.31160  0.41680  Biso   1.000  C
  C104     1.0000 0.61280  0.81160  0.41680  Biso   1.000  C
  H65      1.0000 0.88770  0.30050  0.04880  Biso   1.000  H
  H66      1.0000 0.38770  0.80050  0.04880  Biso   1.000  H
  H67      1.0000 0.88770  0.69950  0.54880  Biso   1.000  H
  H68      1.0000 0.38770  0.19950  0.54880  Biso   1.000  H
  H69      1.0000 0.11230  0.69950  0.95120  Biso   1.000  H
  H70      1.0000 0.61230  0.19950  0.95120  Biso   1.000  H
  H71      1.0000 0.11230  0.30050  0.45120  Biso   1.000  H
  H72      1.0000 0.61230  0.80050  0.45120  Biso   1.000  H
  C105     1.0000 0.88220  0.37090  0.09550  Biso   1.000  C
  C106     1.0000 0.38220  0.87090  0.09550  Biso   1.000  C
  C107     1.0000 0.88220  0.62910  0.59550  Biso   1.000  C
  C108     1.0000 0.38220  0.12910  0.59550  Biso   1.000  C
  C109     1.0000 0.11780  0.62910  0.90450  Biso   1.000  C
  C110     1.0000 0.61780  0.12910  0.90450  Biso   1.000  C
  C111     1.0000 0.11780  0.37090  0.40450  Biso   1.000  C
  C112     1.0000 0.61780  0.87090  0.40450  Biso   1.000  C
  H73      1.0000 0.87840  0.40090  0.06960  Biso   1.000  H
  H74      1.0000 0.37840  0.90090  0.06960  Biso   1.000  H
  H75      1.0000 0.87840  0.59910  0.56960  Biso   1.000  H
  H76      1.0000 0.37840  0.09910  0.56960  Biso   1.000  H
  H77      1.0000 0.12160  0.59910  0.93040  Biso   1.000  H
  H78      1.0000 0.62160  0.09910  0.93040  Biso   1.000  H
  H79      1.0000 0.12160  0.40090  0.43040  Biso   1.000  H
  H80      1.0000 0.62160  0.90090  0.43040  Biso   1.000  H
  C113     1.0000 0.88290  0.38730  0.14650  Biso   1.000  C
  C114     1.0000 0.38290  0.88730  0.14650  Biso   1.000  C
  C115     1.0000 0.88290  0.61270  0.64650  Biso   1.000  C
  C116     1.0000 0.38290  0.11270  0.64650  Biso   1.000  C
  C117     1.0000 0.11710  0.61270  0.85350  Biso   1.000  C
  C118     1.0000 0.61710  0.11270  0.85350  Biso   1.000  C
  C119     1.0000 0.11710  0.38730  0.35350  Biso   1.000  C
  C120     1.0000 0.61710  0.88730  0.35350  Biso   1.000  C
  H81      1.0000 0.88030  0.42860  0.15550  Biso   1.000  H
  H82      1.0000 0.38030  0.92860  0.15550  Biso   1.000  H
  H83      1.0000 0.88030  0.57140  0.65550  Biso   1.000  H
  H84      1.0000 0.38030  0.07140  0.65550  Biso   1.000  H
  H85      1.0000 0.11970  0.57140  0.84450  Biso   1.000  H
  H86      1.0000 0.61970  0.07140  0.84450  Biso   1.000  H
  H87      1.0000 0.11970  0.42860  0.34450  Biso   1.000  H
  H88      1.0000 0.61970  0.92860  0.34450  Biso   1.000  H
  C121     1.0000 0.83840  0.56670  0.29830  Biso   1.000  C
  C122     1.0000 0.33840  0.06670  0.29830  Biso   1.000  C
  C123     1.0000 0.83840  0.43330  0.79830  Biso   1.000  C
  C124     1.0000 0.33840  0.93330  0.79830  Biso   1.000  C
  C125     1.0000 0.16160  0.43330  0.70170  Biso   1.000  C
  C126     1.0000 0.66160  0.93330  0.70170  Biso   1.000  C
  C127     1.0000 0.16160  0.56670  0.20170  Biso   1.000  C
  C128     1.0000 0.66160  0.06670  0.20170  Biso   1.000  C
  H89      1.0000 0.83980  0.52550  0.28900  Biso   1.000  H
  H90      1.0000 0.33980  0.02550  0.28900  Biso   1.000  H
  H91      1.0000 0.83980  0.47450  0.78900  Biso   1.000  H
  H92      1.0000 0.33980  0.97450  0.78900  Biso   1.000  H
  H93      1.0000 0.16020  0.47450  0.71100  Biso   1.000  H
  H94      1.0000 0.66020  0.97450  0.71100  Biso   1.000  H
  H95      1.0000 0.16020  0.52550  0.21100  Biso   1.000  H
  H96      1.0000 0.66020  0.02550  0.21100  Biso   1.000  H
  C129     1.0000 0.81440  0.58210  0.34390  Biso   1.000  C
  C130     1.0000 0.31440  0.08210  0.34390  Biso   1.000  C
  C131     1.0000 0.81440  0.41790  0.84390  Biso   1.000  C
  C132     1.0000 0.31440  0.91790  0.84390  Biso   1.000  C
  C133     1.0000 0.18560  0.41790  0.65610  Biso   1.000  C
  C134     1.0000 0.68560  0.91790  0.65610  Biso   1.000  C
  C135     1.0000 0.18560  0.58210  0.15610  Biso   1.000  C
  C136     1.0000 0.68560  0.08210  0.15610  Biso   1.000  C
  H97      1.0000 0.79520  0.55210  0.36500  Biso   1.000  H
  H98      1.0000 0.29520  0.05210  0.36500  Biso   1.000  H
  H99      1.0000 0.79520  0.44790  0.86500  Biso   1.000  H
  H100     1.0000 0.29520  0.94790  0.86500  Biso   1.000  H
  H101     1.0000 0.20480  0.44790  0.63500  Biso   1.000  H
  H102     1.0000 0.70480  0.94790  0.63500  Biso   1.000  H
  H103     1.0000 0.20480  0.55210  0.13500  Biso   1.000  H
  H104     1.0000 0.70480  0.05210  0.13500  Biso   1.000  H
  C137     1.0000 0.81850  0.64210  0.35870  Biso   1.000  C
  C138     1.0000 0.31850  0.14210  0.35870  Biso   1.000  C
  C139     1.0000 0.81850  0.35790  0.85870  Biso   1.000  C
  C140     1.0000 0.31850  0.85790  0.85870  Biso   1.000  C
  C141     1.0000 0.18150  0.35790  0.64130  Biso   1.000  C
  C142     1.0000 0.68150  0.85790  0.64130  Biso   1.000  C
  C143     1.0000 0.18150  0.64210  0.14130  Biso   1.000  C
  C144     1.0000 0.68150  0.14210  0.14130  Biso   1.000  C
  H105     1.0000 0.80700  0.65340  0.39140  Biso   1.000  H
  H106     1.0000 0.30700  0.15340  0.39140  Biso   1.000  H
  H107     1.0000 0.80700  0.34660  0.89140  Biso   1.000  H
  H108     1.0000 0.30700  0.84660  0.89140  Biso   1.000  H
  H109     1.0000 0.19300  0.34660  0.60860  Biso   1.000  H
  H110     1.0000 0.69300  0.84660  0.60860  Biso   1.000  H
  H111     1.0000 0.19300  0.65340  0.10860  Biso   1.000  H
  H112     1.0000 0.69300  0.15340  0.10860  Biso   1.000  H
  C145     1.0000 0.83920  0.68470  0.32580  Biso   1.000  C
  C146     1.0000 0.33920  0.18470  0.32580  Biso   1.000  C
  C147     1.0000 0.83920  0.31530  0.82580  Biso   1.000  C
  C148     1.0000 0.33920  0.81530  0.82580  Biso   1.000  C
  C149     1.0000 0.16080  0.31530  0.67420  Biso   1.000  C
  C150     1.0000 0.66080  0.81530  0.67420  Biso   1.000  C
  C151     1.0000 0.16080  0.68470  0.17420  Biso   1.000  C
  C152     1.0000 0.66080  0.18470  0.17420  Biso   1.000  C
  H113     1.0000 0.83990  0.72600  0.33500  Biso   1.000  H
  H114     1.0000 0.33990  0.22600  0.33500  Biso   1.000  H
  H115     1.0000 0.83990  0.27400  0.83500  Biso   1.000  H
  H116     1.0000 0.33990  0.77400  0.83500  Biso   1.000  H
  H117     1.0000 0.16010  0.27400  0.66500  Biso   1.000  H
  H118     1.0000 0.66010  0.77400  0.66500  Biso   1.000  H
  H119     1.0000 0.16010  0.72600  0.16500  Biso   1.000  H
  H120     1.0000 0.66010  0.22600  0.16500  Biso   1.000  H
  C153     1.0000 0.85900  0.66810  0.27980  Biso   1.000  C
  C154     1.0000 0.35900  0.16810  0.27980  Biso   1.000  C
  C155     1.0000 0.85900  0.33190  0.77980  Biso   1.000  C
  C156     1.0000 0.35900  0.83190  0.77980  Biso   1.000  C
  C157     1.0000 0.14100  0.33190  0.72020  Biso   1.000  C
  C158     1.0000 0.64100  0.83190  0.72020  Biso   1.000  C
  C159     1.0000 0.14100  0.66810  0.22020  Biso   1.000  C
  C160     1.0000 0.64100  0.16810  0.22020  Biso   1.000  C
  C161     1.0000 0.87570  0.70970  0.23860  Biso   1.000  C
  C162     1.0000 0.37570  0.20970  0.23860  Biso   1.000  C
  C163     1.0000 0.87570  0.29030  0.73860  Biso   1.000  C
  C164     1.0000 0.37570  0.79030  0.73860  Biso   1.000  C
  C165     1.0000 0.12430  0.29030  0.76140  Biso   1.000  C
  C166     1.0000 0.62430  0.79030  0.76140  Biso   1.000  C
  C167     1.0000 0.12430  0.70970  0.26140  Biso   1.000  C
  C168     1.0000 0.62430  0.20970  0.26140  Biso   1.000  C
  C169     1.0000 0.87520  0.77150  0.23950  Biso   1.000  C
  C170     1.0000 0.37520  0.27150  0.23950  Biso   1.000  C
  C171     1.0000 0.87520  0.22850  0.73950  Biso   1.000  C
  C172     1.0000 0.37520  0.72850  0.73950  Biso   1.000  C
  C173     1.0000 0.12480  0.22850  0.76050  Biso   1.000  C
  C174     1.0000 0.62480  0.72850  0.76050  Biso   1.000  C
  C175     1.0000 0.12480  0.77150  0.26050  Biso   1.000  C
  C176     1.0000 0.62480  0.27150  0.26050  Biso   1.000  C
  H121     1.0000 0.86620  0.79220  0.26940  Biso   1.000  H
  H122     1.0000 0.36620  0.29220  0.26940  Biso   1.000  H
  H123     1.0000 0.86620  0.20780  0.76940  Biso   1.000  H
  H124     1.0000 0.36620  0.70780  0.76940  Biso   1.000  H
  H125     1.0000 0.13380  0.20780  0.73060  Biso   1.000  H
  H126     1.0000 0.63380  0.70780  0.73060  Biso   1.000  H
  H127     1.0000 0.13380  0.79220  0.23060  Biso   1.000  H
  H128     1.0000 0.63380  0.29220  0.23060  Biso   1.000  H
  C177     1.0000 0.88750  0.80280  0.19770  Biso   1.000  C
  C178     1.0000 0.38750  0.30280  0.19770  Biso   1.000  C
  C179     1.0000 0.88750  0.19720  0.69770  Biso   1.000  C
  C180     1.0000 0.38750  0.69720  0.69770  Biso   1.000  C
  C181     1.0000 0.11250  0.19720  0.80230  Biso   1.000  C
  C182     1.0000 0.61250  0.69720  0.80230  Biso   1.000  C
  C183     1.0000 0.11250  0.80280  0.30230  Biso   1.000  C
  C184     1.0000 0.61250  0.30280  0.30230  Biso   1.000  C
  H129     1.0000 0.88560  0.84550  0.19800  Biso   1.000  H
  H130     1.0000 0.38560  0.34550  0.19800  Biso   1.000  H
  H131     1.0000 0.88560  0.15450  0.69800  Biso   1.000  H
  H132     1.0000 0.38560  0.65450  0.69800  Biso   1.000  H
  H133     1.0000 0.11440  0.15450  0.80200  Biso   1.000  H
  H134     1.0000 0.61440  0.65450  0.80200  Biso   1.000  H
  H135     1.0000 0.11440  0.84550  0.30200  Biso   1.000  H
  H136     1.0000 0.61440  0.34550  0.30200  Biso   1.000  H
  C185     1.0000 0.90280  0.77300  0.15490  Biso   1.000  C
  C186     1.0000 0.40280  0.27300  0.15490  Biso   1.000  C
  C187     1.0000 0.90280  0.22700  0.65490  Biso   1.000  C
  C188     1.0000 0.40280  0.72700  0.65490  Biso   1.000  C
  C189     1.0000 0.09720  0.22700  0.84510  Biso   1.000  C
  C190     1.0000 0.59720  0.72700  0.84510  Biso   1.000  C
  C191     1.0000 0.09720  0.77300  0.34510  Biso   1.000  C
  C192     1.0000 0.59720  0.27300  0.34510  Biso   1.000  C
  H137     1.0000 0.91100  0.79460  0.12530  Biso   1.000  H
  H138     1.0000 0.41100  0.29460  0.12530  Biso   1.000  H
  H139     1.0000 0.91100  0.20540  0.62530  Biso   1.000  H
  H140     1.0000 0.41100  0.70540  0.62530  Biso   1.000  H
  H141     1.0000 0.08900  0.20540  0.87470  Biso   1.000  H
  H142     1.0000 0.58900  0.70540  0.87470  Biso   1.000  H
  H143     1.0000 0.08900  0.79460  0.37470  Biso   1.000  H
  H144     1.0000 0.58900  0.29460  0.37470  Biso   1.000  H
  C193     1.0000 0.90610  0.71040  0.15600  Biso   1.000  C
  C194     1.0000 0.40610  0.21040  0.15600  Biso   1.000  C
  C195     1.0000 0.90610  0.28960  0.65600  Biso   1.000  C
  C196     1.0000 0.40610  0.78960  0.65600  Biso   1.000  C
  C197     1.0000 0.09390  0.28960  0.84400  Biso   1.000  C
  C198     1.0000 0.59390  0.78960  0.84400  Biso   1.000  C
  C199     1.0000 0.09390  0.71040  0.34400  Biso   1.000  C
  C200     1.0000 0.59390  0.21040  0.34400  Biso   1.000  C
  C201     1.0000 0.93120  0.67030  0.11610  Biso   1.000  C
  C202     1.0000 0.43120  0.17030  0.11610  Biso   1.000  C
  C203     1.0000 0.93120  0.32970  0.61610  Biso   1.000  C
  C204     1.0000 0.43120  0.82970  0.61610  Biso   1.000  C
  C205     1.0000 0.06880  0.32970  0.88390  Biso   1.000  C
  C206     1.0000 0.56880  0.82970  0.88390  Biso   1.000  C
  C207     1.0000 0.06880  0.67030  0.38390  Biso   1.000  C
  C208     1.0000 0.56880  0.17030  0.38390  Biso   1.000  C
  C209     1.0000 0.95450  0.69010  0.07120  Biso   1.000  C
  C210     1.0000 0.45450  0.19010  0.07120  Biso   1.000  C
  C211     1.0000 0.95450  0.30990  0.57120  Biso   1.000  C
  C212     1.0000 0.45450  0.80990  0.57120  Biso   1.000  C
  C213     1.0000 0.04550  0.30990  0.92880  Biso   1.000  C
  C214     1.0000 0.54550  0.80990  0.92880  Biso   1.000  C
  C215     1.0000 0.04550  0.69010  0.42880  Biso   1.000  C
  C216     1.0000 0.54550  0.19010  0.42880  Biso   1.000  C
  H145     1.0000 0.95140  0.73160  0.06220  Biso   1.000  H
  H146     1.0000 0.45140  0.23160  0.06220  Biso   1.000  H
  H147     1.0000 0.95140  0.26840  0.56220  Biso   1.000  H
  H148     1.0000 0.45140  0.76840  0.56220  Biso   1.000  H
  H149     1.0000 0.04860  0.26840  0.93780  Biso   1.000  H
  H150     1.0000 0.54860  0.76840  0.93780  Biso   1.000  H
  H151     1.0000 0.04860  0.73160  0.43780  Biso   1.000  H
  H152     1.0000 0.54860  0.23160  0.43780  Biso   1.000  H
  C217     1.0000 0.98260  0.64710  0.03980  Biso   1.000  C
  C218     1.0000 0.48260  0.14710  0.03980  Biso   1.000  C
  C219     1.0000 0.98260  0.35290  0.53980  Biso   1.000  C
  C220     1.0000 0.48260  0.85290  0.53980  Biso   1.000  C
  C221     1.0000 0.01740  0.35290  0.96020  Biso   1.000  C
  C222     1.0000 0.51740  0.85290  0.96020  Biso   1.000  C
  C223     1.0000 0.01740  0.64710  0.46020  Biso   1.000  C
  C224     1.0000 0.51740  0.14710  0.46020  Biso   1.000  C
  H153     1.0000 0.99980  0.65950  0.00870  Biso   1.000  H
  H154     1.0000 0.49980  0.15950  0.00870  Biso   1.000  H
  H155     1.0000 0.99980  0.34050  0.50870  Biso   1.000  H
  H156     1.0000 0.49980  0.84050  0.50870  Biso   1.000  H
  H157     1.0000 0.00020  0.34050  0.99130  Biso   1.000  H
  H158     1.0000 0.50020  0.84050  0.99130  Biso   1.000  H
  H159     1.0000 0.00020  0.65950  0.49130  Biso   1.000  H
  H160     1.0000 0.50020  0.15950  0.49130  Biso   1.000  H
  C225     1.0000 0.98630  0.58810  0.05210  Biso   1.000  C
  C226     1.0000 0.48630  0.08810  0.05210  Biso   1.000  C
  C227     1.0000 0.98630  0.41190  0.55210  Biso   1.000  C
  C228     1.0000 0.48630  0.91190  0.55210  Biso   1.000  C
  C229     1.0000 0.01370  0.41190  0.94790  Biso   1.000  C
  C230     1.0000 0.51370  0.91190  0.94790  Biso   1.000  C
  C231     1.0000 0.01370  0.58810  0.44790  Biso   1.000  C
  C232     1.0000 0.51370  0.08810  0.44790  Biso   1.000  C
  H161     1.0000 0.00600  0.55870  0.03050  Biso   1.000  H
  H162     1.0000 0.50600  0.05870  0.03050  Biso   1.000  H
  H163     1.0000 0.00600  0.44130  0.53050  Biso   1.000  H
  H164     1.0000 0.50600  0.94130  0.53050  Biso   1.000  H
  H165     1.0000 0.99400  0.44130  0.96950  Biso   1.000  H
  H166     1.0000 0.49400  0.94130  0.96950  Biso   1.000  H
  H167     1.0000 0.99400  0.55870  0.46950  Biso   1.000  H
  H168     1.0000 0.49400  0.05870  0.46950  Biso   1.000  H
  C233     1.0000 0.96010  0.57200  0.09770  Biso   1.000  C
  C234     1.0000 0.46010  0.07200  0.09770  Biso   1.000  C
  C235     1.0000 0.96010  0.42800  0.59770  Biso   1.000  C
  C236     1.0000 0.46010  0.92800  0.59770  Biso   1.000  C
  C237     1.0000 0.03990  0.42800  0.90230  Biso   1.000  C
  C238     1.0000 0.53990  0.92800  0.90230  Biso   1.000  C
  C239     1.0000 0.03990  0.57200  0.40230  Biso   1.000  C
  C240     1.0000 0.53990  0.07200  0.40230  Biso   1.000  C
  H169     1.0000 0.96070  0.53050  0.10630  Biso   1.000  H
  H170     1.0000 0.46070  0.03050  0.10630  Biso   1.000  H
  H171     1.0000 0.96070  0.46950  0.60630  Biso   1.000  H
  H172     1.0000 0.46070  0.96950  0.60630  Biso   1.000  H
  H173     1.0000 0.03930  0.46950  0.89370  Biso   1.000  H
  H174     1.0000 0.53930  0.96950  0.89370  Biso   1.000  H
  H175     1.0000 0.03930  0.53050  0.39370  Biso   1.000  H
  H176     1.0000 0.53930  0.03050  0.39370  Biso   1.000  H
