data_image0
_cell_length_a       22.4425
_cell_length_b       22.4425
_cell_length_c       20.1201
_cell_angle_alpha    90
_cell_angle_beta     90
_cell_angle_gamma    120

_symmetry_space_group_name_H-M    "P 1"
_symmetry_int_tables_number       1

loop_
  _symmetry_equiv_pos_as_xyz
  'x, y, z'

loop_
  _atom_site_label
  _atom_site_occupancy
  _atom_site_fract_x
  _atom_site_fract_y
  _atom_site_fract_z
  _atom_site_thermal_displace_type
  _atom_site_B_iso_or_equiv
  _atom_site_type_symbol
  Cu1      1.0000 0.13851  0.87216  0.84430  Biso   1.000  Cu
  Cu2      1.0000 0.12784  0.26635  0.84430  Biso   1.000  Cu
  Cu3      1.0000 0.73365  0.86149  0.84430  Biso   1.000  Cu
  Cu4      1.0000 0.80518  0.20549  0.17763  Biso   1.000  Cu
  Cu5      1.0000 0.79451  0.59968  0.17763  Biso   1.000  Cu
  Cu6      1.0000 0.40032  0.19482  0.17763  Biso   1.000  Cu
  Cu7      1.0000 0.47184  0.53883  0.51097  Biso   1.000  Cu
  Cu8      1.0000 0.46117  0.93302  0.51097  Biso   1.000  Cu
  Cu9      1.0000 0.06698  0.52816  0.51097  Biso   1.000  Cu
  Cu10     1.0000 0.86149  0.12784  0.15570  Biso   1.000  Cu
  Cu11     1.0000 0.87216  0.73365  0.15570  Biso   1.000  Cu
  Cu12     1.0000 0.26635  0.13851  0.15570  Biso   1.000  Cu
  Cu13     1.0000 0.52816  0.46117  0.48903  Biso   1.000  Cu
  Cu14     1.0000 0.53883  0.06698  0.48903  Biso   1.000  Cu
  Cu15     1.0000 0.93302  0.47184  0.48903  Biso   1.000  Cu
  Cu16     1.0000 0.19482  0.79451  0.82237  Biso   1.000  Cu
  Cu17     1.0000 0.20549  0.40032  0.82237  Biso   1.000  Cu
  Cu18     1.0000 0.59968  0.80518  0.82237  Biso   1.000  Cu
  C1       1.0000 0.06490  0.73460  0.89040  Biso   1.000  C
  C2       1.0000 0.26540  0.33030  0.89040  Biso   1.000  C
  C3       1.0000 0.66970  0.93510  0.89040  Biso   1.000  C
  C4       1.0000 0.73157  0.06793  0.22373  Biso   1.000  C
  C5       1.0000 0.93207  0.66363  0.22373  Biso   1.000  C
  C6       1.0000 0.33637  0.26843  0.22373  Biso   1.000  C
  C7       1.0000 0.39823  0.40127  0.55707  Biso   1.000  C
  C8       1.0000 0.59873  0.99697  0.55707  Biso   1.000  C
  C9       1.0000 0.00303  0.60177  0.55707  Biso   1.000  C
  C10      1.0000 0.93510  0.26540  0.10960  Biso   1.000  C
  C11      1.0000 0.73460  0.66970  0.10960  Biso   1.000  C
  C12      1.0000 0.33030  0.06490  0.10960  Biso   1.000  C
  C13      1.0000 0.60177  0.59873  0.44293  Biso   1.000  C
  C14      1.0000 0.40127  0.00303  0.44293  Biso   1.000  C
  C15      1.0000 0.99697  0.39823  0.44293  Biso   1.000  C
  C16      1.0000 0.26843  0.93207  0.77627  Biso   1.000  C
  C17      1.0000 0.06793  0.33637  0.77627  Biso   1.000  C
  C18      1.0000 0.66363  0.73157  0.77627  Biso   1.000  C
  C19      1.0000 0.00530  0.67520  0.92470  Biso   1.000  C
  C20      1.0000 0.32480  0.33010  0.92470  Biso   1.000  C
  C21      1.0000 0.66990  0.99470  0.92470  Biso   1.000  C
  C22      1.0000 0.67197  0.00853  0.25803  Biso   1.000  C
  C23      1.0000 0.99147  0.66343  0.25803  Biso   1.000  C
  C24      1.0000 0.33657  0.32803  0.25803  Biso   1.000  C
  C25      1.0000 0.33863  0.34187  0.59137  Biso   1.000  C
  C26      1.0000 0.65813  0.99677  0.59137  Biso   1.000  C
  C27      1.0000 0.00323  0.66137  0.59137  Biso   1.000  C
  C28      1.0000 0.99470  0.32480  0.07530  Biso   1.000  C
  C29      1.0000 0.67520  0.66990  0.07530  Biso   1.000  C
  C30      1.0000 0.33010  0.00530  0.07530  Biso   1.000  C
  C31      1.0000 0.66137  0.65813  0.40863  Biso   1.000  C
  C32      1.0000 0.34187  0.00323  0.40863  Biso   1.000  C
  C33      1.0000 0.99677  0.33863  0.40863  Biso   1.000  C
  C34      1.0000 0.32803  0.99147  0.74197  Biso   1.000  C
  C35      1.0000 0.00853  0.33657  0.74197  Biso   1.000  C
  C36      1.0000 0.66343  0.67197  0.74197  Biso   1.000  C
  C37      1.0000 0.96530  0.68720  0.96920  Biso   1.000  C
  C38      1.0000 0.31280  0.27810  0.96920  Biso   1.000  C
  C39      1.0000 0.72190  0.03470  0.96920  Biso   1.000  C
  C40      1.0000 0.63197  0.02053  0.30253  Biso   1.000  C
  C41      1.0000 0.97947  0.61143  0.30253  Biso   1.000  C
  C42      1.0000 0.38857  0.36803  0.30253  Biso   1.000  C
  C43      1.0000 0.29863  0.35387  0.63587  Biso   1.000  C
  C44      1.0000 0.64613  0.94477  0.63587  Biso   1.000  C
  C45      1.0000 0.05523  0.70137  0.63587  Biso   1.000  C
  C46      1.0000 0.03470  0.31280  0.03080  Biso   1.000  C
  C47      1.0000 0.68720  0.72190  0.03080  Biso   1.000  C
  C48      1.0000 0.27810  0.96530  0.03080  Biso   1.000  C
  C49      1.0000 0.70137  0.64613  0.36413  Biso   1.000  C
  C50      1.0000 0.35387  0.05523  0.36413  Biso   1.000  C
  C51      1.0000 0.94477  0.29863  0.36413  Biso   1.000  C
  C52      1.0000 0.36803  0.97947  0.69747  Biso   1.000  C
  C53      1.0000 0.02053  0.38857  0.69747  Biso   1.000  C
  C54      1.0000 0.61143  0.63197  0.69747  Biso   1.000  C
  H1       1.0000 0.97420  0.73190  0.97660  Biso   1.000  H
  H2       1.0000 0.26810  0.24230  0.97660  Biso   1.000  H
  H3       1.0000 0.75770  0.02580  0.97660  Biso   1.000  H
  H4       1.0000 0.64087  0.06523  0.30993  Biso   1.000  H
  H5       1.0000 0.93477  0.57563  0.30993  Biso   1.000  H
  H6       1.0000 0.42437  0.35913  0.30993  Biso   1.000  H
  H7       1.0000 0.30753  0.39857  0.64327  Biso   1.000  H
  H8       1.0000 0.60143  0.90897  0.64327  Biso   1.000  H
  H9       1.0000 0.09103  0.69247  0.64327  Biso   1.000  H
  H10      1.0000 0.02580  0.26810  0.02340  Biso   1.000  H
  H11      1.0000 0.73190  0.75770  0.02340  Biso   1.000  H
  H12      1.0000 0.24230  0.97420  0.02340  Biso   1.000  H
  H13      1.0000 0.69247  0.60143  0.35673  Biso   1.000  H
  H14      1.0000 0.39857  0.09103  0.35673  Biso   1.000  H
  H15      1.0000 0.90897  0.30753  0.35673  Biso   1.000  H
  H16      1.0000 0.35913  0.93477  0.69007  Biso   1.000  H
  H17      1.0000 0.06523  0.42437  0.69007  Biso   1.000  H
  H18      1.0000 0.57563  0.64087  0.69007  Biso   1.000  H
  C55      1.0000 0.91170  0.63250  0.00300  Biso   1.000  C
  C56      1.0000 0.36750  0.27920  0.00300  Biso   1.000  C
  C57      1.0000 0.72080  0.08830  0.00300  Biso   1.000  C
  C58      1.0000 0.57837  0.96583  0.33633  Biso   1.000  C
  C59      1.0000 0.03417  0.61253  0.33633  Biso   1.000  C
  C60      1.0000 0.38747  0.42163  0.33633  Biso   1.000  C
  C61      1.0000 0.24503  0.29917  0.66967  Biso   1.000  C
  C62      1.0000 0.70083  0.94587  0.66967  Biso   1.000  C
  C63      1.0000 0.05413  0.75497  0.66967  Biso   1.000  C
  C64      1.0000 0.08830  0.36750  0.99700  Biso   1.000  C
  C65      1.0000 0.63250  0.72080  0.99700  Biso   1.000  C
  C66      1.0000 0.27920  0.91170  0.99700  Biso   1.000  C
  C67      1.0000 0.75497  0.70083  0.33033  Biso   1.000  C
  C68      1.0000 0.29917  0.05413  0.33033  Biso   1.000  C
  C69      1.0000 0.94587  0.24503  0.33033  Biso   1.000  C
  C70      1.0000 0.42163  0.03417  0.66367  Biso   1.000  C
  C71      1.0000 0.96583  0.38747  0.66367  Biso   1.000  C
  C72      1.0000 0.61253  0.57837  0.66367  Biso   1.000  C
  C73      1.0000 0.87660  0.64590  0.05950  Biso   1.000  C
  C74      1.0000 0.35410  0.23070  0.05950  Biso   1.000  C
  C75      1.0000 0.76930  0.12340  0.05950  Biso   1.000  C
  C76      1.0000 0.54327  0.97923  0.39283  Biso   1.000  C
  C77      1.0000 0.02077  0.56403  0.39283  Biso   1.000  C
  C78      1.0000 0.43597  0.45673  0.39283  Biso   1.000  C
  C79      1.0000 0.20993  0.31257  0.72617  Biso   1.000  C
  C80      1.0000 0.68743  0.89737  0.72617  Biso   1.000  C
  C81      1.0000 0.10263  0.79007  0.72617  Biso   1.000  C
  C82      1.0000 0.12340  0.35410  0.94050  Biso   1.000  C
  C83      1.0000 0.64590  0.76930  0.94050  Biso   1.000  C
  C84      1.0000 0.23070  0.87660  0.94050  Biso   1.000  C
  C85      1.0000 0.79007  0.68743  0.27383  Biso   1.000  C
  C86      1.0000 0.31257  0.10263  0.27383  Biso   1.000  C
  C87      1.0000 0.89737  0.20993  0.27383  Biso   1.000  C
  C88      1.0000 0.45673  0.02077  0.60717  Biso   1.000  C
  C89      1.0000 0.97923  0.43597  0.60717  Biso   1.000  C
  C90      1.0000 0.56403  0.54327  0.60717  Biso   1.000  C
  C91      1.0000 0.89630  0.56630  0.98990  Biso   1.000  C
  C92      1.0000 0.43370  0.33000  0.98990  Biso   1.000  C
  C93      1.0000 0.67000  0.10370  0.98990  Biso   1.000  C
  C94      1.0000 0.56297  0.89963  0.32323  Biso   1.000  C
  C95      1.0000 0.10037  0.66333  0.32323  Biso   1.000  C
  C96      1.0000 0.33667  0.43703  0.32323  Biso   1.000  C
  C97      1.0000 0.22963  0.23297  0.65657  Biso   1.000  C
  C98      1.0000 0.76703  0.99667  0.65657  Biso   1.000  C
  C99      1.0000 0.00333  0.77037  0.65657  Biso   1.000  C
  C100     1.0000 0.10370  0.43370  0.01010  Biso   1.000  C
  C101     1.0000 0.56630  0.67000  0.01010  Biso   1.000  C
  C102     1.0000 0.33000  0.89630  0.01010  Biso   1.000  C
  C103     1.0000 0.77037  0.76703  0.34343  Biso   1.000  C
  C104     1.0000 0.23297  0.00333  0.34343  Biso   1.000  C
  C105     1.0000 0.99667  0.22963  0.34343  Biso   1.000  C
  C106     1.0000 0.43703  0.10037  0.67677  Biso   1.000  C
  C107     1.0000 0.89963  0.33667  0.67677  Biso   1.000  C
  C108     1.0000 0.66333  0.56297  0.67677  Biso   1.000  C
  H19      1.0000 0.86040  0.52980  0.01230  Biso   1.000  H
  H20      1.0000 0.47020  0.33060  0.01230  Biso   1.000  H
  H21      1.0000 0.66940  0.13960  0.01230  Biso   1.000  H
  H22      1.0000 0.52707  0.86313  0.34563  Biso   1.000  H
  H23      1.0000 0.13687  0.66393  0.34563  Biso   1.000  H
  H24      1.0000 0.33607  0.47293  0.34563  Biso   1.000  H
  H25      1.0000 0.19373  0.19647  0.67897  Biso   1.000  H
  H26      1.0000 0.80353  0.99727  0.67897  Biso   1.000  H
  H27      1.0000 0.00273  0.80627  0.67897  Biso   1.000  H
  H28      1.0000 0.13960  0.47020  0.98770  Biso   1.000  H
  H29      1.0000 0.52980  0.66940  0.98770  Biso   1.000  H
  H30      1.0000 0.33060  0.86040  0.98770  Biso   1.000  H
  H31      1.0000 0.80627  0.80353  0.32103  Biso   1.000  H
  H32      1.0000 0.19647  0.00273  0.32103  Biso   1.000  H
  H33      1.0000 0.99727  0.19373  0.32103  Biso   1.000  H
  H34      1.0000 0.47293  0.13687  0.65437  Biso   1.000  H
  H35      1.0000 0.86313  0.33607  0.65437  Biso   1.000  H
  H36      1.0000 0.66393  0.52707  0.65437  Biso   1.000  H
  C109     1.0000 0.93450  0.55360  0.94310  Biso   1.000  C
  C110     1.0000 0.44640  0.38090  0.94310  Biso   1.000  C
  C111     1.0000 0.61910  0.06550  0.94310  Biso   1.000  C
  C112     1.0000 0.60117  0.88693  0.27643  Biso   1.000  C
  C113     1.0000 0.11307  0.71423  0.27643  Biso   1.000  C
  C114     1.0000 0.28577  0.39883  0.27643  Biso   1.000  C
  C115     1.0000 0.26783  0.22027  0.60977  Biso   1.000  C
  C116     1.0000 0.77973  0.04757  0.60977  Biso   1.000  C
  C117     1.0000 0.95243  0.73217  0.60977  Biso   1.000  C
  C118     1.0000 0.06550  0.44640  0.05690  Biso   1.000  C
  C119     1.0000 0.55360  0.61910  0.05690  Biso   1.000  C
  C120     1.0000 0.38090  0.93450  0.05690  Biso   1.000  C
  C121     1.0000 0.73217  0.77973  0.39023  Biso   1.000  C
  C122     1.0000 0.22027  0.95243  0.39023  Biso   1.000  C
  C123     1.0000 0.04757  0.26783  0.39023  Biso   1.000  C
  C124     1.0000 0.39883  0.11307  0.72357  Biso   1.000  C
  C125     1.0000 0.88693  0.28577  0.72357  Biso   1.000  C
  C126     1.0000 0.71423  0.60117  0.72357  Biso   1.000  C
  C127     1.0000 0.99000  0.60780  0.91260  Biso   1.000  C
  C128     1.0000 0.39220  0.38220  0.91260  Biso   1.000  C
  C129     1.0000 0.61780  0.01000  0.91260  Biso   1.000  C
  C130     1.0000 0.65667  0.94113  0.24593  Biso   1.000  C
  C131     1.0000 0.05887  0.71553  0.24593  Biso   1.000  C
  C132     1.0000 0.28447  0.34333  0.24593  Biso   1.000  C
  C133     1.0000 0.32333  0.27447  0.57927  Biso   1.000  C
  C134     1.0000 0.72553  0.04887  0.57927  Biso   1.000  C
  C135     1.0000 0.95113  0.67667  0.57927  Biso   1.000  C
  C136     1.0000 0.01000  0.39220  0.08740  Biso   1.000  C
  C137     1.0000 0.60780  0.61780  0.08740  Biso   1.000  C
  C138     1.0000 0.38220  0.99000  0.08740  Biso   1.000  C
  C139     1.0000 0.67667  0.72553  0.42073  Biso   1.000  C
  C140     1.0000 0.27447  0.95113  0.42073  Biso   1.000  C
  C141     1.0000 0.04887  0.32333  0.42073  Biso   1.000  C
  C142     1.0000 0.34333  0.05887  0.75407  Biso   1.000  C
  C143     1.0000 0.94113  0.28447  0.75407  Biso   1.000  C
  C144     1.0000 0.71553  0.65667  0.75407  Biso   1.000  C
  H37      1.0000 0.01750  0.59950  0.88390  Biso   1.000  H
  H38      1.0000 0.40050  0.41800  0.88390  Biso   1.000  H
  H39      1.0000 0.58200  0.98250  0.88390  Biso   1.000  H
  H40      1.0000 0.68417  0.93283  0.21723  Biso   1.000  H
  H41      1.0000 0.06717  0.75133  0.21723  Biso   1.000  H
  H42      1.0000 0.24867  0.31583  0.21723  Biso   1.000  H
  H43      1.0000 0.35083  0.26617  0.55057  Biso   1.000  H
  H44      1.0000 0.73383  0.08467  0.55057  Biso   1.000  H
  H45      1.0000 0.91533  0.64917  0.55057  Biso   1.000  H
  H46      1.0000 0.98250  0.40050  0.11610  Biso   1.000  H
  H47      1.0000 0.59950  0.58200  0.11610  Biso   1.000  H
  H48      1.0000 0.41800  0.01750  0.11610  Biso   1.000  H
  H49      1.0000 0.64917  0.73383  0.44943  Biso   1.000  H
  H50      1.0000 0.26617  0.91533  0.44943  Biso   1.000  H
  H51      1.0000 0.08467  0.35083  0.44943  Biso   1.000  H
  H52      1.0000 0.31583  0.06717  0.78277  Biso   1.000  H
  H53      1.0000 0.93283  0.24867  0.78277  Biso   1.000  H
  H54      1.0000 0.75133  0.68417  0.78277  Biso   1.000  H
  C145     1.0000 0.84880  0.42920  0.92700  Biso   1.000  C
  C146     1.0000 0.57080  0.41960  0.92700  Biso   1.000  C
  C147     1.0000 0.58040  0.15120  0.92700  Biso   1.000  C
  C148     1.0000 0.51547  0.76253  0.26033  Biso   1.000  C
  C149     1.0000 0.23747  0.75293  0.26033  Biso   1.000  C
  C150     1.0000 0.24707  0.48453  0.26033  Biso   1.000  C
  C151     1.0000 0.18213  0.09587  0.59367  Biso   1.000  C
  C152     1.0000 0.90413  0.08627  0.59367  Biso   1.000  C
  C153     1.0000 0.91373  0.81787  0.59367  Biso   1.000  C
  C154     1.0000 0.15120  0.57080  0.07300  Biso   1.000  C
  C155     1.0000 0.42920  0.58040  0.07300  Biso   1.000  C
  C156     1.0000 0.41960  0.84880  0.07300  Biso   1.000  C
  C157     1.0000 0.81787  0.90413  0.40633  Biso   1.000  C
  C158     1.0000 0.09587  0.91373  0.40633  Biso   1.000  C
  C159     1.0000 0.08627  0.18213  0.40633  Biso   1.000  C
  C160     1.0000 0.48453  0.23747  0.73967  Biso   1.000  C
  C161     1.0000 0.76253  0.24707  0.73967  Biso   1.000  C
  C162     1.0000 0.75293  0.51547  0.73967  Biso   1.000  C
  C163     1.0000 0.85420  0.36650  0.91830  Biso   1.000  C
  C164     1.0000 0.63350  0.48770  0.91830  Biso   1.000  C
  C165     1.0000 0.51230  0.14580  0.91830  Biso   1.000  C
  C166     1.0000 0.52087  0.69983  0.25163  Biso   1.000  C
  C167     1.0000 0.30017  0.82103  0.25163  Biso   1.000  C
  C168     1.0000 0.17897  0.47913  0.25163  Biso   1.000  C
  C169     1.0000 0.18753  0.03317  0.58497  Biso   1.000  C
  C170     1.0000 0.96683  0.15437  0.58497  Biso   1.000  C
  C171     1.0000 0.84563  0.81247  0.58497  Biso   1.000  C
  C172     1.0000 0.14580  0.63350  0.08170  Biso   1.000  C
  C173     1.0000 0.36650  0.51230  0.08170  Biso   1.000  C
  C174     1.0000 0.48770  0.85420  0.08170  Biso   1.000  C
  C175     1.0000 0.81247  0.96683  0.41503  Biso   1.000  C
  C176     1.0000 0.03317  0.84563  0.41503  Biso   1.000  C
  C177     1.0000 0.15437  0.18753  0.41503  Biso   1.000  C
  C178     1.0000 0.47913  0.30017  0.74837  Biso   1.000  C
  C179     1.0000 0.69983  0.17897  0.74837  Biso   1.000  C
  C180     1.0000 0.82103  0.52087  0.74837  Biso   1.000  C
  C181     1.0000 0.80330  0.29860  0.91450  Biso   1.000  C
  C182     1.0000 0.70140  0.50470  0.91450  Biso   1.000  C
  C183     1.0000 0.49530  0.19670  0.91450  Biso   1.000  C
  C184     1.0000 0.46997  0.63193  0.24783  Biso   1.000  C
  C185     1.0000 0.36807  0.83803  0.24783  Biso   1.000  C
  C186     1.0000 0.16197  0.53003  0.24783  Biso   1.000  C
  C187     1.0000 0.13663  0.96527  0.58117  Biso   1.000  C
  C188     1.0000 0.03473  0.17137  0.58117  Biso   1.000  C
  C189     1.0000 0.82863  0.86337  0.58117  Biso   1.000  C
  C190     1.0000 0.19670  0.70140  0.08550  Biso   1.000  C
  C191     1.0000 0.29860  0.49530  0.08550  Biso   1.000  C
  C192     1.0000 0.50470  0.80330  0.08550  Biso   1.000  C
  C193     1.0000 0.86337  0.03473  0.41883  Biso   1.000  C
  C194     1.0000 0.96527  0.82863  0.41883  Biso   1.000  C
  C195     1.0000 0.17137  0.13663  0.41883  Biso   1.000  C
  C196     1.0000 0.53003  0.36807  0.75217  Biso   1.000  C
  C197     1.0000 0.63193  0.16197  0.75217  Biso   1.000  C
  C198     1.0000 0.83803  0.46997  0.75217  Biso   1.000  C
  H55      1.0000 0.75710  0.28610  0.91500  Biso   1.000  H
  H56      1.0000 0.71390  0.47100  0.91500  Biso   1.000  H
  H57      1.0000 0.52900  0.24290  0.91500  Biso   1.000  H
  H58      1.0000 0.42377  0.61943  0.24833  Biso   1.000  H
  H59      1.0000 0.38057  0.80433  0.24833  Biso   1.000  H
  H60      1.0000 0.19567  0.57623  0.24833  Biso   1.000  H
  H61      1.0000 0.09043  0.95277  0.58167  Biso   1.000  H
  H62      1.0000 0.04723  0.13767  0.58167  Biso   1.000  H
  H63      1.0000 0.86233  0.90957  0.58167  Biso   1.000  H
  H64      1.0000 0.24290  0.71390  0.08500  Biso   1.000  H
  H65      1.0000 0.28610  0.52900  0.08500  Biso   1.000  H
  H66      1.0000 0.47100  0.75710  0.08500  Biso   1.000  H
  H67      1.0000 0.90957  0.04723  0.41833  Biso   1.000  H
  H68      1.0000 0.95277  0.86233  0.41833  Biso   1.000  H
  H69      1.0000 0.13767  0.09043  0.41833  Biso   1.000  H
  H70      1.0000 0.57623  0.38057  0.75167  Biso   1.000  H
  H71      1.0000 0.61943  0.19567  0.75167  Biso   1.000  H
  H72      1.0000 0.80433  0.42377  0.75167  Biso   1.000  H
  C199     1.0000 0.82290  0.24970  0.91010  Biso   1.000  C
  C200     1.0000 0.75030  0.57320  0.91010  Biso   1.000  C
  C201     1.0000 0.42680  0.17710  0.91010  Biso   1.000  C
  C202     1.0000 0.48957  0.58303  0.24343  Biso   1.000  C
  C203     1.0000 0.41697  0.90653  0.24343  Biso   1.000  C
  C204     1.0000 0.09347  0.51043  0.24343  Biso   1.000  C
  C205     1.0000 0.15623  0.91637  0.57677  Biso   1.000  C
  C206     1.0000 0.08363  0.23987  0.57677  Biso   1.000  C
  C207     1.0000 0.76013  0.84377  0.57677  Biso   1.000  C
  C208     1.0000 0.17710  0.75030  0.08990  Biso   1.000  C
  C209     1.0000 0.24970  0.42680  0.08990  Biso   1.000  C
  C210     1.0000 0.57320  0.82290  0.08990  Biso   1.000  C
  C211     1.0000 0.84377  0.08363  0.42323  Biso   1.000  C
  C212     1.0000 0.91637  0.76013  0.42323  Biso   1.000  C
  C213     1.0000 0.23987  0.15623  0.42323  Biso   1.000  C
  C214     1.0000 0.51043  0.41697  0.75657  Biso   1.000  C
  C215     1.0000 0.58303  0.09347  0.75657  Biso   1.000  C
  C216     1.0000 0.90653  0.48957  0.75657  Biso   1.000  C
  H73      1.0000 0.78950  0.20340  0.90760  Biso   1.000  H
  H74      1.0000 0.79660  0.58610  0.90760  Biso   1.000  H
  H75      1.0000 0.41390  0.21050  0.90760  Biso   1.000  H
  H76      1.0000 0.45617  0.53673  0.24093  Biso   1.000  H
  H77      1.0000 0.46327  0.91943  0.24093  Biso   1.000  H
  H78      1.0000 0.08057  0.54383  0.24093  Biso   1.000  H
  H79      1.0000 0.12283  0.87007  0.57427  Biso   1.000  H
  H80      1.0000 0.12993  0.25277  0.57427  Biso   1.000  H
  H81      1.0000 0.74723  0.87717  0.57427  Biso   1.000  H
  H82      1.0000 0.21050  0.79660  0.09240  Biso   1.000  H
  H83      1.0000 0.20340  0.41390  0.09240  Biso   1.000  H
  H84      1.0000 0.58610  0.78950  0.09240  Biso   1.000  H
  H85      1.0000 0.87717  0.12993  0.42573  Biso   1.000  H
  H86      1.0000 0.87007  0.74723  0.42573  Biso   1.000  H
  H87      1.0000 0.25277  0.12283  0.42573  Biso   1.000  H
  H88      1.0000 0.54383  0.46327  0.75907  Biso   1.000  H
  H89      1.0000 0.53673  0.08057  0.75907  Biso   1.000  H
  H90      1.0000 0.91943  0.45617  0.75907  Biso   1.000  H
  C217     1.0000 0.89230  0.26860  0.90940  Biso   1.000  C
  C218     1.0000 0.73140  0.62370  0.90940  Biso   1.000  C
  C219     1.0000 0.37630  0.10770  0.90940  Biso   1.000  C
  C220     1.0000 0.55897  0.60193  0.24273  Biso   1.000  C
  C221     1.0000 0.39807  0.95703  0.24273  Biso   1.000  C
  C222     1.0000 0.04297  0.44103  0.24273  Biso   1.000  C
  C223     1.0000 0.22563  0.93527  0.57607  Biso   1.000  C
  C224     1.0000 0.06473  0.29037  0.57607  Biso   1.000  C
  C225     1.0000 0.70963  0.77437  0.57607  Biso   1.000  C
  C226     1.0000 0.10770  0.73140  0.09060  Biso   1.000  C
  C227     1.0000 0.26860  0.37630  0.09060  Biso   1.000  C
  C228     1.0000 0.62370  0.89230  0.09060  Biso   1.000  C
  C229     1.0000 0.77437  0.06473  0.42393  Biso   1.000  C
  C230     1.0000 0.93527  0.70963  0.42393  Biso   1.000  C
  C231     1.0000 0.29037  0.22563  0.42393  Biso   1.000  C
  C232     1.0000 0.44103  0.39807  0.75727  Biso   1.000  C
  C233     1.0000 0.60193  0.04297  0.75727  Biso   1.000  C
  C234     1.0000 0.95703  0.55897  0.75727  Biso   1.000  C
  H91      1.0000 0.90460  0.23480  0.90830  Biso   1.000  H
  H92      1.0000 0.76520  0.66980  0.90830  Biso   1.000  H
  H93      1.0000 0.33020  0.09540  0.90830  Biso   1.000  H
  H94      1.0000 0.57127  0.56813  0.24163  Biso   1.000  H
  H95      1.0000 0.43187  0.00313  0.24163  Biso   1.000  H
  H96      1.0000 0.99687  0.42873  0.24163  Biso   1.000  H
  H97      1.0000 0.23793  0.90147  0.57497  Biso   1.000  H
  H98      1.0000 0.09853  0.33647  0.57497  Biso   1.000  H
  H99      1.0000 0.66353  0.76207  0.57497  Biso   1.000  H
  H100     1.0000 0.09540  0.76520  0.09170  Biso   1.000  H
  H101     1.0000 0.23480  0.33020  0.09170  Biso   1.000  H
  H102     1.0000 0.66980  0.90460  0.09170  Biso   1.000  H
  H103     1.0000 0.76207  0.09853  0.42503  Biso   1.000  H
  H104     1.0000 0.90147  0.66353  0.42503  Biso   1.000  H
  H105     1.0000 0.33647  0.23793  0.42503  Biso   1.000  H
  H106     1.0000 0.42873  0.43187  0.75837  Biso   1.000  H
  H107     1.0000 0.56813  0.99687  0.75837  Biso   1.000  H
  H108     1.0000 0.00313  0.57127  0.75837  Biso   1.000  H
  C235     1.0000 0.94380  0.33840  0.91040  Biso   1.000  C
  C236     1.0000 0.66160  0.60540  0.91040  Biso   1.000  C
  C237     1.0000 0.39460  0.05620  0.91040  Biso   1.000  C
  C238     1.0000 0.61047  0.67173  0.24373  Biso   1.000  C
  C239     1.0000 0.32827  0.93873  0.24373  Biso   1.000  C
  C240     1.0000 0.06127  0.38953  0.24373  Biso   1.000  C
  C241     1.0000 0.27713  0.00507  0.57707  Biso   1.000  C
  C242     1.0000 0.99493  0.27207  0.57707  Biso   1.000  C
  C243     1.0000 0.72793  0.72287  0.57707  Biso   1.000  C
  C244     1.0000 0.05620  0.66160  0.08960  Biso   1.000  C
  C245     1.0000 0.33840  0.39460  0.08960  Biso   1.000  C
  C246     1.0000 0.60540  0.94380  0.08960  Biso   1.000  C
  C247     1.0000 0.72287  0.99493  0.42293  Biso   1.000  C
  C248     1.0000 0.00507  0.72793  0.42293  Biso   1.000  C
  C249     1.0000 0.27207  0.27713  0.42293  Biso   1.000  C
  C250     1.0000 0.38953  0.32827  0.75627  Biso   1.000  C
  C251     1.0000 0.67173  0.06127  0.75627  Biso   1.000  C
  C252     1.0000 0.93873  0.61047  0.75627  Biso   1.000  C
  H109     1.0000 0.99020  0.35180  0.90750  Biso   1.000  H
  H110     1.0000 0.64820  0.63840  0.90750  Biso   1.000  H
  H111     1.0000 0.36160  0.00980  0.90750  Biso   1.000  H
  H112     1.0000 0.65687  0.68513  0.24083  Biso   1.000  H
  H113     1.0000 0.31487  0.97173  0.24083  Biso   1.000  H
  H114     1.0000 0.02827  0.34313  0.24083  Biso   1.000  H
  H115     1.0000 0.32353  0.01847  0.57417  Biso   1.000  H
  H116     1.0000 0.98153  0.30507  0.57417  Biso   1.000  H
  H117     1.0000 0.69493  0.67647  0.57417  Biso   1.000  H
  H118     1.0000 0.00980  0.64820  0.09250  Biso   1.000  H
  H119     1.0000 0.35180  0.36160  0.09250  Biso   1.000  H
  H120     1.0000 0.63840  0.99020  0.09250  Biso   1.000  H
  H121     1.0000 0.67647  0.98153  0.42583  Biso   1.000  H
  H122     1.0000 0.01847  0.69493  0.42583  Biso   1.000  H
  H123     1.0000 0.30507  0.32353  0.42583  Biso   1.000  H
  H124     1.0000 0.34313  0.31487  0.75917  Biso   1.000  H
  H125     1.0000 0.68513  0.02827  0.75917  Biso   1.000  H
  H126     1.0000 0.97173  0.65687  0.75917  Biso   1.000  H
  C253     1.0000 0.92250  0.38530  0.91570  Biso   1.000  C
  C254     1.0000 0.61470  0.53720  0.91570  Biso   1.000  C
  C255     1.0000 0.46280  0.07750  0.91570  Biso   1.000  C
  C256     1.0000 0.58917  0.71863  0.24903  Biso   1.000  C
  C257     1.0000 0.28137  0.87053  0.24903  Biso   1.000  C
  C258     1.0000 0.12947  0.41083  0.24903  Biso   1.000  C
  C259     1.0000 0.25583  0.05197  0.58237  Biso   1.000  C
  C260     1.0000 0.94803  0.20387  0.58237  Biso   1.000  C
  C261     1.0000 0.79613  0.74417  0.58237  Biso   1.000  C
  C262     1.0000 0.07750  0.61470  0.08430  Biso   1.000  C
  C263     1.0000 0.38530  0.46280  0.08430  Biso   1.000  C
  C264     1.0000 0.53720  0.92250  0.08430  Biso   1.000  C
  C265     1.0000 0.74417  0.94803  0.41763  Biso   1.000  C
  C266     1.0000 0.05197  0.79613  0.41763  Biso   1.000  C
  C267     1.0000 0.20387  0.25583  0.41763  Biso   1.000  C
  C268     1.0000 0.41083  0.28137  0.75097  Biso   1.000  C
  C269     1.0000 0.71863  0.12947  0.75097  Biso   1.000  C
  C270     1.0000 0.87053  0.58917  0.75097  Biso   1.000  C
  C271     1.0000 0.96340  0.46130  0.92250  Biso   1.000  C
  C272     1.0000 0.53870  0.50210  0.92250  Biso   1.000  C
  C273     1.0000 0.49790  0.03660  0.92250  Biso   1.000  C
  C274     1.0000 0.63007  0.79463  0.25583  Biso   1.000  C
  C275     1.0000 0.20537  0.83543  0.25583  Biso   1.000  C
  C276     1.0000 0.16457  0.36993  0.25583  Biso   1.000  C
  C277     1.0000 0.29673  0.12797  0.58917  Biso   1.000  C
  C278     1.0000 0.87203  0.16877  0.58917  Biso   1.000  C
  C279     1.0000 0.83123  0.70327  0.58917  Biso   1.000  C
  C280     1.0000 0.03660  0.53870  0.07750  Biso   1.000  C
  C281     1.0000 0.46130  0.49790  0.07750  Biso   1.000  C
  C282     1.0000 0.50210  0.96340  0.07750  Biso   1.000  C
  C283     1.0000 0.70327  0.87203  0.41083  Biso   1.000  C
  C284     1.0000 0.12797  0.83123  0.41083  Biso   1.000  C
  C285     1.0000 0.16877  0.29673  0.41083  Biso   1.000  C
  C286     1.0000 0.36993  0.20537  0.74417  Biso   1.000  C
  C287     1.0000 0.79463  0.16457  0.74417  Biso   1.000  C
  C288     1.0000 0.83543  0.63007  0.74417  Biso   1.000  C
  C289     1.0000 0.13290  0.01550  0.76420  Biso   1.000  C
  C290     1.0000 0.98450  0.11740  0.76420  Biso   1.000  C
  C291     1.0000 0.88260  0.86710  0.76420  Biso   1.000  C
  C292     1.0000 0.79957  0.34883  0.09753  Biso   1.000  C
  C293     1.0000 0.65117  0.45073  0.09753  Biso   1.000  C
  C294     1.0000 0.54927  0.20043  0.09753  Biso   1.000  C
  C295     1.0000 0.46623  0.68217  0.43087  Biso   1.000  C
  C296     1.0000 0.31783  0.78407  0.43087  Biso   1.000  C
  C297     1.0000 0.21593  0.53377  0.43087  Biso   1.000  C
  C298     1.0000 0.86710  0.98450  0.23580  Biso   1.000  C
  C299     1.0000 0.01550  0.88260  0.23580  Biso   1.000  C
  C300     1.0000 0.11740  0.13290  0.23580  Biso   1.000  C
  C301     1.0000 0.53377  0.31783  0.56913  Biso   1.000  C
  C302     1.0000 0.68217  0.21593  0.56913  Biso   1.000  C
  C303     1.0000 0.78407  0.46623  0.56913  Biso   1.000  C
  C304     1.0000 0.20043  0.65117  0.90247  Biso   1.000  C
  C305     1.0000 0.34883  0.54927  0.90247  Biso   1.000  C
  C306     1.0000 0.45073  0.79957  0.90247  Biso   1.000  C
  H127     1.0000 0.11220  0.97270  0.74040  Biso   1.000  H
  H128     1.0000 0.02730  0.13950  0.74040  Biso   1.000  H
  H129     1.0000 0.86050  0.88780  0.74040  Biso   1.000  H
  H130     1.0000 0.77887  0.30603  0.07373  Biso   1.000  H
  H131     1.0000 0.69397  0.47283  0.07373  Biso   1.000  H
  H132     1.0000 0.52717  0.22113  0.07373  Biso   1.000  H
  H133     1.0000 0.44553  0.63937  0.40707  Biso   1.000  H
  H134     1.0000 0.36063  0.80617  0.40707  Biso   1.000  H
  H135     1.0000 0.19383  0.55447  0.40707  Biso   1.000  H
  H136     1.0000 0.88780  0.02730  0.25960  Biso   1.000  H
  H137     1.0000 0.97270  0.86050  0.25960  Biso   1.000  H
  H138     1.0000 0.13950  0.11220  0.25960  Biso   1.000  H
  H139     1.0000 0.55447  0.36063  0.59293  Biso   1.000  H
  H140     1.0000 0.63937  0.19383  0.59293  Biso   1.000  H
  H141     1.0000 0.80617  0.44553  0.59293  Biso   1.000  H
  H142     1.0000 0.22113  0.69397  0.92627  Biso   1.000  H
  H143     1.0000 0.30603  0.52717  0.92627  Biso   1.000  H
  H144     1.0000 0.47283  0.77887  0.92627  Biso   1.000  H
  H145     1.0000 0.17980  0.04370  0.75010  Biso   1.000  H
  H146     1.0000 0.95630  0.13610  0.75010  Biso   1.000  H
  H147     1.0000 0.86390  0.82020  0.75010  Biso   1.000  H
  H148     1.0000 0.84647  0.37703  0.08343  Biso   1.000  H
  H149     1.0000 0.62297  0.46943  0.08343  Biso   1.000  H
  H150     1.0000 0.53057  0.15353  0.08343  Biso   1.000  H
  H151     1.0000 0.51313  0.71037  0.41677  Biso   1.000  H
  H152     1.0000 0.28963  0.80277  0.41677  Biso   1.000  H
  H153     1.0000 0.19723  0.48687  0.41677  Biso   1.000  H
  H154     1.0000 0.82020  0.95630  0.24990  Biso   1.000  H
  H155     1.0000 0.04370  0.86390  0.24990  Biso   1.000  H
  H156     1.0000 0.13610  0.17980  0.24990  Biso   1.000  H
  H157     1.0000 0.48687  0.28963  0.58323  Biso   1.000  H
  H158     1.0000 0.71037  0.19723  0.58323  Biso   1.000  H
  H159     1.0000 0.80277  0.51313  0.58323  Biso   1.000  H
  H160     1.0000 0.15353  0.62297  0.91657  Biso   1.000  H
  H161     1.0000 0.37703  0.53057  0.91657  Biso   1.000  H
  H162     1.0000 0.46943  0.84647  0.91657  Biso   1.000  H
  H163     1.0000 0.10790  0.03900  0.75520  Biso   1.000  H
  H164     1.0000 0.96100  0.06890  0.75520  Biso   1.000  H
  H165     1.0000 0.93110  0.89210  0.75520  Biso   1.000  H
  H166     1.0000 0.77457  0.37233  0.08853  Biso   1.000  H
  H167     1.0000 0.62767  0.40223  0.08853  Biso   1.000  H
  H168     1.0000 0.59777  0.22543  0.08853  Biso   1.000  H
  H169     1.0000 0.44123  0.70567  0.42187  Biso   1.000  H
  H170     1.0000 0.29433  0.73557  0.42187  Biso   1.000  H
  H171     1.0000 0.26443  0.55877  0.42187  Biso   1.000  H
  H172     1.0000 0.89210  0.96100  0.24480  Biso   1.000  H
  H173     1.0000 0.03900  0.93110  0.24480  Biso   1.000  H
  H174     1.0000 0.06890  0.10790  0.24480  Biso   1.000  H
  H175     1.0000 0.55877  0.29433  0.57813  Biso   1.000  H
  H176     1.0000 0.70567  0.26443  0.57813  Biso   1.000  H
  H177     1.0000 0.73557  0.44123  0.57813  Biso   1.000  H
  H178     1.0000 0.22543  0.62767  0.91147  Biso   1.000  H
  H179     1.0000 0.37233  0.59777  0.91147  Biso   1.000  H
  H180     1.0000 0.40223  0.77457  0.91147  Biso   1.000  H
  C307     1.0000 0.13100  0.00170  0.83780  Biso   1.000  C
  C308     1.0000 0.99830  0.12930  0.83780  Biso   1.000  C
  C309     1.0000 0.87070  0.86900  0.83780  Biso   1.000  C
  C310     1.0000 0.79767  0.33503  0.17113  Biso   1.000  C
  C311     1.0000 0.66497  0.46263  0.17113  Biso   1.000  C
  C312     1.0000 0.53737  0.20233  0.17113  Biso   1.000  C
  C313     1.0000 0.46433  0.66837  0.50447  Biso   1.000  C
  C314     1.0000 0.33163  0.79597  0.50447  Biso   1.000  C
  C315     1.0000 0.20403  0.53567  0.50447  Biso   1.000  C
  C316     1.0000 0.86900  0.99830  0.16220  Biso   1.000  C
  C317     1.0000 0.00170  0.87070  0.16220  Biso   1.000  C
  C318     1.0000 0.12930  0.13100  0.16220  Biso   1.000  C
  C319     1.0000 0.53567  0.33163  0.49553  Biso   1.000  C
  C320     1.0000 0.66837  0.20403  0.49553  Biso   1.000  C
  C321     1.0000 0.79597  0.46433  0.49553  Biso   1.000  C
  C322     1.0000 0.20233  0.66497  0.82887  Biso   1.000  C
  C323     1.0000 0.33503  0.53737  0.82887  Biso   1.000  C
  C324     1.0000 0.46263  0.79767  0.82887  Biso   1.000  C
  C325     1.0000 0.16310  0.04370  0.94980  Biso   1.000  C
  C326     1.0000 0.95630  0.11940  0.94980  Biso   1.000  C
  C327     1.0000 0.88060  0.83690  0.94980  Biso   1.000  C
  C328     1.0000 0.82977  0.37703  0.28313  Biso   1.000  C
  C329     1.0000 0.62297  0.45273  0.28313  Biso   1.000  C
  C330     1.0000 0.54727  0.17023  0.28313  Biso   1.000  C
  C331     1.0000 0.49643  0.71037  0.61647  Biso   1.000  C
  C332     1.0000 0.28963  0.78607  0.61647  Biso   1.000  C
  C333     1.0000 0.21393  0.50357  0.61647  Biso   1.000  C
  C334     1.0000 0.83690  0.95630  0.05020  Biso   1.000  C
  C335     1.0000 0.04370  0.88060  0.05020  Biso   1.000  C
  C336     1.0000 0.11940  0.16310  0.05020  Biso   1.000  C
  C337     1.0000 0.50357  0.28963  0.38353  Biso   1.000  C
  C338     1.0000 0.71037  0.21393  0.38353  Biso   1.000  C
  C339     1.0000 0.78607  0.49643  0.38353  Biso   1.000  C
  C340     1.0000 0.17023  0.62297  0.71687  Biso   1.000  C
  C341     1.0000 0.37703  0.54727  0.71687  Biso   1.000  C
  C342     1.0000 0.45273  0.82977  0.71687  Biso   1.000  C
  H181     1.0000 0.12390  0.04230  0.97050  Biso   1.000  H
  H182     1.0000 0.95770  0.08160  0.97050  Biso   1.000  H
  H183     1.0000 0.91840  0.87610  0.97050  Biso   1.000  H
  H184     1.0000 0.79057  0.37563  0.30383  Biso   1.000  H
  H185     1.0000 0.62437  0.41493  0.30383  Biso   1.000  H
  H186     1.0000 0.58507  0.20943  0.30383  Biso   1.000  H
  H187     1.0000 0.45723  0.70897  0.63717  Biso   1.000  H
  H188     1.0000 0.29103  0.74827  0.63717  Biso   1.000  H
  H189     1.0000 0.25173  0.54277  0.63717  Biso   1.000  H
  H190     1.0000 0.87610  0.95770  0.02950  Biso   1.000  H
  H191     1.0000 0.04230  0.91840  0.02950  Biso   1.000  H
  H192     1.0000 0.08160  0.12390  0.02950  Biso   1.000  H
  H193     1.0000 0.54277  0.29103  0.36283  Biso   1.000  H
  H194     1.0000 0.70897  0.25173  0.36283  Biso   1.000  H
  H195     1.0000 0.74827  0.45723  0.36283  Biso   1.000  H
  H196     1.0000 0.20943  0.62437  0.69617  Biso   1.000  H
  H197     1.0000 0.37563  0.58507  0.69617  Biso   1.000  H
  H198     1.0000 0.41493  0.79057  0.69617  Biso   1.000  H
  H199     1.0000 0.20450  0.08020  0.96900  Biso   1.000  H
  H200     1.0000 0.91980  0.12430  0.96900  Biso   1.000  H
  H201     1.0000 0.87570  0.79550  0.96900  Biso   1.000  H
  H202     1.0000 0.87117  0.41353  0.30233  Biso   1.000  H
  H203     1.0000 0.58647  0.45763  0.30233  Biso   1.000  H
  H204     1.0000 0.54237  0.12883  0.30233  Biso   1.000  H
  H205     1.0000 0.53783  0.74687  0.63567  Biso   1.000  H
  H206     1.0000 0.25313  0.79097  0.63567  Biso   1.000  H
  H207     1.0000 0.20903  0.46217  0.63567  Biso   1.000  H
  H208     1.0000 0.79550  0.91980  0.03100  Biso   1.000  H
  H209     1.0000 0.08020  0.87570  0.03100  Biso   1.000  H
  H210     1.0000 0.12430  0.20450  0.03100  Biso   1.000  H
  H211     1.0000 0.46217  0.25313  0.36433  Biso   1.000  H
  H212     1.0000 0.74687  0.20903  0.36433  Biso   1.000  H
  H213     1.0000 0.79097  0.53783  0.36433  Biso   1.000  H
  H214     1.0000 0.12883  0.58647  0.69767  Biso   1.000  H
  H215     1.0000 0.41353  0.54237  0.69767  Biso   1.000  H
  H216     1.0000 0.45763  0.87117  0.69767  Biso   1.000  H
  H217     1.0000 0.16160  0.00060  0.95660  Biso   1.000  H
  H218     1.0000 0.99940  0.16100  0.95660  Biso   1.000  H
  H219     1.0000 0.83900  0.83840  0.95660  Biso   1.000  H
  H220     1.0000 0.82827  0.33393  0.28993  Biso   1.000  H
  H221     1.0000 0.66607  0.49433  0.28993  Biso   1.000  H
  H222     1.0000 0.50567  0.17173  0.28993  Biso   1.000  H
  H223     1.0000 0.49493  0.66727  0.62327  Biso   1.000  H
  H224     1.0000 0.33273  0.82767  0.62327  Biso   1.000  H
  H225     1.0000 0.17233  0.50507  0.62327  Biso   1.000  H
  H226     1.0000 0.83840  0.99940  0.04340  Biso   1.000  H
  H227     1.0000 0.00060  0.83900  0.04340  Biso   1.000  H
  H228     1.0000 0.16100  0.16160  0.04340  Biso   1.000  H
  H229     1.0000 0.50507  0.33273  0.37673  Biso   1.000  H
  H230     1.0000 0.66727  0.17233  0.37673  Biso   1.000  H
  H231     1.0000 0.82767  0.49493  0.37673  Biso   1.000  H
  H232     1.0000 0.17173  0.66607  0.71007  Biso   1.000  H
  H233     1.0000 0.33393  0.50567  0.71007  Biso   1.000  H
  H234     1.0000 0.49433  0.82827  0.71007  Biso   1.000  H
  C343     1.0000 0.18950  0.12720  0.85920  Biso   1.000  C
  C344     1.0000 0.87280  0.06230  0.85920  Biso   1.000  C
  C345     1.0000 0.93770  0.81050  0.85920  Biso   1.000  C
  C346     1.0000 0.85617  0.46053  0.19253  Biso   1.000  C
  C347     1.0000 0.53947  0.39563  0.19253  Biso   1.000  C
  C348     1.0000 0.60437  0.14383  0.19253  Biso   1.000  C
  C349     1.0000 0.52283  0.79387  0.52587  Biso   1.000  C
  C350     1.0000 0.20613  0.72897  0.52587  Biso   1.000  C
  C351     1.0000 0.27103  0.47717  0.52587  Biso   1.000  C
  C352     1.0000 0.81050  0.87280  0.14080  Biso   1.000  C
  C353     1.0000 0.12720  0.93770  0.14080  Biso   1.000  C
  C354     1.0000 0.06230  0.18950  0.14080  Biso   1.000  C
  C355     1.0000 0.47717  0.20613  0.47413  Biso   1.000  C
  C356     1.0000 0.79387  0.27103  0.47413  Biso   1.000  C
  C357     1.0000 0.72897  0.52283  0.47413  Biso   1.000  C
  C358     1.0000 0.14383  0.53947  0.80747  Biso   1.000  C
  C359     1.0000 0.46053  0.60437  0.80747  Biso   1.000  C
  C360     1.0000 0.39563  0.85617  0.80747  Biso   1.000  C
  H235     1.0000 0.17940  0.12900  0.81320  Biso   1.000  H
  H236     1.0000 0.87100  0.05040  0.81320  Biso   1.000  H
  H237     1.0000 0.94960  0.82060  0.81320  Biso   1.000  H
  H238     1.0000 0.84607  0.46233  0.14653  Biso   1.000  H
  H239     1.0000 0.53767  0.38373  0.14653  Biso   1.000  H
  H240     1.0000 0.61627  0.15393  0.14653  Biso   1.000  H
  H241     1.0000 0.51273  0.79567  0.47987  Biso   1.000  H
  H242     1.0000 0.20433  0.71707  0.47987  Biso   1.000  H
  H243     1.0000 0.28293  0.48727  0.47987  Biso   1.000  H
  H244     1.0000 0.82060  0.87100  0.18680  Biso   1.000  H
  H245     1.0000 0.12900  0.94960  0.18680  Biso   1.000  H
  H246     1.0000 0.05040  0.17940  0.18680  Biso   1.000  H
  H247     1.0000 0.48727  0.20433  0.52013  Biso   1.000  H
  H248     1.0000 0.79567  0.28293  0.52013  Biso   1.000  H
  H249     1.0000 0.71707  0.51273  0.52013  Biso   1.000  H
  H250     1.0000 0.15393  0.53767  0.85347  Biso   1.000  H
  H251     1.0000 0.46233  0.61627  0.85347  Biso   1.000  H
  H252     1.0000 0.38373  0.84607  0.85347  Biso   1.000  H
  H253     1.0000 0.23840  0.15210  0.86580  Biso   1.000  H
  H254     1.0000 0.84790  0.08630  0.86580  Biso   1.000  H
  H255     1.0000 0.91370  0.76160  0.86580  Biso   1.000  H
  H256     1.0000 0.90507  0.48543  0.19913  Biso   1.000  H
  H257     1.0000 0.51457  0.41963  0.19913  Biso   1.000  H
  H258     1.0000 0.58037  0.09493  0.19913  Biso   1.000  H
  H259     1.0000 0.57173  0.81877  0.53247  Biso   1.000  H
  H260     1.0000 0.18123  0.75297  0.53247  Biso   1.000  H
  H261     1.0000 0.24703  0.42827  0.53247  Biso   1.000  H
  H262     1.0000 0.76160  0.84790  0.13420  Biso   1.000  H
  H263     1.0000 0.15210  0.91370  0.13420  Biso   1.000  H
  H264     1.0000 0.08630  0.23840  0.13420  Biso   1.000  H
  H265     1.0000 0.42827  0.18123  0.46753  Biso   1.000  H
  H266     1.0000 0.81877  0.24703  0.46753  Biso   1.000  H
  H267     1.0000 0.75297  0.57173  0.46753  Biso   1.000  H
  H268     1.0000 0.09493  0.51457  0.80087  Biso   1.000  H
  H269     1.0000 0.48543  0.58037  0.80087  Biso   1.000  H
  H270     1.0000 0.41963  0.90507  0.80087  Biso   1.000  H
  H271     1.0000 0.16860  0.14740  0.88570  Biso   1.000  H
  H272     1.0000 0.85260  0.02120  0.88570  Biso   1.000  H
  H273     1.0000 0.97880  0.83140  0.88570  Biso   1.000  H
  H274     1.0000 0.83527  0.48073  0.21903  Biso   1.000  H
  H275     1.0000 0.51927  0.35453  0.21903  Biso   1.000  H
  H276     1.0000 0.64547  0.16473  0.21903  Biso   1.000  H
  H277     1.0000 0.50193  0.81407  0.55237  Biso   1.000  H
  H278     1.0000 0.18593  0.68787  0.55237  Biso   1.000  H
  H279     1.0000 0.31213  0.49807  0.55237  Biso   1.000  H
  H280     1.0000 0.83140  0.85260  0.11430  Biso   1.000  H
  H281     1.0000 0.14740  0.97880  0.11430  Biso   1.000  H
  H282     1.0000 0.02120  0.16860  0.11430  Biso   1.000  H
  H283     1.0000 0.49807  0.18593  0.44763  Biso   1.000  H
  H284     1.0000 0.81407  0.31213  0.44763  Biso   1.000  H
  H285     1.0000 0.68787  0.50193  0.44763  Biso   1.000  H
  H286     1.0000 0.16473  0.51927  0.78097  Biso   1.000  H
  H287     1.0000 0.48073  0.64547  0.78097  Biso   1.000  H
  H288     1.0000 0.35453  0.83527  0.78097  Biso   1.000  H
  N1       1.0000 0.91683  0.48431  0.93047  Biso   1.000  N
  N2       1.0000 0.51569  0.43252  0.93047  Biso   1.000  N
  N3       1.0000 0.56748  0.08317  0.93047  Biso   1.000  N
  N4       1.0000 0.58350  0.81764  0.26380  Biso   1.000  N
  N5       1.0000 0.18236  0.76585  0.26380  Biso   1.000  N
  N6       1.0000 0.23415  0.41650  0.26380  Biso   1.000  N
  N7       1.0000 0.25016  0.15098  0.59714  Biso   1.000  N
  N8       1.0000 0.84902  0.09919  0.59714  Biso   1.000  N
  N9       1.0000 0.90081  0.74984  0.59714  Biso   1.000  N
  N10      1.0000 0.08317  0.51569  0.06953  Biso   1.000  N
  N11      1.0000 0.48431  0.56748  0.06953  Biso   1.000  N
  N12      1.0000 0.43252  0.91683  0.06953  Biso   1.000  N
  N13      1.0000 0.74984  0.84902  0.40286  Biso   1.000  N
  N14      1.0000 0.15098  0.90081  0.40286  Biso   1.000  N
  N15      1.0000 0.09919  0.25016  0.40286  Biso   1.000  N
  N16      1.0000 0.41650  0.18236  0.73620  Biso   1.000  N
  N17      1.0000 0.81764  0.23415  0.73620  Biso   1.000  N
  N18      1.0000 0.76585  0.58350  0.73620  Biso   1.000  N
  N19      1.0000 0.16230  0.05600  0.87900  Biso   1.000  N
  N20      1.0000 0.94400  0.10630  0.87900  Biso   1.000  N
  N21      1.0000 0.89370  0.83770  0.87900  Biso   1.000  N
  N22      1.0000 0.82897  0.38933  0.21233  Biso   1.000  N
  N23      1.0000 0.61067  0.43963  0.21233  Biso   1.000  N
  N24      1.0000 0.56037  0.17103  0.21233  Biso   1.000  N
  N25      1.0000 0.49563  0.72267  0.54567  Biso   1.000  N
  N26      1.0000 0.27733  0.77297  0.54567  Biso   1.000  N
  N27      1.0000 0.22703  0.50437  0.54567  Biso   1.000  N
  N28      1.0000 0.83770  0.94400  0.12100  Biso   1.000  N
  N29      1.0000 0.05600  0.89370  0.12100  Biso   1.000  N
  N30      1.0000 0.10630  0.16230  0.12100  Biso   1.000  N
  N31      1.0000 0.50437  0.27733  0.45433  Biso   1.000  N
  N32      1.0000 0.72267  0.22703  0.45433  Biso   1.000  N
  N33      1.0000 0.77297  0.49563  0.45433  Biso   1.000  N
  N34      1.0000 0.17103  0.61067  0.78767  Biso   1.000  N
  N35      1.0000 0.38933  0.56037  0.78767  Biso   1.000  N
  N36      1.0000 0.43963  0.82897  0.78767  Biso   1.000  N
  O1       1.0000 0.06512  0.79029  0.88857  Biso   1.000  O
  O2       1.0000 0.20971  0.27483  0.88857  Biso   1.000  O
  O3       1.0000 0.72517  0.93488  0.88857  Biso   1.000  O
  O4       1.0000 0.73179  0.12362  0.22190  Biso   1.000  O
  O5       1.0000 0.87638  0.60816  0.22190  Biso   1.000  O
  O6       1.0000 0.39184  0.26821  0.22190  Biso   1.000  O
  O7       1.0000 0.39845  0.45696  0.55524  Biso   1.000  O
  O8       1.0000 0.54304  0.94150  0.55524  Biso   1.000  O
  O9       1.0000 0.05850  0.60155  0.55524  Biso   1.000  O
  O10      1.0000 0.93488  0.20971  0.11143  Biso   1.000  O
  O11      1.0000 0.79029  0.72517  0.11143  Biso   1.000  O
  O12      1.0000 0.27483  0.06512  0.11143  Biso   1.000  O
  O13      1.0000 0.60155  0.54304  0.44476  Biso   1.000  O
  O14      1.0000 0.45696  0.05850  0.44476  Biso   1.000  O
  O15      1.0000 0.94150  0.39845  0.44476  Biso   1.000  O
  O16      1.0000 0.26821  0.87638  0.77810  Biso   1.000  O
  O17      1.0000 0.12362  0.39184  0.77810  Biso   1.000  O
  O18      1.0000 0.60816  0.73179  0.77810  Biso   1.000  O
  O19      1.0000 0.11024  0.72298  0.86605  Biso   1.000  O
  O20      1.0000 0.27702  0.38726  0.86605  Biso   1.000  O
  O21      1.0000 0.61274  0.88976  0.86605  Biso   1.000  O
  O22      1.0000 0.77691  0.05631  0.19938  Biso   1.000  O
  O23      1.0000 0.94369  0.72059  0.19938  Biso   1.000  O
  O24      1.0000 0.27941  0.22309  0.19938  Biso   1.000  O
  O25      1.0000 0.44357  0.38965  0.53272  Biso   1.000  O
  O26      1.0000 0.61035  0.05393  0.53272  Biso   1.000  O
  O27      1.0000 0.94607  0.55643  0.53272  Biso   1.000  O
  O28      1.0000 0.88976  0.27702  0.13395  Biso   1.000  O
  O29      1.0000 0.72298  0.61274  0.13395  Biso   1.000  O
  O30      1.0000 0.38726  0.11024  0.13395  Biso   1.000  O
  O31      1.0000 0.55643  0.61035  0.46728  Biso   1.000  O
  O32      1.0000 0.38965  0.94607  0.46728  Biso   1.000  O
  O33      1.0000 0.05393  0.44357  0.46728  Biso   1.000  O
  O34      1.0000 0.22309  0.94369  0.80062  Biso   1.000  O
  O35      1.0000 0.05631  0.27941  0.80062  Biso   1.000  O
  O36      1.0000 0.72059  0.77691  0.80062  Biso   1.000  O
  O37      1.0000 0.89707  0.70787  0.07226  Biso   1.000  O
  O38      1.0000 0.29213  0.18920  0.07226  Biso   1.000  O
  O39      1.0000 0.81080  0.10293  0.07226  Biso   1.000  O
  O40      1.0000 0.56374  0.04120  0.40559  Biso   1.000  O
  O41      1.0000 0.95880  0.52253  0.40559  Biso   1.000  O
  O42      1.0000 0.47747  0.43626  0.40559  Biso   1.000  O
  O43      1.0000 0.23040  0.37454  0.73893  Biso   1.000  O
  O44      1.0000 0.62546  0.85587  0.73893  Biso   1.000  O
  O45      1.0000 0.14413  0.76960  0.73893  Biso   1.000  O
  O46      1.0000 0.10293  0.29213  0.92774  Biso   1.000  O
  O47      1.0000 0.70787  0.81080  0.92774  Biso   1.000  O
  O48      1.0000 0.18920  0.89707  0.92774  Biso   1.000  O
  O49      1.0000 0.76960  0.62546  0.26107  Biso   1.000  O
  O50      1.0000 0.37454  0.14413  0.26107  Biso   1.000  O
  O51      1.0000 0.85587  0.23040  0.26107  Biso   1.000  O
  O52      1.0000 0.43626  0.95880  0.59441  Biso   1.000  O
  O53      1.0000 0.04120  0.47747  0.59441  Biso   1.000  O
  O54      1.0000 0.52253  0.56374  0.59441  Biso   1.000  O
  O55      1.0000 0.83235  0.59454  0.09091  Biso   1.000  O
  O56      1.0000 0.40546  0.23781  0.09091  Biso   1.000  O
  O57      1.0000 0.76219  0.16765  0.09091  Biso   1.000  O
  O58      1.0000 0.49902  0.92787  0.42424  Biso   1.000  O
  O59      1.0000 0.07213  0.57114  0.42424  Biso   1.000  O
  O60      1.0000 0.42886  0.50098  0.42424  Biso   1.000  O
  O61      1.0000 0.16568  0.26121  0.75758  Biso   1.000  O
  O62      1.0000 0.73879  0.90448  0.75758  Biso   1.000  O
  O63      1.0000 0.09552  0.83432  0.75758  Biso   1.000  O
  O64      1.0000 0.16765  0.40546  0.90909  Biso   1.000  O
  O65      1.0000 0.59454  0.76219  0.90909  Biso   1.000  O
  O66      1.0000 0.23781  0.83235  0.90909  Biso   1.000  O
  O67      1.0000 0.83432  0.73879  0.24242  Biso   1.000  O
  O68      1.0000 0.26121  0.09552  0.24242  Biso   1.000  O
  O69      1.0000 0.90448  0.16568  0.24242  Biso   1.000  O
  O70      1.0000 0.50098  0.07213  0.57576  Biso   1.000  O
  O71      1.0000 0.92787  0.42886  0.57576  Biso   1.000  O
  O72      1.0000 0.57114  0.49902  0.57576  Biso   1.000  O
  O73      1.0000 0.79724  0.43380  0.93100  Biso   1.000  O
  O74      1.0000 0.56620  0.36344  0.93100  Biso   1.000  O
  O75      1.0000 0.63656  0.20276  0.93100  Biso   1.000  O
  O76      1.0000 0.46391  0.76713  0.26433  Biso   1.000  O
  O77      1.0000 0.23287  0.69677  0.26433  Biso   1.000  O
  O78      1.0000 0.30323  0.53609  0.26433  Biso   1.000  O
  O79      1.0000 0.13057  0.10047  0.59767  Biso   1.000  O
  O80      1.0000 0.89953  0.03011  0.59767  Biso   1.000  O
  O81      1.0000 0.96989  0.86943  0.59767  Biso   1.000  O
  O82      1.0000 0.20276  0.56620  0.06900  Biso   1.000  O
  O83      1.0000 0.43380  0.63656  0.06900  Biso   1.000  O
  O84      1.0000 0.36344  0.79724  0.06900  Biso   1.000  O
  O85      1.0000 0.86943  0.89953  0.40233  Biso   1.000  O
  O86      1.0000 0.10047  0.96989  0.40233  Biso   1.000  O
  O87      1.0000 0.03011  0.13057  0.40233  Biso   1.000  O
  O88      1.0000 0.53609  0.23287  0.73567  Biso   1.000  O
  O89      1.0000 0.76713  0.30323  0.73567  Biso   1.000  O
  O90      1.0000 0.69677  0.46391  0.73567  Biso   1.000  O
  O91      1.0000 0.02555  0.49844  0.92318  Biso   1.000  O
  O92      1.0000 0.50156  0.52711  0.92318  Biso   1.000  O
  O93      1.0000 0.47289  0.97445  0.92318  Biso   1.000  O
  O94      1.0000 0.69222  0.83177  0.25651  Biso   1.000  O
  O95      1.0000 0.16823  0.86044  0.25651  Biso   1.000  O
  O96      1.0000 0.13956  0.30778  0.25651  Biso   1.000  O
  O97      1.0000 0.35888  0.16511  0.58985  Biso   1.000  O
  O98      1.0000 0.83489  0.19378  0.58985  Biso   1.000  O
  O99      1.0000 0.80622  0.64112  0.58985  Biso   1.000  O
  O100     1.0000 0.97445  0.50156  0.07682  Biso   1.000  O
  O101     1.0000 0.49844  0.47289  0.07682  Biso   1.000  O
  O102     1.0000 0.52711  0.02555  0.07682  Biso   1.000  O
  O103     1.0000 0.64112  0.83489  0.41015  Biso   1.000  O
  O104     1.0000 0.16511  0.80622  0.41015  Biso   1.000  O
  O105     1.0000 0.19378  0.35888  0.41015  Biso   1.000  O
  O106     1.0000 0.30778  0.16823  0.74349  Biso   1.000  O
  O107     1.0000 0.83177  0.13956  0.74349  Biso   1.000  O
  O108     1.0000 0.86044  0.69222  0.74349  Biso   1.000  O
  O109     1.0000 0.10213  0.94226  0.85990  Biso   1.000  O
  O110     1.0000 0.05774  0.15987  0.85990  Biso   1.000  O
  O111     1.0000 0.84013  0.89787  0.85990  Biso   1.000  O
  O112     1.0000 0.76880  0.27559  0.19323  Biso   1.000  O
  O113     1.0000 0.72441  0.49320  0.19323  Biso   1.000  O
  O114     1.0000 0.50680  0.23120  0.19323  Biso   1.000  O
  O115     1.0000 0.43546  0.60893  0.52657  Biso   1.000  O
  O116     1.0000 0.39107  0.82654  0.52657  Biso   1.000  O
  O117     1.0000 0.17346  0.56454  0.52657  Biso   1.000  O
  O118     1.0000 0.89787  0.05774  0.14010  Biso   1.000  O
  O119     1.0000 0.94226  0.84013  0.14010  Biso   1.000  O
  O120     1.0000 0.15987  0.10213  0.14010  Biso   1.000  O
  O121     1.0000 0.56454  0.39107  0.47343  Biso   1.000  O
  O122     1.0000 0.60893  0.17346  0.47343  Biso   1.000  O
  O123     1.0000 0.82654  0.43546  0.47343  Biso   1.000  O
  O124     1.0000 0.23120  0.72441  0.80677  Biso   1.000  O
  O125     1.0000 0.27559  0.50680  0.80677  Biso   1.000  O
  O126     1.0000 0.49320  0.76880  0.80677  Biso   1.000  O
