data_image0
_cell_length_a       15.2966
_cell_length_b       15.2966
_cell_length_c       15.2966
_cell_angle_alpha    90
_cell_angle_beta     90
_cell_angle_gamma    90

_symmetry_space_group_name_H-M    "P 1"
_symmetry_int_tables_number       1

loop_
  _symmetry_equiv_pos_as_xyz
  'x, y, z'

loop_
  _atom_site_label
  _atom_site_occupancy
  _atom_site_fract_x
  _atom_site_fract_y
  _atom_site_fract_z
  _atom_site_thermal_displace_type
  _atom_site_B_iso_or_equiv
  _atom_site_type_symbol
  Ru1      1.0000 0.87500  0.87500  0.87500  Biso   1.000  Ru
  Ru2      1.0000 0.62500  0.12500  0.37500  Biso   1.000  Ru
  Ru3      1.0000 0.12500  0.37500  0.62500  Biso   1.000  Ru
  Ru4      1.0000 0.37500  0.62500  0.12500  Biso   1.000  Ru
  Ru5      1.0000 0.12500  0.12500  0.37500  Biso   1.000  Ru
  Ru6      1.0000 0.37500  0.37500  0.37500  Biso   1.000  Ru
  Ru7      1.0000 0.12500  0.37500  0.12500  Biso   1.000  Ru
  Ru8      1.0000 0.37500  0.12500  0.12500  Biso   1.000  Ru
  N1       1.0000 0.87499  0.74151  0.88740  Biso   1.000  N
  N2       1.0000 0.62501  0.25849  0.38740  Biso   1.000  N
  N3       1.0000 0.12501  0.24151  0.61260  Biso   1.000  N
  N4       1.0000 0.37499  0.75849  0.11260  Biso   1.000  N
  N5       1.0000 0.88740  0.87499  0.74151  Biso   1.000  N
  N6       1.0000 0.38740  0.62501  0.25849  Biso   1.000  N
  N7       1.0000 0.61260  0.12501  0.24151  Biso   1.000  N
  N8       1.0000 0.11260  0.37499  0.75849  Biso   1.000  N
  N9       1.0000 0.74151  0.88740  0.87499  Biso   1.000  N
  N10      1.0000 0.25849  0.38740  0.62501  Biso   1.000  N
  N11      1.0000 0.24151  0.61260  0.12501  Biso   1.000  N
  N12      1.0000 0.75849  0.11260  0.37499  Biso   1.000  N
  N13      1.0000 0.99151  0.12499  0.36260  Biso   1.000  N
  N14      1.0000 0.50849  0.37501  0.36260  Biso   1.000  N
  N15      1.0000 0.99151  0.37501  0.13740  Biso   1.000  N
  N16      1.0000 0.50849  0.12499  0.13740  Biso   1.000  N
  N17      1.0000 0.12499  0.13740  0.50849  Biso   1.000  N
  N18      1.0000 0.37501  0.13740  0.99151  Biso   1.000  N
  N19      1.0000 0.37501  0.36260  0.50849  Biso   1.000  N
  N20      1.0000 0.12499  0.36260  0.99151  Biso   1.000  N
  N21      1.0000 0.13740  0.99151  0.37501  Biso   1.000  N
  N22      1.0000 0.13740  0.50849  0.12499  Biso   1.000  N
  N23      1.0000 0.36260  0.99151  0.12499  Biso   1.000  N
  N24      1.0000 0.36260  0.50849  0.37501  Biso   1.000  N
  C1       1.0000 0.87467  0.71082  0.97103  Biso   1.000  C
  C2       1.0000 0.62533  0.28918  0.47103  Biso   1.000  C
  C3       1.0000 0.12533  0.21082  0.52897  Biso   1.000  C
  C4       1.0000 0.37467  0.78918  0.02897  Biso   1.000  C
  C5       1.0000 0.97103  0.87467  0.71082  Biso   1.000  C
  C6       1.0000 0.47103  0.62533  0.28918  Biso   1.000  C
  C7       1.0000 0.52897  0.12533  0.21082  Biso   1.000  C
  C8       1.0000 0.02897  0.37467  0.78918  Biso   1.000  C
  C9       1.0000 0.71082  0.97103  0.87467  Biso   1.000  C
  C10      1.0000 0.28918  0.47103  0.62533  Biso   1.000  C
  C11      1.0000 0.21082  0.52897  0.12533  Biso   1.000  C
  C12      1.0000 0.78918  0.02897  0.37467  Biso   1.000  C
  C13      1.0000 0.96082  0.12467  0.27897  Biso   1.000  C
  C14      1.0000 0.53918  0.37533  0.27897  Biso   1.000  C
  C15      1.0000 0.96082  0.37533  0.22103  Biso   1.000  C
  C16      1.0000 0.53918  0.12467  0.22103  Biso   1.000  C
  C17      1.0000 0.12467  0.22103  0.53918  Biso   1.000  C
  C18      1.0000 0.37533  0.22103  0.96082  Biso   1.000  C
  C19      1.0000 0.37533  0.27897  0.53918  Biso   1.000  C
  C20      1.0000 0.12467  0.27897  0.96082  Biso   1.000  C
  C21      1.0000 0.22103  0.96082  0.37533  Biso   1.000  C
  C22      1.0000 0.22103  0.53918  0.12467  Biso   1.000  C
  C23      1.0000 0.27897  0.96082  0.12467  Biso   1.000  C
  C24      1.0000 0.27897  0.53918  0.37533  Biso   1.000  C
  C25      1.0000 0.87230  0.62135  0.98804  Biso   1.000  C
  C26      1.0000 0.62770  0.37865  0.48804  Biso   1.000  C
  C27      1.0000 0.12770  0.12135  0.51196  Biso   1.000  C
  C28      1.0000 0.37230  0.87865  0.01196  Biso   1.000  C
  C29      1.0000 0.98804  0.87230  0.62135  Biso   1.000  C
  C30      1.0000 0.48804  0.62770  0.37865  Biso   1.000  C
  C31      1.0000 0.51196  0.12770  0.12135  Biso   1.000  C
  C32      1.0000 0.01196  0.37230  0.87865  Biso   1.000  C
  C33      1.0000 0.62135  0.98804  0.87230  Biso   1.000  C
  C34      1.0000 0.37865  0.48804  0.62770  Biso   1.000  C
  C35      1.0000 0.12135  0.51196  0.12770  Biso   1.000  C
  C36      1.0000 0.87865  0.01196  0.37230  Biso   1.000  C
  C37      1.0000 0.87135  0.12230  0.26196  Biso   1.000  C
  C38      1.0000 0.62865  0.37770  0.26196  Biso   1.000  C
  C39      1.0000 0.87135  0.37770  0.23804  Biso   1.000  C
  C40      1.0000 0.62865  0.12230  0.23804  Biso   1.000  C
  C41      1.0000 0.12230  0.23804  0.62865  Biso   1.000  C
  C42      1.0000 0.37770  0.23804  0.87135  Biso   1.000  C
  C43      1.0000 0.37770  0.26196  0.62865  Biso   1.000  C
  C44      1.0000 0.12230  0.26196  0.87135  Biso   1.000  C
  C45      1.0000 0.23804  0.87135  0.37770  Biso   1.000  C
  C46      1.0000 0.23804  0.62865  0.12230  Biso   1.000  C
  C47      1.0000 0.26196  0.87135  0.12230  Biso   1.000  C
  C48      1.0000 0.26196  0.62865  0.37770  Biso   1.000  C
  H1       1.0000 0.87250  0.60070  0.04660  Biso   1.000  H
  H2       1.0000 0.62750  0.39930  0.54660  Biso   1.000  H
  H3       1.0000 0.12750  0.10070  0.45340  Biso   1.000  H
  H4       1.0000 0.37250  0.89930  0.95340  Biso   1.000  H
  H5       1.0000 0.04660  0.87250  0.60070  Biso   1.000  H
  H6       1.0000 0.54660  0.62750  0.39930  Biso   1.000  H
  H7       1.0000 0.45340  0.12750  0.10070  Biso   1.000  H
  H8       1.0000 0.95340  0.37250  0.89930  Biso   1.000  H
  H9       1.0000 0.60070  0.04660  0.87250  Biso   1.000  H
  H10      1.0000 0.39930  0.54660  0.62750  Biso   1.000  H
  H11      1.0000 0.10070  0.45340  0.12750  Biso   1.000  H
  H12      1.0000 0.89930  0.95340  0.37250  Biso   1.000  H
  H13      1.0000 0.85070  0.12250  0.20340  Biso   1.000  H
  H14      1.0000 0.64930  0.37750  0.20340  Biso   1.000  H
  H15      1.0000 0.85070  0.37750  0.29660  Biso   1.000  H
  H16      1.0000 0.64930  0.12250  0.29660  Biso   1.000  H
  H17      1.0000 0.12250  0.29660  0.64930  Biso   1.000  H
  H18      1.0000 0.37750  0.29660  0.85070  Biso   1.000  H
  H19      1.0000 0.37750  0.20340  0.64930  Biso   1.000  H
  H20      1.0000 0.12250  0.20340  0.85070  Biso   1.000  H
  H21      1.0000 0.29660  0.85070  0.37750  Biso   1.000  H
  H22      1.0000 0.29660  0.64930  0.12250  Biso   1.000  H
  H23      1.0000 0.20340  0.85070  0.12250  Biso   1.000  H
  H24      1.0000 0.20340  0.64930  0.37750  Biso   1.000  H
  C49      1.0000 0.86960  0.56259  0.91920  Biso   1.000  C
  C50      1.0000 0.63040  0.43741  0.41920  Biso   1.000  C
  C51      1.0000 0.13040  0.06259  0.58080  Biso   1.000  C
  C52      1.0000 0.36960  0.93741  0.08080  Biso   1.000  C
  C53      1.0000 0.91920  0.86960  0.56259  Biso   1.000  C
  C54      1.0000 0.41920  0.63040  0.43741  Biso   1.000  C
  C55      1.0000 0.58080  0.13040  0.06259  Biso   1.000  C
  C56      1.0000 0.08080  0.36960  0.93741  Biso   1.000  C
  C57      1.0000 0.56259  0.91920  0.86960  Biso   1.000  C
  C58      1.0000 0.43741  0.41920  0.63040  Biso   1.000  C
  C59      1.0000 0.06259  0.58080  0.13040  Biso   1.000  C
  C60      1.0000 0.93741  0.08080  0.36960  Biso   1.000  C
  C61      1.0000 0.81259  0.11960  0.33080  Biso   1.000  C
  C62      1.0000 0.68741  0.38040  0.33080  Biso   1.000  C
  C63      1.0000 0.81259  0.38040  0.16920  Biso   1.000  C
  C64      1.0000 0.68741  0.11960  0.16920  Biso   1.000  C
  C65      1.0000 0.11960  0.16920  0.68741  Biso   1.000  C
  C66      1.0000 0.38040  0.16920  0.81259  Biso   1.000  C
  C67      1.0000 0.38040  0.33080  0.68741  Biso   1.000  C
  C68      1.0000 0.11960  0.33080  0.81259  Biso   1.000  C
  C69      1.0000 0.16920  0.81259  0.38040  Biso   1.000  C
  C70      1.0000 0.16920  0.68741  0.11960  Biso   1.000  C
  C71      1.0000 0.33080  0.81259  0.11960  Biso   1.000  C
  C72      1.0000 0.33080  0.68741  0.38040  Biso   1.000  C
  H25      1.0000 0.86830  0.50140  0.93000  Biso   1.000  H
  H26      1.0000 0.63170  0.49860  0.43000  Biso   1.000  H
  H27      1.0000 0.13170  0.00140  0.57000  Biso   1.000  H
  H28      1.0000 0.36830  0.99860  0.07000  Biso   1.000  H
  H29      1.0000 0.93000  0.86830  0.50140  Biso   1.000  H
  H30      1.0000 0.43000  0.63170  0.49860  Biso   1.000  H
  H31      1.0000 0.57000  0.13170  0.00140  Biso   1.000  H
  H32      1.0000 0.07000  0.36830  0.99860  Biso   1.000  H
  H33      1.0000 0.50140  0.93000  0.86830  Biso   1.000  H
  H34      1.0000 0.49860  0.43000  0.63170  Biso   1.000  H
  H35      1.0000 0.00140  0.57000  0.13170  Biso   1.000  H
  H36      1.0000 0.99860  0.07000  0.36830  Biso   1.000  H
  H37      1.0000 0.75140  0.11830  0.32000  Biso   1.000  H
  H38      1.0000 0.74860  0.38170  0.32000  Biso   1.000  H
  H39      1.0000 0.75140  0.38170  0.18000  Biso   1.000  H
  H40      1.0000 0.74860  0.11830  0.18000  Biso   1.000  H
  H41      1.0000 0.11830  0.18000  0.74860  Biso   1.000  H
  H42      1.0000 0.38170  0.18000  0.75140  Biso   1.000  H
  H43      1.0000 0.38170  0.32000  0.74860  Biso   1.000  H
  H44      1.0000 0.11830  0.32000  0.75140  Biso   1.000  H
  H45      1.0000 0.18000  0.75140  0.38170  Biso   1.000  H
  H46      1.0000 0.18000  0.74860  0.11830  Biso   1.000  H
  H47      1.0000 0.32000  0.75140  0.11830  Biso   1.000  H
  H48      1.0000 0.32000  0.74860  0.38170  Biso   1.000  H
  C73      1.0000 0.86880  0.59431  0.83500  Biso   1.000  C
  C74      1.0000 0.63120  0.40569  0.33500  Biso   1.000  C
  C75      1.0000 0.13120  0.09431  0.66500  Biso   1.000  C
  C76      1.0000 0.36880  0.90569  0.16500  Biso   1.000  C
  C77      1.0000 0.83500  0.86880  0.59431  Biso   1.000  C
  C78      1.0000 0.33500  0.63120  0.40569  Biso   1.000  C
  C79      1.0000 0.66500  0.13120  0.09431  Biso   1.000  C
  C80      1.0000 0.16500  0.36880  0.90569  Biso   1.000  C
  C81      1.0000 0.59431  0.83500  0.86880  Biso   1.000  C
  C82      1.0000 0.40569  0.33500  0.63120  Biso   1.000  C
  C83      1.0000 0.09431  0.66500  0.13120  Biso   1.000  C
  C84      1.0000 0.90569  0.16500  0.36880  Biso   1.000  C
  C85      1.0000 0.84431  0.11880  0.41500  Biso   1.000  C
  C86      1.0000 0.65569  0.38120  0.41500  Biso   1.000  C
  C87      1.0000 0.84431  0.38120  0.08500  Biso   1.000  C
  C88      1.0000 0.65569  0.11880  0.08500  Biso   1.000  C
  C89      1.0000 0.11880  0.08500  0.65569  Biso   1.000  C
  C90      1.0000 0.38120  0.08500  0.84431  Biso   1.000  C
  C91      1.0000 0.38120  0.41500  0.65569  Biso   1.000  C
  C92      1.0000 0.11880  0.41500  0.84431  Biso   1.000  C
  C93      1.0000 0.08500  0.84431  0.38120  Biso   1.000  C
  C94      1.0000 0.08500  0.65569  0.11880  Biso   1.000  C
  C95      1.0000 0.41500  0.84431  0.11880  Biso   1.000  C
  C96      1.0000 0.41500  0.65569  0.38120  Biso   1.000  C
  H49      1.0000 0.86600  0.55530  0.78680  Biso   1.000  H
  H50      1.0000 0.63400  0.44470  0.28680  Biso   1.000  H
  H51      1.0000 0.13400  0.05530  0.71320  Biso   1.000  H
  H52      1.0000 0.36600  0.94470  0.21320  Biso   1.000  H
  H53      1.0000 0.78680  0.86600  0.55530  Biso   1.000  H
  H54      1.0000 0.28680  0.63400  0.44470  Biso   1.000  H
  H55      1.0000 0.71320  0.13400  0.05530  Biso   1.000  H
  H56      1.0000 0.21320  0.36600  0.94470  Biso   1.000  H
  H57      1.0000 0.55530  0.78680  0.86600  Biso   1.000  H
  H58      1.0000 0.44470  0.28680  0.63400  Biso   1.000  H
  H59      1.0000 0.05530  0.71320  0.13400  Biso   1.000  H
  H60      1.0000 0.94470  0.21320  0.36600  Biso   1.000  H
  H61      1.0000 0.80530  0.11600  0.46320  Biso   1.000  H
  H62      1.0000 0.69470  0.38400  0.46320  Biso   1.000  H
  H63      1.0000 0.80530  0.38400  0.03680  Biso   1.000  H
  H64      1.0000 0.69470  0.11600  0.03680  Biso   1.000  H
  H65      1.0000 0.11600  0.03680  0.69470  Biso   1.000  H
  H66      1.0000 0.38400  0.03680  0.80530  Biso   1.000  H
  H67      1.0000 0.38400  0.46320  0.69470  Biso   1.000  H
  H68      1.0000 0.11600  0.46320  0.80530  Biso   1.000  H
  H69      1.0000 0.03680  0.80530  0.38400  Biso   1.000  H
  H70      1.0000 0.03680  0.69470  0.11600  Biso   1.000  H
  H71      1.0000 0.46320  0.80530  0.11600  Biso   1.000  H
  H72      1.0000 0.46320  0.69470  0.38400  Biso   1.000  H
  C97      1.0000 0.87204  0.68386  0.82153  Biso   1.000  C
  C98      1.0000 0.62796  0.31614  0.32153  Biso   1.000  C
  C99      1.0000 0.12796  0.18386  0.67847  Biso   1.000  C
  C100     1.0000 0.37204  0.81614  0.17847  Biso   1.000  C
  C101     1.0000 0.82153  0.87204  0.68386  Biso   1.000  C
  C102     1.0000 0.32153  0.62796  0.31614  Biso   1.000  C
  C103     1.0000 0.67847  0.12796  0.18386  Biso   1.000  C
  C104     1.0000 0.17847  0.37204  0.81614  Biso   1.000  C
  C105     1.0000 0.68386  0.82153  0.87204  Biso   1.000  C
  C106     1.0000 0.31614  0.32153  0.62796  Biso   1.000  C
  C107     1.0000 0.18386  0.67847  0.12796  Biso   1.000  C
  C108     1.0000 0.81614  0.17847  0.37204  Biso   1.000  C
  C109     1.0000 0.93386  0.12204  0.42847  Biso   1.000  C
  C110     1.0000 0.56614  0.37796  0.42847  Biso   1.000  C
  C111     1.0000 0.93386  0.37796  0.07153  Biso   1.000  C
  C112     1.0000 0.56614  0.12204  0.07153  Biso   1.000  C
  C113     1.0000 0.12204  0.07153  0.56614  Biso   1.000  C
  C114     1.0000 0.37796  0.07153  0.93386  Biso   1.000  C
  C115     1.0000 0.37796  0.42847  0.56614  Biso   1.000  C
  C116     1.0000 0.12204  0.42847  0.93386  Biso   1.000  C
  C117     1.0000 0.07153  0.93386  0.37796  Biso   1.000  C
  C118     1.0000 0.07153  0.56614  0.12204  Biso   1.000  C
  C119     1.0000 0.42847  0.93386  0.12204  Biso   1.000  C
  C120     1.0000 0.42847  0.56614  0.37796  Biso   1.000  C
  H73      1.0000 0.87220  0.70520  0.76320  Biso   1.000  H
  H74      1.0000 0.62780  0.29480  0.26320  Biso   1.000  H
  H75      1.0000 0.12780  0.20520  0.73680  Biso   1.000  H
  H76      1.0000 0.37220  0.79480  0.23680  Biso   1.000  H
  H77      1.0000 0.76320  0.87220  0.70520  Biso   1.000  H
  H78      1.0000 0.26320  0.62780  0.29480  Biso   1.000  H
  H79      1.0000 0.73680  0.12780  0.20520  Biso   1.000  H
  H80      1.0000 0.23680  0.37220  0.79480  Biso   1.000  H
  H81      1.0000 0.70520  0.76320  0.87220  Biso   1.000  H
  H82      1.0000 0.29480  0.26320  0.62780  Biso   1.000  H
  H83      1.0000 0.20520  0.73680  0.12780  Biso   1.000  H
  H84      1.0000 0.79480  0.23680  0.37220  Biso   1.000  H
  H85      1.0000 0.95520  0.12220  0.48680  Biso   1.000  H
  H86      1.0000 0.54480  0.37780  0.48680  Biso   1.000  H
  H87      1.0000 0.95520  0.37780  0.01320  Biso   1.000  H
  H88      1.0000 0.54480  0.12220  0.01320  Biso   1.000  H
  H89      1.0000 0.12220  0.01320  0.54480  Biso   1.000  H
  H90      1.0000 0.37780  0.01320  0.95520  Biso   1.000  H
  H91      1.0000 0.37780  0.48680  0.54480  Biso   1.000  H
  H92      1.0000 0.12220  0.48680  0.95520  Biso   1.000  H
  H93      1.0000 0.01320  0.95520  0.37780  Biso   1.000  H
  H94      1.0000 0.01320  0.54480  0.12220  Biso   1.000  H
  H95      1.0000 0.48680  0.95520  0.12220  Biso   1.000  H
  H96      1.0000 0.48680  0.54480  0.37780  Biso   1.000  H
  Cu1      1.0000 0.64923  0.64923  0.64923  Biso   1.000  Cu
  Cu2      1.0000 0.85077  0.35077  0.14923  Biso   1.000  Cu
  Cu3      1.0000 0.35077  0.14923  0.85077  Biso   1.000  Cu
  Cu4      1.0000 0.14923  0.85077  0.35077  Biso   1.000  Cu
  Cu5      1.0000 0.89923  0.89923  0.60077  Biso   1.000  Cu
  Cu6      1.0000 0.60077  0.60077  0.60077  Biso   1.000  Cu
  Cu7      1.0000 0.89923  0.60077  0.89923  Biso   1.000  Cu
  Cu8      1.0000 0.60077  0.89923  0.89923  Biso   1.000  Cu
  O1       1.0000 0.66273  0.63686  0.51406  Biso   1.000  O
  O2       1.0000 0.83727  0.36314  0.01406  Biso   1.000  O
  O3       1.0000 0.33727  0.13686  0.98594  Biso   1.000  O
  O4       1.0000 0.16273  0.86314  0.48594  Biso   1.000  O
  O5       1.0000 0.51406  0.66273  0.63686  Biso   1.000  O
  O6       1.0000 0.01406  0.83727  0.36314  Biso   1.000  O
  O7       1.0000 0.98594  0.33727  0.13686  Biso   1.000  O
  O8       1.0000 0.48594  0.16273  0.86314  Biso   1.000  O
  O9       1.0000 0.63686  0.51406  0.66273  Biso   1.000  O
  O10      1.0000 0.36314  0.01406  0.83727  Biso   1.000  O
  O11      1.0000 0.13686  0.98594  0.33727  Biso   1.000  O
  O12      1.0000 0.86314  0.48594  0.16273  Biso   1.000  O
  O13      1.0000 0.88686  0.91273  0.73594  Biso   1.000  O
  O14      1.0000 0.61314  0.58727  0.73594  Biso   1.000  O
  O15      1.0000 0.88686  0.58727  0.76406  Biso   1.000  O
  O16      1.0000 0.61314  0.91273  0.76406  Biso   1.000  O
  O17      1.0000 0.91273  0.76406  0.61314  Biso   1.000  O
  O18      1.0000 0.58727  0.76406  0.88686  Biso   1.000  O
  O19      1.0000 0.58727  0.73594  0.61314  Biso   1.000  O
  O20      1.0000 0.91273  0.73594  0.88686  Biso   1.000  O
  O21      1.0000 0.76406  0.88686  0.58727  Biso   1.000  O
  O22      1.0000 0.76406  0.61314  0.91273  Biso   1.000  O
  O23      1.0000 0.73594  0.88686  0.91273  Biso   1.000  O
  O24      1.0000 0.73594  0.61314  0.58727  Biso   1.000  O
  O25      1.0000 0.78632  0.63997  0.63814  Biso   1.000  O
  O26      1.0000 0.71368  0.36003  0.13814  Biso   1.000  O
  O27      1.0000 0.21368  0.13997  0.86186  Biso   1.000  O
  O28      1.0000 0.28632  0.86003  0.36186  Biso   1.000  O
  O29      1.0000 0.63814  0.78632  0.63997  Biso   1.000  O
  O30      1.0000 0.13814  0.71368  0.36003  Biso   1.000  O
  O31      1.0000 0.86186  0.21368  0.13997  Biso   1.000  O
  O32      1.0000 0.36186  0.28632  0.86003  Biso   1.000  O
  O33      1.0000 0.63997  0.63814  0.78632  Biso   1.000  O
  O34      1.0000 0.36003  0.13814  0.71368  Biso   1.000  O
  O35      1.0000 0.13997  0.86186  0.21368  Biso   1.000  O
  O36      1.0000 0.86003  0.36186  0.28632  Biso   1.000  O
  O37      1.0000 0.88997  0.03632  0.61186  Biso   1.000  O
  O38      1.0000 0.61003  0.46368  0.61186  Biso   1.000  O
  O39      1.0000 0.88997  0.46368  0.88814  Biso   1.000  O
  O40      1.0000 0.61003  0.03632  0.88814  Biso   1.000  O
  O41      1.0000 0.03632  0.88814  0.61003  Biso   1.000  O
  O42      1.0000 0.46368  0.88814  0.88997  Biso   1.000  O
  O43      1.0000 0.46368  0.61186  0.61003  Biso   1.000  O
  O44      1.0000 0.03632  0.61186  0.88997  Biso   1.000  O
  O45      1.0000 0.88814  0.88997  0.46368  Biso   1.000  O
  O46      1.0000 0.88814  0.61003  0.03632  Biso   1.000  O
  O47      1.0000 0.61186  0.88997  0.03632  Biso   1.000  O
  O48      1.0000 0.61186  0.61003  0.46368  Biso   1.000  O
  C121     1.0000 0.73989  0.62500  0.48989  Biso   1.000  C
  C122     1.0000 0.76011  0.37500  0.98989  Biso   1.000  C
  C123     1.0000 0.26011  0.12500  0.01011  Biso   1.000  C
  C124     1.0000 0.23989  0.87500  0.51011  Biso   1.000  C
  C125     1.0000 0.48989  0.73989  0.62500  Biso   1.000  C
  C126     1.0000 0.98989  0.76011  0.37500  Biso   1.000  C
  C127     1.0000 0.01011  0.26011  0.12500  Biso   1.000  C
  C128     1.0000 0.51011  0.23989  0.87500  Biso   1.000  C
  C129     1.0000 0.62500  0.48989  0.73989  Biso   1.000  C
  C130     1.0000 0.37500  0.98989  0.76011  Biso   1.000  C
  C131     1.0000 0.12500  0.01011  0.26011  Biso   1.000  C
  C132     1.0000 0.87500  0.51011  0.23989  Biso   1.000  C
  C133     1.0000 0.87500  0.98989  0.76011  Biso   1.000  C
  C134     1.0000 0.62500  0.51011  0.76011  Biso   1.000  C
  C135     1.0000 0.87500  0.51011  0.73989  Biso   1.000  C
  C136     1.0000 0.62500  0.98989  0.73989  Biso   1.000  C
  C137     1.0000 0.98989  0.73989  0.62500  Biso   1.000  C
  C138     1.0000 0.51011  0.73989  0.87500  Biso   1.000  C
  C139     1.0000 0.51011  0.76011  0.62500  Biso   1.000  C
  C140     1.0000 0.98989  0.76011  0.87500  Biso   1.000  C
  C141     1.0000 0.73989  0.87500  0.51011  Biso   1.000  C
  C142     1.0000 0.73989  0.62500  0.98989  Biso   1.000  C
  C143     1.0000 0.76011  0.87500  0.98989  Biso   1.000  C
  C144     1.0000 0.76011  0.62500  0.51011  Biso   1.000  C
  C145     1.0000 0.81159  0.62500  0.56159  Biso   1.000  C
  C146     1.0000 0.68841  0.37500  0.06159  Biso   1.000  C
  C147     1.0000 0.18841  0.12500  0.93841  Biso   1.000  C
  C148     1.0000 0.31159  0.87500  0.43841  Biso   1.000  C
  C149     1.0000 0.56159  0.81159  0.62500  Biso   1.000  C
  C150     1.0000 0.06159  0.68841  0.37500  Biso   1.000  C
  C151     1.0000 0.93841  0.18841  0.12500  Biso   1.000  C
  C152     1.0000 0.43841  0.31159  0.87500  Biso   1.000  C
  C153     1.0000 0.62500  0.56159  0.81159  Biso   1.000  C
  C154     1.0000 0.37500  0.06159  0.68841  Biso   1.000  C
  C155     1.0000 0.12500  0.93841  0.18841  Biso   1.000  C
  C156     1.0000 0.87500  0.43841  0.31159  Biso   1.000  C
  C157     1.0000 0.87500  0.06159  0.68841  Biso   1.000  C
  C158     1.0000 0.62500  0.43841  0.68841  Biso   1.000  C
  C159     1.0000 0.87500  0.43841  0.81159  Biso   1.000  C
  C160     1.0000 0.62500  0.06159  0.81159  Biso   1.000  C
  C161     1.0000 0.06159  0.81159  0.62500  Biso   1.000  C
  C162     1.0000 0.43841  0.81159  0.87500  Biso   1.000  C
  C163     1.0000 0.43841  0.68841  0.62500  Biso   1.000  C
  C164     1.0000 0.06159  0.68841  0.87500  Biso   1.000  C
  C165     1.0000 0.81159  0.87500  0.43841  Biso   1.000  C
  C166     1.0000 0.81159  0.62500  0.06159  Biso   1.000  C
  C167     1.0000 0.68841  0.87500  0.06159  Biso   1.000  C
  C168     1.0000 0.68841  0.62500  0.43841  Biso   1.000  C
  C169     1.0000 0.87533  0.77897  0.03918  Biso   1.000  C
  C170     1.0000 0.62467  0.22103  0.53918  Biso   1.000  C
  C171     1.0000 0.12467  0.27897  0.46082  Biso   1.000  C
  C172     1.0000 0.37533  0.72103  0.96082  Biso   1.000  C
  C173     1.0000 0.03918  0.87533  0.77897  Biso   1.000  C
  C174     1.0000 0.53918  0.62467  0.22103  Biso   1.000  C
  C175     1.0000 0.46082  0.12467  0.27897  Biso   1.000  C
  C176     1.0000 0.96082  0.37533  0.72103  Biso   1.000  C
  C177     1.0000 0.77897  0.03918  0.87533  Biso   1.000  C
  C178     1.0000 0.22103  0.53918  0.62467  Biso   1.000  C
  C179     1.0000 0.27897  0.46082  0.12467  Biso   1.000  C
  C180     1.0000 0.72103  0.96082  0.37533  Biso   1.000  C
  C181     1.0000 0.02897  0.12533  0.21082  Biso   1.000  C
  C182     1.0000 0.47103  0.37467  0.21082  Biso   1.000  C
  C183     1.0000 0.02897  0.37467  0.28918  Biso   1.000  C
  C184     1.0000 0.47103  0.12533  0.28918  Biso   1.000  C
  C185     1.0000 0.12533  0.28918  0.47103  Biso   1.000  C
  C186     1.0000 0.37467  0.28918  0.02897  Biso   1.000  C
  C187     1.0000 0.37467  0.21082  0.47103  Biso   1.000  C
  C188     1.0000 0.12533  0.21082  0.02897  Biso   1.000  C
  C189     1.0000 0.28918  0.02897  0.37467  Biso   1.000  C
  C190     1.0000 0.28918  0.47103  0.12533  Biso   1.000  C
  C191     1.0000 0.21082  0.02897  0.12533  Biso   1.000  C
  C192     1.0000 0.21082  0.47103  0.37467  Biso   1.000  C
  N25      1.0000 0.87501  0.86260  0.00849  Biso   1.000  N
  N26      1.0000 0.62499  0.13740  0.50849  Biso   1.000  N
  N27      1.0000 0.12499  0.36260  0.49151  Biso   1.000  N
  N28      1.0000 0.37501  0.63740  0.99151  Biso   1.000  N
  N29      1.0000 0.00849  0.87501  0.86260  Biso   1.000  N
  N30      1.0000 0.50849  0.62499  0.13740  Biso   1.000  N
  N31      1.0000 0.49151  0.12499  0.36260  Biso   1.000  N
  N32      1.0000 0.99151  0.37501  0.63740  Biso   1.000  N
  N33      1.0000 0.86260  0.00849  0.87501  Biso   1.000  N
  N34      1.0000 0.13740  0.50849  0.62499  Biso   1.000  N
  N35      1.0000 0.36260  0.49151  0.12499  Biso   1.000  N
  N36      1.0000 0.63740  0.99151  0.37501  Biso   1.000  N
  N37      1.0000 0.11260  0.12501  0.24151  Biso   1.000  N
  N38      1.0000 0.38740  0.37499  0.24151  Biso   1.000  N
  N39      1.0000 0.11260  0.37499  0.25849  Biso   1.000  N
  N40      1.0000 0.38740  0.12501  0.25849  Biso   1.000  N
  N41      1.0000 0.12501  0.25849  0.38740  Biso   1.000  N
  N42      1.0000 0.37499  0.25849  0.11260  Biso   1.000  N
  N43      1.0000 0.37499  0.24151  0.38740  Biso   1.000  N
  N44      1.0000 0.12501  0.24151  0.11260  Biso   1.000  N
  N45      1.0000 0.25849  0.11260  0.37499  Biso   1.000  N
  N46      1.0000 0.25849  0.38740  0.12501  Biso   1.000  N
  N47      1.0000 0.24151  0.11260  0.12501  Biso   1.000  N
  N48      1.0000 0.24151  0.38740  0.37499  Biso   1.000  N
  C193     1.0000 0.87796  0.92847  0.06614  Biso   1.000  C
  C194     1.0000 0.62204  0.07153  0.56614  Biso   1.000  C
  C195     1.0000 0.12204  0.42847  0.43386  Biso   1.000  C
  C196     1.0000 0.37796  0.57153  0.93386  Biso   1.000  C
  C197     1.0000 0.06614  0.87796  0.92847  Biso   1.000  C
  C198     1.0000 0.56614  0.62204  0.07153  Biso   1.000  C
  C199     1.0000 0.43386  0.12204  0.42847  Biso   1.000  C
  C200     1.0000 0.93386  0.37796  0.57153  Biso   1.000  C
  C201     1.0000 0.92847  0.06614  0.87796  Biso   1.000  C
  C202     1.0000 0.07153  0.56614  0.62204  Biso   1.000  C
  C203     1.0000 0.42847  0.43386  0.12204  Biso   1.000  C
  C204     1.0000 0.57153  0.93386  0.37796  Biso   1.000  C
  C205     1.0000 0.17847  0.12796  0.18386  Biso   1.000  C
  C206     1.0000 0.32153  0.37204  0.18386  Biso   1.000  C
  C207     1.0000 0.17847  0.37204  0.31614  Biso   1.000  C
  C208     1.0000 0.32153  0.12796  0.31614  Biso   1.000  C
  C209     1.0000 0.12796  0.31614  0.32153  Biso   1.000  C
  C210     1.0000 0.37204  0.31614  0.17847  Biso   1.000  C
  C211     1.0000 0.37204  0.18386  0.32153  Biso   1.000  C
  C212     1.0000 0.12796  0.18386  0.17847  Biso   1.000  C
  C213     1.0000 0.31614  0.17847  0.37204  Biso   1.000  C
  C214     1.0000 0.31614  0.32153  0.12796  Biso   1.000  C
  C215     1.0000 0.18386  0.17847  0.12796  Biso   1.000  C
  C216     1.0000 0.18386  0.32153  0.37204  Biso   1.000  C
  C217     1.0000 0.88120  0.91500  0.15569  Biso   1.000  C
  C218     1.0000 0.61880  0.08500  0.65569  Biso   1.000  C
  C219     1.0000 0.11880  0.41500  0.34431  Biso   1.000  C
  C220     1.0000 0.38120  0.58500  0.84431  Biso   1.000  C
  C221     1.0000 0.15569  0.88120  0.91500  Biso   1.000  C
  C222     1.0000 0.65569  0.61880  0.08500  Biso   1.000  C
  C223     1.0000 0.34431  0.11880  0.41500  Biso   1.000  C
  C224     1.0000 0.84431  0.38120  0.58500  Biso   1.000  C
  C225     1.0000 0.91500  0.15569  0.88120  Biso   1.000  C
  C226     1.0000 0.08500  0.65569  0.61880  Biso   1.000  C
  C227     1.0000 0.41500  0.34431  0.11880  Biso   1.000  C
  C228     1.0000 0.58500  0.84431  0.38120  Biso   1.000  C
  C229     1.0000 0.16500  0.13120  0.09431  Biso   1.000  C
  C230     1.0000 0.33500  0.36880  0.09431  Biso   1.000  C
  C231     1.0000 0.16500  0.36880  0.40569  Biso   1.000  C
  C232     1.0000 0.33500  0.13120  0.40569  Biso   1.000  C
  C233     1.0000 0.13120  0.40569  0.33500  Biso   1.000  C
  C234     1.0000 0.36880  0.40569  0.16500  Biso   1.000  C
  C235     1.0000 0.36880  0.09431  0.33500  Biso   1.000  C
  C236     1.0000 0.13120  0.09431  0.16500  Biso   1.000  C
  C237     1.0000 0.40569  0.16500  0.36880  Biso   1.000  C
  C238     1.0000 0.40569  0.33500  0.13120  Biso   1.000  C
  C239     1.0000 0.09431  0.16500  0.13120  Biso   1.000  C
  C240     1.0000 0.09431  0.33500  0.36880  Biso   1.000  C
  C241     1.0000 0.88040  0.83080  0.18741  Biso   1.000  C
  C242     1.0000 0.61960  0.16920  0.68741  Biso   1.000  C
  C243     1.0000 0.11960  0.33080  0.31259  Biso   1.000  C
  C244     1.0000 0.38040  0.66920  0.81259  Biso   1.000  C
  C245     1.0000 0.18741  0.88040  0.83080  Biso   1.000  C
  C246     1.0000 0.68741  0.61960  0.16920  Biso   1.000  C
  C247     1.0000 0.31259  0.11960  0.33080  Biso   1.000  C
  C248     1.0000 0.81259  0.38040  0.66920  Biso   1.000  C
  C249     1.0000 0.83080  0.18741  0.88040  Biso   1.000  C
  C250     1.0000 0.16920  0.68741  0.61960  Biso   1.000  C
  C251     1.0000 0.33080  0.31259  0.11960  Biso   1.000  C
  C252     1.0000 0.66920  0.81259  0.38040  Biso   1.000  C
  C253     1.0000 0.08080  0.13040  0.06259  Biso   1.000  C
  C254     1.0000 0.41920  0.36960  0.06259  Biso   1.000  C
  C255     1.0000 0.08080  0.36960  0.43741  Biso   1.000  C
  C256     1.0000 0.41920  0.13040  0.43741  Biso   1.000  C
  C257     1.0000 0.13040  0.43741  0.41920  Biso   1.000  C
  C258     1.0000 0.36960  0.43741  0.08080  Biso   1.000  C
  C259     1.0000 0.36960  0.06259  0.41920  Biso   1.000  C
  C260     1.0000 0.13040  0.06259  0.08080  Biso   1.000  C
  C261     1.0000 0.43741  0.08080  0.36960  Biso   1.000  C
  C262     1.0000 0.43741  0.41920  0.13040  Biso   1.000  C
  C263     1.0000 0.06259  0.08080  0.13040  Biso   1.000  C
  C264     1.0000 0.06259  0.41920  0.36960  Biso   1.000  C
  C265     1.0000 0.87770  0.76196  0.12865  Biso   1.000  C
  C266     1.0000 0.62230  0.23804  0.62865  Biso   1.000  C
  C267     1.0000 0.12230  0.26196  0.37135  Biso   1.000  C
  C268     1.0000 0.37770  0.73804  0.87135  Biso   1.000  C
  C269     1.0000 0.12865  0.87770  0.76196  Biso   1.000  C
  C270     1.0000 0.62865  0.62230  0.23804  Biso   1.000  C
  C271     1.0000 0.37135  0.12230  0.26196  Biso   1.000  C
  C272     1.0000 0.87135  0.37770  0.73804  Biso   1.000  C
  C273     1.0000 0.76196  0.12865  0.87770  Biso   1.000  C
  C274     1.0000 0.23804  0.62865  0.62230  Biso   1.000  C
  C275     1.0000 0.26196  0.37135  0.12230  Biso   1.000  C
  C276     1.0000 0.73804  0.87135  0.37770  Biso   1.000  C
  C277     1.0000 0.01196  0.12770  0.12135  Biso   1.000  C
  C278     1.0000 0.48804  0.37230  0.12135  Biso   1.000  C
  C279     1.0000 0.01196  0.37230  0.37865  Biso   1.000  C
  C280     1.0000 0.48804  0.12770  0.37865  Biso   1.000  C
  C281     1.0000 0.12770  0.37865  0.48804  Biso   1.000  C
  C282     1.0000 0.37230  0.37865  0.01196  Biso   1.000  C
  C283     1.0000 0.37230  0.12135  0.48804  Biso   1.000  C
  C284     1.0000 0.12770  0.12135  0.01196  Biso   1.000  C
  C285     1.0000 0.37865  0.01196  0.37230  Biso   1.000  C
  C286     1.0000 0.37865  0.48804  0.12770  Biso   1.000  C
  C287     1.0000 0.12135  0.01196  0.12770  Biso   1.000  C
  C288     1.0000 0.12135  0.48804  0.37230  Biso   1.000  C
  H97      1.0000 0.87750  0.70340  0.14930  Biso   1.000  H
  H98      1.0000 0.62250  0.29660  0.64930  Biso   1.000  H
  H99      1.0000 0.12250  0.20340  0.35070  Biso   1.000  H
  H100     1.0000 0.37750  0.79660  0.85070  Biso   1.000  H
  H101     1.0000 0.14930  0.87750  0.70340  Biso   1.000  H
  H102     1.0000 0.64930  0.62250  0.29660  Biso   1.000  H
  H103     1.0000 0.35070  0.12250  0.20340  Biso   1.000  H
  H104     1.0000 0.85070  0.37750  0.79660  Biso   1.000  H
  H105     1.0000 0.70340  0.14930  0.87750  Biso   1.000  H
  H106     1.0000 0.29660  0.64930  0.62250  Biso   1.000  H
  H107     1.0000 0.20340  0.35070  0.12250  Biso   1.000  H
  H108     1.0000 0.79660  0.85070  0.37750  Biso   1.000  H
  H109     1.0000 0.95340  0.12750  0.10070  Biso   1.000  H
  H110     1.0000 0.54660  0.37250  0.10070  Biso   1.000  H
  H111     1.0000 0.95340  0.37250  0.39930  Biso   1.000  H
  H112     1.0000 0.54660  0.12750  0.39930  Biso   1.000  H
  H113     1.0000 0.12750  0.39930  0.54660  Biso   1.000  H
  H114     1.0000 0.37250  0.39930  0.95340  Biso   1.000  H
  H115     1.0000 0.37250  0.10070  0.54660  Biso   1.000  H
  H116     1.0000 0.12750  0.10070  0.95340  Biso   1.000  H
  H117     1.0000 0.39930  0.95340  0.37250  Biso   1.000  H
  H118     1.0000 0.39930  0.54660  0.12750  Biso   1.000  H
  H119     1.0000 0.10070  0.95340  0.12750  Biso   1.000  H
  H120     1.0000 0.10070  0.54660  0.37250  Biso   1.000  H
  H121     1.0000 0.88170  0.82000  0.24860  Biso   1.000  H
  H122     1.0000 0.61830  0.18000  0.74860  Biso   1.000  H
  H123     1.0000 0.11830  0.32000  0.25140  Biso   1.000  H
  H124     1.0000 0.38170  0.68000  0.75140  Biso   1.000  H
  H125     1.0000 0.24860  0.88170  0.82000  Biso   1.000  H
  H126     1.0000 0.74860  0.61830  0.18000  Biso   1.000  H
  H127     1.0000 0.25140  0.11830  0.32000  Biso   1.000  H
  H128     1.0000 0.75140  0.38170  0.68000  Biso   1.000  H
  H129     1.0000 0.82000  0.24860  0.88170  Biso   1.000  H
  H130     1.0000 0.18000  0.74860  0.61830  Biso   1.000  H
  H131     1.0000 0.32000  0.25140  0.11830  Biso   1.000  H
  H132     1.0000 0.68000  0.75140  0.38170  Biso   1.000  H
  H133     1.0000 0.07000  0.13170  0.00140  Biso   1.000  H
  H134     1.0000 0.43000  0.36830  0.00140  Biso   1.000  H
  H135     1.0000 0.07000  0.36830  0.49860  Biso   1.000  H
  H136     1.0000 0.43000  0.13170  0.49860  Biso   1.000  H
  H137     1.0000 0.13170  0.49860  0.43000  Biso   1.000  H
  H138     1.0000 0.36830  0.49860  0.07000  Biso   1.000  H
  H139     1.0000 0.36830  0.00140  0.43000  Biso   1.000  H
  H140     1.0000 0.13170  0.00140  0.07000  Biso   1.000  H
  H141     1.0000 0.49860  0.07000  0.36830  Biso   1.000  H
  H142     1.0000 0.49860  0.43000  0.13170  Biso   1.000  H
  H143     1.0000 0.00140  0.07000  0.13170  Biso   1.000  H
  H144     1.0000 0.00140  0.43000  0.36830  Biso   1.000  H
  H145     1.0000 0.88400  0.96320  0.19470  Biso   1.000  H
  H146     1.0000 0.61600  0.03680  0.69470  Biso   1.000  H
  H147     1.0000 0.11600  0.46320  0.30530  Biso   1.000  H
  H148     1.0000 0.38400  0.53680  0.80530  Biso   1.000  H
  H149     1.0000 0.19470  0.88400  0.96320  Biso   1.000  H
  H150     1.0000 0.69470  0.61600  0.03680  Biso   1.000  H
  H151     1.0000 0.30530  0.11600  0.46320  Biso   1.000  H
  H152     1.0000 0.80530  0.38400  0.53680  Biso   1.000  H
  H153     1.0000 0.96320  0.19470  0.88400  Biso   1.000  H
  H154     1.0000 0.03680  0.69470  0.61600  Biso   1.000  H
  H155     1.0000 0.46320  0.30530  0.11600  Biso   1.000  H
  H156     1.0000 0.53680  0.80530  0.38400  Biso   1.000  H
  H157     1.0000 0.21320  0.13400  0.05530  Biso   1.000  H
  H158     1.0000 0.28680  0.36600  0.05530  Biso   1.000  H
  H159     1.0000 0.21320  0.36600  0.44470  Biso   1.000  H
  H160     1.0000 0.28680  0.13400  0.44470  Biso   1.000  H
  H161     1.0000 0.13400  0.44470  0.28680  Biso   1.000  H
  H162     1.0000 0.36600  0.44470  0.21320  Biso   1.000  H
  H163     1.0000 0.36600  0.05530  0.28680  Biso   1.000  H
  H164     1.0000 0.13400  0.05530  0.21320  Biso   1.000  H
  H165     1.0000 0.44470  0.21320  0.36600  Biso   1.000  H
  H166     1.0000 0.44470  0.28680  0.13400  Biso   1.000  H
  H167     1.0000 0.05530  0.21320  0.13400  Biso   1.000  H
  H168     1.0000 0.05530  0.28680  0.36600  Biso   1.000  H
  H169     1.0000 0.87780  0.98680  0.04480  Biso   1.000  H
  H170     1.0000 0.62220  0.01320  0.54480  Biso   1.000  H
  H171     1.0000 0.12220  0.48680  0.45520  Biso   1.000  H
  H172     1.0000 0.37780  0.51320  0.95520  Biso   1.000  H
  H173     1.0000 0.04480  0.87780  0.98680  Biso   1.000  H
  H174     1.0000 0.54480  0.62220  0.01320  Biso   1.000  H
  H175     1.0000 0.45520  0.12220  0.48680  Biso   1.000  H
  H176     1.0000 0.95520  0.37780  0.51320  Biso   1.000  H
  H177     1.0000 0.98680  0.04480  0.87780  Biso   1.000  H
  H178     1.0000 0.01320  0.54480  0.62220  Biso   1.000  H
  H179     1.0000 0.48680  0.45520  0.12220  Biso   1.000  H
  H180     1.0000 0.51320  0.95520  0.37780  Biso   1.000  H
  H181     1.0000 0.23680  0.12780  0.20520  Biso   1.000  H
  H182     1.0000 0.26320  0.37220  0.20520  Biso   1.000  H
  H183     1.0000 0.23680  0.37220  0.29480  Biso   1.000  H
  H184     1.0000 0.26320  0.12780  0.29480  Biso   1.000  H
  H185     1.0000 0.12780  0.29480  0.26320  Biso   1.000  H
  H186     1.0000 0.37220  0.29480  0.23680  Biso   1.000  H
  H187     1.0000 0.37220  0.20520  0.26320  Biso   1.000  H
  H188     1.0000 0.12780  0.20520  0.23680  Biso   1.000  H
  H189     1.0000 0.29480  0.23680  0.37220  Biso   1.000  H
  H190     1.0000 0.29480  0.26320  0.12780  Biso   1.000  H
  H191     1.0000 0.20520  0.23680  0.12780  Biso   1.000  H
  H192     1.0000 0.20520  0.26320  0.37220  Biso   1.000  H
  O49      1.0000 0.76406  0.61314  0.41273  Biso   1.000  O
  O50      1.0000 0.73594  0.38686  0.91273  Biso   1.000  O
  O51      1.0000 0.23594  0.11314  0.08727  Biso   1.000  O
  O52      1.0000 0.26406  0.88686  0.58727  Biso   1.000  O
  O53      1.0000 0.41273  0.76406  0.61314  Biso   1.000  O
  O54      1.0000 0.91273  0.73594  0.38686  Biso   1.000  O
  O55      1.0000 0.08727  0.23594  0.11314  Biso   1.000  O
  O56      1.0000 0.58727  0.26406  0.88686  Biso   1.000  O
  O57      1.0000 0.61314  0.41273  0.76406  Biso   1.000  O
  O58      1.0000 0.38686  0.91273  0.73594  Biso   1.000  O
  O59      1.0000 0.11314  0.08727  0.23594  Biso   1.000  O
  O60      1.0000 0.88686  0.58727  0.26406  Biso   1.000  O
  O61      1.0000 0.86314  0.01406  0.83727  Biso   1.000  O
  O62      1.0000 0.63686  0.48594  0.83727  Biso   1.000  O
  O63      1.0000 0.86314  0.48594  0.66273  Biso   1.000  O
  O64      1.0000 0.63686  0.01406  0.66273  Biso   1.000  O
  O65      1.0000 0.01406  0.66273  0.63686  Biso   1.000  O
  O66      1.0000 0.48594  0.66273  0.86314  Biso   1.000  O
  O67      1.0000 0.48594  0.83727  0.63686  Biso   1.000  O
  O68      1.0000 0.01406  0.83727  0.86314  Biso   1.000  O
  O69      1.0000 0.66273  0.86314  0.48594  Biso   1.000  O
  O70      1.0000 0.66273  0.63686  0.01406  Biso   1.000  O
  O71      1.0000 0.83727  0.86314  0.01406  Biso   1.000  O
  O72      1.0000 0.83727  0.63686  0.48594  Biso   1.000  O
  O73      1.0000 0.88814  0.61003  0.53632  Biso   1.000  O
  O74      1.0000 0.61186  0.38997  0.03632  Biso   1.000  O
  O75      1.0000 0.11186  0.11003  0.96368  Biso   1.000  O
  O76      1.0000 0.38814  0.88997  0.46368  Biso   1.000  O
  O77      1.0000 0.53632  0.88814  0.61003  Biso   1.000  O
  O78      1.0000 0.03632  0.61186  0.38997  Biso   1.000  O
  O79      1.0000 0.96368  0.11186  0.11003  Biso   1.000  O
  O80      1.0000 0.46368  0.38814  0.88997  Biso   1.000  O
  O81      1.0000 0.61003  0.53632  0.88814  Biso   1.000  O
  O82      1.0000 0.38997  0.03632  0.61186  Biso   1.000  O
  O83      1.0000 0.11003  0.96368  0.11186  Biso   1.000  O
  O84      1.0000 0.88997  0.46368  0.38814  Biso   1.000  O
  O85      1.0000 0.86003  0.13814  0.71368  Biso   1.000  O
  O86      1.0000 0.63997  0.36186  0.71368  Biso   1.000  O
  O87      1.0000 0.86003  0.36186  0.78632  Biso   1.000  O
  O88      1.0000 0.63997  0.13814  0.78632  Biso   1.000  O
  O89      1.0000 0.13814  0.78632  0.63997  Biso   1.000  O
  O90      1.0000 0.36186  0.78632  0.86003  Biso   1.000  O
  O91      1.0000 0.36186  0.71368  0.63997  Biso   1.000  O
  O92      1.0000 0.13814  0.71368  0.86003  Biso   1.000  O
  O93      1.0000 0.78632  0.86003  0.36186  Biso   1.000  O
  O94      1.0000 0.78632  0.63997  0.13814  Biso   1.000  O
  O95      1.0000 0.71368  0.86003  0.13814  Biso   1.000  O
  O96      1.0000 0.71368  0.63997  0.36186  Biso   1.000  O
  Cu9      1.0000 0.89923  0.60077  0.39923  Biso   1.000  Cu
  Cu10     1.0000 0.60077  0.39923  0.89923  Biso   1.000  Cu
  Cu11     1.0000 0.10077  0.10077  0.10077  Biso   1.000  Cu
  Cu12     1.0000 0.39923  0.89923  0.60077  Biso   1.000  Cu
  Cu13     1.0000 0.85077  0.14923  0.85077  Biso   1.000  Cu
  Cu14     1.0000 0.64923  0.35077  0.85077  Biso   1.000  Cu
  Cu15     1.0000 0.85077  0.35077  0.64923  Biso   1.000  Cu
  Cu16     1.0000 0.64923  0.14923  0.64923  Biso   1.000  Cu
  Cu17     1.0000 0.14923  0.64923  0.64923  Biso   1.000  Cu
  Cu18     1.0000 0.35077  0.64923  0.85077  Biso   1.000  Cu
  Cu19     1.0000 0.35077  0.85077  0.64923  Biso   1.000  Cu
  Cu20     1.0000 0.14923  0.85077  0.85077  Biso   1.000  Cu
  Cu21     1.0000 0.64923  0.85077  0.35077  Biso   1.000  Cu
  Cu22     1.0000 0.64923  0.64923  0.14923  Biso   1.000  Cu
  Cu23     1.0000 0.85077  0.85077  0.14923  Biso   1.000  Cu
  Cu24     1.0000 0.85077  0.64923  0.35077  Biso   1.000  Cu
  O97      1.0000 0.83727  0.13686  0.98594  Biso   1.000  O
  O98      1.0000 0.66273  0.36314  0.98594  Biso   1.000  O
  O99      1.0000 0.83727  0.36314  0.51406  Biso   1.000  O
  O100     1.0000 0.66273  0.13686  0.51406  Biso   1.000  O
  O101     1.0000 0.13686  0.51406  0.66273  Biso   1.000  O
  O102     1.0000 0.36314  0.51406  0.83727  Biso   1.000  O
  O103     1.0000 0.36314  0.98594  0.66273  Biso   1.000  O
  O104     1.0000 0.13686  0.98594  0.83727  Biso   1.000  O
  O105     1.0000 0.51406  0.83727  0.36314  Biso   1.000  O
  O106     1.0000 0.51406  0.66273  0.13686  Biso   1.000  O
  O107     1.0000 0.98594  0.83727  0.13686  Biso   1.000  O
  O108     1.0000 0.98594  0.66273  0.36314  Biso   1.000  O
  O109     1.0000 0.98594  0.16273  0.86314  Biso   1.000  O
  O110     1.0000 0.51406  0.33727  0.86314  Biso   1.000  O
  O111     1.0000 0.98594  0.33727  0.63686  Biso   1.000  O
  O112     1.0000 0.51406  0.16273  0.63686  Biso   1.000  O
  O113     1.0000 0.16273  0.63686  0.51406  Biso   1.000  O
  O114     1.0000 0.33727  0.63686  0.98594  Biso   1.000  O
  O115     1.0000 0.33727  0.86314  0.51406  Biso   1.000  O
  O116     1.0000 0.16273  0.86314  0.98594  Biso   1.000  O
  O117     1.0000 0.63686  0.98594  0.33727  Biso   1.000  O
  O118     1.0000 0.63686  0.51406  0.16273  Biso   1.000  O
  O119     1.0000 0.86314  0.98594  0.16273  Biso   1.000  O
  O120     1.0000 0.86314  0.51406  0.33727  Biso   1.000  O
  O121     1.0000 0.71368  0.13997  0.86186  Biso   1.000  O
  O122     1.0000 0.78632  0.36003  0.86186  Biso   1.000  O
  O123     1.0000 0.71368  0.36003  0.63814  Biso   1.000  O
  O124     1.0000 0.78632  0.13997  0.63814  Biso   1.000  O
  O125     1.0000 0.13997  0.63814  0.78632  Biso   1.000  O
  O126     1.0000 0.36003  0.63814  0.71368  Biso   1.000  O
  O127     1.0000 0.36003  0.86186  0.78632  Biso   1.000  O
  O128     1.0000 0.13997  0.86186  0.71368  Biso   1.000  O
  O129     1.0000 0.63814  0.71368  0.36003  Biso   1.000  O
  O130     1.0000 0.63814  0.78632  0.13997  Biso   1.000  O
  O131     1.0000 0.86186  0.71368  0.13997  Biso   1.000  O
  O132     1.0000 0.86186  0.78632  0.36003  Biso   1.000  O
  O133     1.0000 0.86186  0.28632  0.86003  Biso   1.000  O
  O134     1.0000 0.63814  0.21368  0.86003  Biso   1.000  O
  O135     1.0000 0.86186  0.21368  0.63997  Biso   1.000  O
  O136     1.0000 0.63814  0.28632  0.63997  Biso   1.000  O
  O137     1.0000 0.28632  0.63997  0.63814  Biso   1.000  O
  O138     1.0000 0.21368  0.63997  0.86186  Biso   1.000  O
  O139     1.0000 0.21368  0.86003  0.63814  Biso   1.000  O
  O140     1.0000 0.28632  0.86003  0.86186  Biso   1.000  O
  O141     1.0000 0.63997  0.86186  0.21368  Biso   1.000  O
  O142     1.0000 0.63997  0.63814  0.28632  Biso   1.000  O
  O143     1.0000 0.86003  0.86186  0.28632  Biso   1.000  O
  O144     1.0000 0.86003  0.63814  0.21368  Biso   1.000  O
