data_image0
_cell_length_a       44.2373
_cell_length_b       44.2373
_cell_length_c       21.3285
_cell_angle_alpha    90
_cell_angle_beta     90
_cell_angle_gamma    120

_symmetry_space_group_name_H-M    "P 1"
_symmetry_int_tables_number       1

loop_
  _symmetry_equiv_pos_as_xyz
  'x, y, z'

loop_
  _atom_site_label
  _atom_site_occupancy
  _atom_site_fract_x
  _atom_site_fract_y
  _atom_site_fract_z
  _atom_site_thermal_displace_type
  _atom_site_B_iso_or_equiv
  _atom_site_type_symbol
  Cu1      1.0000 0.74116  0.16370  0.87084  Biso   1.000  Cu
  Cu2      1.0000 0.83630  0.57746  0.87084  Biso   1.000  Cu
  Cu3      1.0000 0.42254  0.25884  0.87084  Biso   1.000  Cu
  Cu4      1.0000 0.40783  0.49703  0.20417  Biso   1.000  Cu
  Cu5      1.0000 0.50297  0.91079  0.20417  Biso   1.000  Cu
  Cu6      1.0000 0.08921  0.59217  0.20417  Biso   1.000  Cu
  Cu7      1.0000 0.07449  0.83036  0.53751  Biso   1.000  Cu
  Cu8      1.0000 0.16964  0.24413  0.53751  Biso   1.000  Cu
  Cu9      1.0000 0.75587  0.92551  0.53751  Biso   1.000  Cu
  Cu10     1.0000 0.25884  0.83630  0.12916  Biso   1.000  Cu
  Cu11     1.0000 0.16370  0.42254  0.12916  Biso   1.000  Cu
  Cu12     1.0000 0.57746  0.74116  0.12916  Biso   1.000  Cu
  Cu13     1.0000 0.92551  0.16964  0.46249  Biso   1.000  Cu
  Cu14     1.0000 0.83036  0.75587  0.46249  Biso   1.000  Cu
  Cu15     1.0000 0.24413  0.07449  0.46249  Biso   1.000  Cu
  Cu16     1.0000 0.59217  0.50297  0.79583  Biso   1.000  Cu
  Cu17     1.0000 0.49703  0.08921  0.79583  Biso   1.000  Cu
  Cu18     1.0000 0.91079  0.40783  0.79583  Biso   1.000  Cu
  N1       1.0000 0.70513  0.14077  0.80690  Biso   1.000  N
  N2       1.0000 0.85923  0.56436  0.80690  Biso   1.000  N
  N3       1.0000 0.43564  0.29487  0.80690  Biso   1.000  N
  N4       1.0000 0.37180  0.47410  0.14023  Biso   1.000  N
  N5       1.0000 0.52590  0.89769  0.14023  Biso   1.000  N
  N6       1.0000 0.10231  0.62820  0.14023  Biso   1.000  N
  N7       1.0000 0.03846  0.80744  0.47357  Biso   1.000  N
  N8       1.0000 0.19256  0.23103  0.47357  Biso   1.000  N
  N9       1.0000 0.76897  0.96154  0.47357  Biso   1.000  N
  N10      1.0000 0.29487  0.85923  0.19310  Biso   1.000  N
  N11      1.0000 0.14077  0.43564  0.19310  Biso   1.000  N
  N12      1.0000 0.56436  0.70513  0.19310  Biso   1.000  N
  N13      1.0000 0.96154  0.19256  0.52643  Biso   1.000  N
  N14      1.0000 0.80744  0.76897  0.52643  Biso   1.000  N
  N15      1.0000 0.23103  0.03846  0.52643  Biso   1.000  N
  N16      1.0000 0.62820  0.52590  0.85977  Biso   1.000  N
  N17      1.0000 0.47410  0.10231  0.85977  Biso   1.000  N
  N18      1.0000 0.89769  0.37180  0.85977  Biso   1.000  N
  O1       1.0000 0.77638  0.17780  0.94010  Biso   1.000  O
  O2       1.0000 0.82220  0.59858  0.94010  Biso   1.000  O
  O3       1.0000 0.40142  0.22362  0.94010  Biso   1.000  O
  O4       1.0000 0.44305  0.51113  0.27343  Biso   1.000  O
  O5       1.0000 0.48887  0.93191  0.27343  Biso   1.000  O
  O6       1.0000 0.06809  0.55695  0.27343  Biso   1.000  O
  O7       1.0000 0.10971  0.84447  0.60677  Biso   1.000  O
  O8       1.0000 0.15553  0.26525  0.60677  Biso   1.000  O
  O9       1.0000 0.73475  0.89029  0.60677  Biso   1.000  O
  O10      1.0000 0.22362  0.82220  0.05990  Biso   1.000  O
  O11      1.0000 0.17780  0.40142  0.05990  Biso   1.000  O
  O12      1.0000 0.59858  0.77638  0.05990  Biso   1.000  O
  O13      1.0000 0.89029  0.15553  0.39323  Biso   1.000  O
  O14      1.0000 0.84447  0.73475  0.39323  Biso   1.000  O
  O15      1.0000 0.26525  0.10971  0.39323  Biso   1.000  O
  O16      1.0000 0.55695  0.48887  0.72657  Biso   1.000  O
  O17      1.0000 0.51113  0.06809  0.72657  Biso   1.000  O
  O18      1.0000 0.93191  0.44305  0.72657  Biso   1.000  O
  O19      1.0000 0.77480  0.15777  0.81608  Biso   1.000  O
  O20      1.0000 0.84223  0.61703  0.81608  Biso   1.000  O
  O21      1.0000 0.38297  0.22520  0.81608  Biso   1.000  O
  O22      1.0000 0.44147  0.49110  0.14941  Biso   1.000  O
  O23      1.0000 0.50890  0.95036  0.14941  Biso   1.000  O
  O24      1.0000 0.04964  0.55853  0.14941  Biso   1.000  O
  O25      1.0000 0.10813  0.82444  0.48275  Biso   1.000  O
  O26      1.0000 0.17556  0.28370  0.48275  Biso   1.000  O
  O27      1.0000 0.71630  0.89187  0.48275  Biso   1.000  O
  O28      1.0000 0.22520  0.84223  0.18392  Biso   1.000  O
  O29      1.0000 0.15777  0.38297  0.18392  Biso   1.000  O
  O30      1.0000 0.61703  0.77480  0.18392  Biso   1.000  O
  O31      1.0000 0.89187  0.17556  0.51725  Biso   1.000  O
  O32      1.0000 0.82444  0.71630  0.51725  Biso   1.000  O
  O33      1.0000 0.28370  0.10813  0.51725  Biso   1.000  O
  O34      1.0000 0.55853  0.50890  0.85059  Biso   1.000  O
  O35      1.0000 0.49110  0.04964  0.85059  Biso   1.000  O
  O36      1.0000 0.95036  0.44147  0.85059  Biso   1.000  O
  N19      1.0000 0.70905  0.16664  0.93030  Biso   1.000  N
  N20      1.0000 0.83336  0.54241  0.93030  Biso   1.000  N
  N21      1.0000 0.45759  0.29095  0.93030  Biso   1.000  N
  N22      1.0000 0.37572  0.49997  0.26363  Biso   1.000  N
  N23      1.0000 0.50003  0.87574  0.26363  Biso   1.000  N
  N24      1.0000 0.12426  0.62428  0.26363  Biso   1.000  N
  N25      1.0000 0.04238  0.83331  0.59697  Biso   1.000  N
  N26      1.0000 0.16669  0.20908  0.59697  Biso   1.000  N
  N27      1.0000 0.79092  0.95762  0.59697  Biso   1.000  N
  N28      1.0000 0.29095  0.83336  0.06970  Biso   1.000  N
  N29      1.0000 0.16664  0.45759  0.06970  Biso   1.000  N
  N30      1.0000 0.54241  0.70905  0.06970  Biso   1.000  N
  N31      1.0000 0.95762  0.16669  0.40303  Biso   1.000  N
  N32      1.0000 0.83331  0.79092  0.40303  Biso   1.000  N
  N33      1.0000 0.20908  0.04238  0.40303  Biso   1.000  N
  N34      1.0000 0.62428  0.50003  0.73637  Biso   1.000  N
  N35      1.0000 0.49997  0.12426  0.73637  Biso   1.000  N
  N36      1.0000 0.87574  0.37572  0.73637  Biso   1.000  N
  C1       1.0000 0.59757  0.12278  0.89560  Biso   1.000  C
  C2       1.0000 0.87722  0.47479  0.89560  Biso   1.000  C
  C3       1.0000 0.52521  0.40243  0.89560  Biso   1.000  C
  C4       1.0000 0.26424  0.45611  0.22893  Biso   1.000  C
  C5       1.0000 0.54389  0.80812  0.22893  Biso   1.000  C
  C6       1.0000 0.19188  0.73576  0.22893  Biso   1.000  C
  C7       1.0000 0.93090  0.78945  0.56227  Biso   1.000  C
  C8       1.0000 0.21055  0.14146  0.56227  Biso   1.000  C
  C9       1.0000 0.85854  0.06910  0.56227  Biso   1.000  C
  C10      1.0000 0.40243  0.87722  0.10440  Biso   1.000  C
  C11      1.0000 0.12278  0.52521  0.10440  Biso   1.000  C
  C12      1.0000 0.47479  0.59757  0.10440  Biso   1.000  C
  C13      1.0000 0.06910  0.21055  0.43773  Biso   1.000  C
  C14      1.0000 0.78945  0.85854  0.43773  Biso   1.000  C
  C15      1.0000 0.14146  0.93090  0.43773  Biso   1.000  C
  C16      1.0000 0.73576  0.54389  0.77107  Biso   1.000  C
  C17      1.0000 0.45611  0.19188  0.77107  Biso   1.000  C
  C18      1.0000 0.80812  0.26424  0.77107  Biso   1.000  C
  H1       1.0000 0.60360  0.11640  0.93420  Biso   1.000  H
  H2       1.0000 0.88360  0.48720  0.93420  Biso   1.000  H
  H3       1.0000 0.51280  0.39640  0.93420  Biso   1.000  H
  H4       1.0000 0.27027  0.44973  0.26753  Biso   1.000  H
  H5       1.0000 0.55027  0.82053  0.26753  Biso   1.000  H
  H6       1.0000 0.17947  0.72973  0.26753  Biso   1.000  H
  H7       1.0000 0.93693  0.78307  0.60087  Biso   1.000  H
  H8       1.0000 0.21693  0.15387  0.60087  Biso   1.000  H
  H9       1.0000 0.84613  0.06307  0.60087  Biso   1.000  H
  H10      1.0000 0.39640  0.88360  0.06580  Biso   1.000  H
  H11      1.0000 0.11640  0.51280  0.06580  Biso   1.000  H
  H12      1.0000 0.48720  0.60360  0.06580  Biso   1.000  H
  H13      1.0000 0.06307  0.21693  0.39913  Biso   1.000  H
  H14      1.0000 0.78307  0.84613  0.39913  Biso   1.000  H
  H15      1.0000 0.15387  0.93693  0.39913  Biso   1.000  H
  H16      1.0000 0.72973  0.55027  0.73247  Biso   1.000  H
  H17      1.0000 0.44973  0.17947  0.73247  Biso   1.000  H
  H18      1.0000 0.82053  0.27027  0.73247  Biso   1.000  H
  C19      1.0000 0.65954  0.14786  0.85780  Biso   1.000  C
  C20      1.0000 0.85214  0.51168  0.85780  Biso   1.000  C
  C21      1.0000 0.48832  0.34046  0.85780  Biso   1.000  C
  C22      1.0000 0.32621  0.48119  0.19113  Biso   1.000  C
  C23      1.0000 0.51881  0.84501  0.19113  Biso   1.000  C
  C24      1.0000 0.15499  0.67379  0.19113  Biso   1.000  C
  C25      1.0000 0.99287  0.81453  0.52447  Biso   1.000  C
  C26      1.0000 0.18547  0.17835  0.52447  Biso   1.000  C
  C27      1.0000 0.82165  0.00713  0.52447  Biso   1.000  C
  C28      1.0000 0.34046  0.85214  0.14220  Biso   1.000  C
  C29      1.0000 0.14786  0.48832  0.14220  Biso   1.000  C
  C30      1.0000 0.51168  0.65954  0.14220  Biso   1.000  C
  C31      1.0000 0.00713  0.18547  0.47553  Biso   1.000  C
  C32      1.0000 0.81453  0.82165  0.47553  Biso   1.000  C
  C33      1.0000 0.17835  0.99287  0.47553  Biso   1.000  C
  C34      1.0000 0.67379  0.51881  0.80887  Biso   1.000  C
  C35      1.0000 0.48119  0.15499  0.80887  Biso   1.000  C
  C36      1.0000 0.84501  0.32621  0.80887  Biso   1.000  C
  N37      1.0000 0.55339  0.12187  0.82860  Biso   1.000  N
  N38      1.0000 0.87813  0.43152  0.82860  Biso   1.000  N
  N39      1.0000 0.56848  0.44661  0.82860  Biso   1.000  N
  N40      1.0000 0.22006  0.45520  0.16193  Biso   1.000  N
  N41      1.0000 0.54480  0.76485  0.16193  Biso   1.000  N
  N42      1.0000 0.23515  0.77994  0.16193  Biso   1.000  N
  N43      1.0000 0.88672  0.78854  0.49527  Biso   1.000  N
  N44      1.0000 0.21146  0.09819  0.49527  Biso   1.000  N
  N45      1.0000 0.90181  0.11328  0.49527  Biso   1.000  N
  N46      1.0000 0.44661  0.87813  0.17140  Biso   1.000  N
  N47      1.0000 0.12187  0.56848  0.17140  Biso   1.000  N
  N48      1.0000 0.43152  0.55339  0.17140  Biso   1.000  N
  N49      1.0000 0.11328  0.21146  0.50473  Biso   1.000  N
  N50      1.0000 0.78854  0.90181  0.50473  Biso   1.000  N
  N51      1.0000 0.09819  0.88672  0.50473  Biso   1.000  N
  N52      1.0000 0.77994  0.54480  0.83807  Biso   1.000  N
  N53      1.0000 0.45520  0.23515  0.83807  Biso   1.000  N
  N54      1.0000 0.76485  0.22006  0.83807  Biso   1.000  N
  C37      1.0000 0.67161  0.13598  0.80950  Biso   1.000  C
  C38      1.0000 0.86402  0.53563  0.80950  Biso   1.000  C
  C39      1.0000 0.46437  0.32839  0.80950  Biso   1.000  C
  C40      1.0000 0.33828  0.46931  0.14283  Biso   1.000  C
  C41      1.0000 0.53069  0.86896  0.14283  Biso   1.000  C
  C42      1.0000 0.13104  0.66172  0.14283  Biso   1.000  C
  C43      1.0000 0.00494  0.80265  0.47617  Biso   1.000  C
  C44      1.0000 0.19735  0.20230  0.47617  Biso   1.000  C
  C45      1.0000 0.79770  0.99506  0.47617  Biso   1.000  C
  C46      1.0000 0.32839  0.86402  0.19050  Biso   1.000  C
  C47      1.0000 0.13598  0.46437  0.19050  Biso   1.000  C
  C48      1.0000 0.53563  0.67161  0.19050  Biso   1.000  C
  C49      1.0000 0.99506  0.19735  0.52383  Biso   1.000  C
  C50      1.0000 0.80265  0.79770  0.52383  Biso   1.000  C
  C51      1.0000 0.20230  0.00494  0.52383  Biso   1.000  C
  C52      1.0000 0.66172  0.53069  0.85717  Biso   1.000  C
  C53      1.0000 0.46931  0.13104  0.85717  Biso   1.000  C
  C54      1.0000 0.86896  0.33828  0.85717  Biso   1.000  C
  C55      1.0000 0.67716  0.16370  0.91400  Biso   1.000  C
  C56      1.0000 0.83630  0.51346  0.91400  Biso   1.000  C
  C57      1.0000 0.48654  0.32284  0.91400  Biso   1.000  C
  C58      1.0000 0.34383  0.49703  0.24733  Biso   1.000  C
  C59      1.0000 0.50297  0.84679  0.24733  Biso   1.000  C
  C60      1.0000 0.15321  0.65617  0.24733  Biso   1.000  C
  C61      1.0000 0.01049  0.83037  0.58067  Biso   1.000  C
  C62      1.0000 0.16963  0.18013  0.58067  Biso   1.000  C
  C63      1.0000 0.81987  0.98951  0.58067  Biso   1.000  C
  C64      1.0000 0.32284  0.83630  0.08600  Biso   1.000  C
  C65      1.0000 0.16370  0.48654  0.08600  Biso   1.000  C
  C66      1.0000 0.51346  0.67716  0.08600  Biso   1.000  C
  C67      1.0000 0.98951  0.16963  0.41933  Biso   1.000  C
  C68      1.0000 0.83037  0.81987  0.41933  Biso   1.000  C
  C69      1.0000 0.18013  0.01049  0.41933  Biso   1.000  C
  C70      1.0000 0.65617  0.50297  0.75267  Biso   1.000  C
  C71      1.0000 0.49703  0.15321  0.75267  Biso   1.000  C
  C72      1.0000 0.84679  0.34383  0.75267  Biso   1.000  C
  C73      1.0000 0.67602  0.11218  0.71880  Biso   1.000  C
  C74      1.0000 0.88782  0.56384  0.71880  Biso   1.000  C
  C75      1.0000 0.43616  0.32398  0.71880  Biso   1.000  C
  C76      1.0000 0.34269  0.44551  0.05213  Biso   1.000  C
  C77      1.0000 0.55449  0.89717  0.05213  Biso   1.000  C
  C78      1.0000 0.10283  0.65731  0.05213  Biso   1.000  C
  C79      1.0000 0.00935  0.77885  0.38547  Biso   1.000  C
  C80      1.0000 0.22115  0.23051  0.38547  Biso   1.000  C
  C81      1.0000 0.76949  0.99065  0.38547  Biso   1.000  C
  C82      1.0000 0.32398  0.88782  0.28120  Biso   1.000  C
  C83      1.0000 0.11218  0.43616  0.28120  Biso   1.000  C
  C84      1.0000 0.56384  0.67602  0.28120  Biso   1.000  C
  C85      1.0000 0.99065  0.22115  0.61453  Biso   1.000  C
  C86      1.0000 0.77885  0.76949  0.61453  Biso   1.000  C
  C87      1.0000 0.23051  0.00935  0.61453  Biso   1.000  C
  C88      1.0000 0.65731  0.55449  0.94787  Biso   1.000  C
  C89      1.0000 0.44551  0.10283  0.94787  Biso   1.000  C
  C90      1.0000 0.89717  0.34269  0.94787  Biso   1.000  C
  H19      1.0000 0.67140  0.10070  0.67930  Biso   1.000  H
  H20      1.0000 0.89930  0.57070  0.67930  Biso   1.000  H
  H21      1.0000 0.42930  0.32860  0.67930  Biso   1.000  H
  H22      1.0000 0.33807  0.43403  0.01263  Biso   1.000  H
  H23      1.0000 0.56597  0.90403  0.01263  Biso   1.000  H
  H24      1.0000 0.09597  0.66193  0.01263  Biso   1.000  H
  H25      1.0000 0.00473  0.76737  0.34597  Biso   1.000  H
  H26      1.0000 0.23263  0.23737  0.34597  Biso   1.000  H
  H27      1.0000 0.76263  0.99527  0.34597  Biso   1.000  H
  H28      1.0000 0.32860  0.89930  0.32070  Biso   1.000  H
  H29      1.0000 0.10070  0.42930  0.32070  Biso   1.000  H
  H30      1.0000 0.57070  0.67140  0.32070  Biso   1.000  H
  H31      1.0000 0.99527  0.23263  0.65403  Biso   1.000  H
  H32      1.0000 0.76737  0.76263  0.65403  Biso   1.000  H
  H33      1.0000 0.23737  0.00473  0.65403  Biso   1.000  H
  H34      1.0000 0.66193  0.56597  0.98737  Biso   1.000  H
  H35      1.0000 0.43403  0.09597  0.98737  Biso   1.000  H
  H36      1.0000 0.90403  0.33807  0.98737  Biso   1.000  H
  C91      1.0000 0.82820  0.19749  0.99660  Biso   1.000  C
  C92      1.0000 0.80251  0.63071  0.99660  Biso   1.000  C
  C93      1.0000 0.36929  0.17180  0.99660  Biso   1.000  C
  C94      1.0000 0.49487  0.53082  0.32993  Biso   1.000  C
  C95      1.0000 0.46918  0.96404  0.32993  Biso   1.000  C
  C96      1.0000 0.03596  0.50513  0.32993  Biso   1.000  C
  C97      1.0000 0.16153  0.86416  0.66327  Biso   1.000  C
  C98      1.0000 0.13584  0.29738  0.66327  Biso   1.000  C
  C99      1.0000 0.70262  0.83847  0.66327  Biso   1.000  C
  C100     1.0000 0.17180  0.80251  0.00340  Biso   1.000  C
  C101     1.0000 0.19749  0.36929  0.00340  Biso   1.000  C
  C102     1.0000 0.63071  0.82820  0.00340  Biso   1.000  C
  C103     1.0000 0.83847  0.13584  0.33673  Biso   1.000  C
  C104     1.0000 0.86416  0.70262  0.33673  Biso   1.000  C
  C105     1.0000 0.29738  0.16153  0.33673  Biso   1.000  C
  C106     1.0000 0.50513  0.46918  0.67007  Biso   1.000  C
  C107     1.0000 0.53082  0.03596  0.67007  Biso   1.000  C
  C108     1.0000 0.96404  0.49487  0.67007  Biso   1.000  C
  C109     1.0000 0.70769  0.12712  0.75280  Biso   1.000  C
  C110     1.0000 0.87288  0.58057  0.75280  Biso   1.000  C
  C111     1.0000 0.41943  0.29231  0.75280  Biso   1.000  C
  C112     1.0000 0.37436  0.46045  0.08613  Biso   1.000  C
  C113     1.0000 0.53955  0.91390  0.08613  Biso   1.000  C
  C114     1.0000 0.08610  0.62564  0.08613  Biso   1.000  C
  C115     1.0000 0.04102  0.79379  0.41947  Biso   1.000  C
  C116     1.0000 0.20621  0.24724  0.41947  Biso   1.000  C
  C117     1.0000 0.75276  0.95898  0.41947  Biso   1.000  C
  C118     1.0000 0.29231  0.87288  0.24720  Biso   1.000  C
  C119     1.0000 0.12712  0.41943  0.24720  Biso   1.000  C
  C120     1.0000 0.58057  0.70769  0.24720  Biso   1.000  C
  C121     1.0000 0.95898  0.20621  0.58053  Biso   1.000  C
  C122     1.0000 0.79379  0.75276  0.58053  Biso   1.000  C
  C123     1.0000 0.24724  0.04102  0.58053  Biso   1.000  C
  C124     1.0000 0.62564  0.53955  0.91387  Biso   1.000  C
  C125     1.0000 0.46045  0.08610  0.91387  Biso   1.000  C
  C126     1.0000 0.91390  0.37436  0.91387  Biso   1.000  C
  H37      1.0000 0.72820  0.12740  0.73890  Biso   1.000  H
  H38      1.0000 0.87260  0.60080  0.73890  Biso   1.000  H
  H39      1.0000 0.39920  0.27180  0.73890  Biso   1.000  H
  H40      1.0000 0.39487  0.46073  0.07223  Biso   1.000  H
  H41      1.0000 0.53927  0.93413  0.07223  Biso   1.000  H
  H42      1.0000 0.06587  0.60513  0.07223  Biso   1.000  H
  H43      1.0000 0.06153  0.79407  0.40557  Biso   1.000  H
  H44      1.0000 0.20593  0.26747  0.40557  Biso   1.000  H
  H45      1.0000 0.73253  0.93847  0.40557  Biso   1.000  H
  H46      1.0000 0.27180  0.87260  0.26110  Biso   1.000  H
  H47      1.0000 0.12740  0.39920  0.26110  Biso   1.000  H
  H48      1.0000 0.60080  0.72820  0.26110  Biso   1.000  H
  H49      1.0000 0.93847  0.20593  0.59443  Biso   1.000  H
  H50      1.0000 0.79407  0.73253  0.59443  Biso   1.000  H
  H51      1.0000 0.26747  0.06153  0.59443  Biso   1.000  H
  H52      1.0000 0.60513  0.53927  0.92777  Biso   1.000  H
  H53      1.0000 0.46073  0.06587  0.92777  Biso   1.000  H
  H54      1.0000 0.93413  0.39487  0.92777  Biso   1.000  H
  C127     1.0000 0.80623  0.16796  0.82770  Biso   1.000  C
  C128     1.0000 0.83204  0.63827  0.82770  Biso   1.000  C
  C129     1.0000 0.36173  0.19377  0.82770  Biso   1.000  C
  C130     1.0000 0.47290  0.50129  0.16103  Biso   1.000  C
  C131     1.0000 0.49871  0.97160  0.16103  Biso   1.000  C
  C132     1.0000 0.02840  0.52710  0.16103  Biso   1.000  C
  C133     1.0000 0.13956  0.83463  0.49437  Biso   1.000  C
  C134     1.0000 0.16537  0.30494  0.49437  Biso   1.000  C
  C135     1.0000 0.69506  0.86044  0.49437  Biso   1.000  C
  C136     1.0000 0.19377  0.83204  0.17230  Biso   1.000  C
  C137     1.0000 0.16796  0.36173  0.17230  Biso   1.000  C
  C138     1.0000 0.63827  0.80623  0.17230  Biso   1.000  C
  C139     1.0000 0.86044  0.16537  0.50563  Biso   1.000  C
  C140     1.0000 0.83463  0.69506  0.50563  Biso   1.000  C
  C141     1.0000 0.30494  0.13956  0.50563  Biso   1.000  C
  C142     1.0000 0.52710  0.49871  0.83897  Biso   1.000  C
  C143     1.0000 0.50129  0.02840  0.83897  Biso   1.000  C
  C144     1.0000 0.97160  0.47290  0.83897  Biso   1.000  C
  C145     1.0000 0.61310  0.15284  0.79690  Biso   1.000  C
  C146     1.0000 0.84716  0.46026  0.79690  Biso   1.000  C
  C147     1.0000 0.53974  0.38690  0.79690  Biso   1.000  C
  C148     1.0000 0.27977  0.48617  0.13023  Biso   1.000  C
  C149     1.0000 0.51383  0.79359  0.13023  Biso   1.000  C
  C150     1.0000 0.20641  0.72023  0.13023  Biso   1.000  C
  C151     1.0000 0.94643  0.81951  0.46357  Biso   1.000  C
  C152     1.0000 0.18049  0.12693  0.46357  Biso   1.000  C
  C153     1.0000 0.87307  0.05357  0.46357  Biso   1.000  C
  C154     1.0000 0.38690  0.84716  0.20310  Biso   1.000  C
  C155     1.0000 0.15284  0.53974  0.20310  Biso   1.000  C
  C156     1.0000 0.46026  0.61310  0.20310  Biso   1.000  C
  C157     1.0000 0.05357  0.18049  0.53643  Biso   1.000  C
  C158     1.0000 0.81951  0.87307  0.53643  Biso   1.000  C
  C159     1.0000 0.12693  0.94643  0.53643  Biso   1.000  C
  C160     1.0000 0.72023  0.51383  0.86977  Biso   1.000  C
  C161     1.0000 0.48617  0.20641  0.86977  Biso   1.000  C
  C162     1.0000 0.79359  0.27977  0.86977  Biso   1.000  C
  H55      1.0000 0.63000  0.16750  0.76690  Biso   1.000  H
  H56      1.0000 0.83250  0.46250  0.76690  Biso   1.000  H
  H57      1.0000 0.53750  0.37000  0.76690  Biso   1.000  H
  H58      1.0000 0.29667  0.50083  0.10023  Biso   1.000  H
  H59      1.0000 0.49917  0.79583  0.10023  Biso   1.000  H
  H60      1.0000 0.20417  0.70333  0.10023  Biso   1.000  H
  H61      1.0000 0.96333  0.83417  0.43357  Biso   1.000  H
  H62      1.0000 0.16583  0.12917  0.43357  Biso   1.000  H
  H63      1.0000 0.87083  0.03667  0.43357  Biso   1.000  H
  H64      1.0000 0.37000  0.83250  0.23310  Biso   1.000  H
  H65      1.0000 0.16750  0.53750  0.23310  Biso   1.000  H
  H66      1.0000 0.46250  0.63000  0.23310  Biso   1.000  H
  H67      1.0000 0.03667  0.16583  0.56643  Biso   1.000  H
  H68      1.0000 0.83417  0.87083  0.56643  Biso   1.000  H
  H69      1.0000 0.12917  0.96333  0.56643  Biso   1.000  H
  H70      1.0000 0.70333  0.49917  0.89977  Biso   1.000  H
  H71      1.0000 0.50083  0.20417  0.89977  Biso   1.000  H
  H72      1.0000 0.79583  0.29667  0.89977  Biso   1.000  H
  C163     1.0000 0.62332  0.14200  0.85030  Biso   1.000  C
  C164     1.0000 0.85800  0.48132  0.85030  Biso   1.000  C
  C165     1.0000 0.51868  0.37668  0.85030  Biso   1.000  C
  C166     1.0000 0.28999  0.47533  0.18363  Biso   1.000  C
  C167     1.0000 0.52467  0.81465  0.18363  Biso   1.000  C
  C168     1.0000 0.18535  0.71001  0.18363  Biso   1.000  C
  C169     1.0000 0.95665  0.80867  0.51697  Biso   1.000  C
  C170     1.0000 0.19133  0.14799  0.51697  Biso   1.000  C
  C171     1.0000 0.85201  0.04335  0.51697  Biso   1.000  C
  C172     1.0000 0.37668  0.85800  0.14970  Biso   1.000  C
  C173     1.0000 0.14200  0.51868  0.14970  Biso   1.000  C
  C174     1.0000 0.48132  0.62332  0.14970  Biso   1.000  C
  C175     1.0000 0.04335  0.19133  0.48303  Biso   1.000  C
  C176     1.0000 0.80867  0.85201  0.48303  Biso   1.000  C
  C177     1.0000 0.14799  0.95665  0.48303  Biso   1.000  C
  C178     1.0000 0.71001  0.52467  0.81637  Biso   1.000  C
  C179     1.0000 0.47533  0.18535  0.81637  Biso   1.000  C
  C180     1.0000 0.81465  0.28999  0.81637  Biso   1.000  C
  C181     1.0000 0.65350  0.11767  0.75440  Biso   1.000  C
  C182     1.0000 0.88233  0.53583  0.75440  Biso   1.000  C
  C183     1.0000 0.46417  0.34650  0.75440  Biso   1.000  C
  C184     1.0000 0.32017  0.45100  0.08773  Biso   1.000  C
  C185     1.0000 0.54900  0.86916  0.08773  Biso   1.000  C
  C186     1.0000 0.13084  0.67983  0.08773  Biso   1.000  C
  C187     1.0000 0.98683  0.78434  0.42107  Biso   1.000  C
  C188     1.0000 0.21566  0.20250  0.42107  Biso   1.000  C
  C189     1.0000 0.79750  0.01317  0.42107  Biso   1.000  C
  C190     1.0000 0.34650  0.88233  0.24560  Biso   1.000  C
  C191     1.0000 0.11767  0.46417  0.24560  Biso   1.000  C
  C192     1.0000 0.53583  0.65350  0.24560  Biso   1.000  C
  C193     1.0000 0.01317  0.21566  0.57893  Biso   1.000  C
  C194     1.0000 0.78434  0.79750  0.57893  Biso   1.000  C
  C195     1.0000 0.20250  0.98683  0.57893  Biso   1.000  C
  C196     1.0000 0.67983  0.54900  0.91227  Biso   1.000  C
  C197     1.0000 0.45100  0.13084  0.91227  Biso   1.000  C
  C198     1.0000 0.86916  0.32017  0.91227  Biso   1.000  C
  H73      1.0000 0.63000  0.11050  0.74430  Biso   1.000  H
  H74      1.0000 0.88950  0.51950  0.74430  Biso   1.000  H
  H75      1.0000 0.48050  0.37000  0.74430  Biso   1.000  H
  H76      1.0000 0.29667  0.44383  0.07763  Biso   1.000  H
  H77      1.0000 0.55617  0.85283  0.07763  Biso   1.000  H
  H78      1.0000 0.14717  0.70333  0.07763  Biso   1.000  H
  H79      1.0000 0.96333  0.77717  0.41097  Biso   1.000  H
  H80      1.0000 0.22283  0.18617  0.41097  Biso   1.000  H
  H81      1.0000 0.81383  0.03667  0.41097  Biso   1.000  H
  H82      1.0000 0.37000  0.88950  0.25570  Biso   1.000  H
  H83      1.0000 0.11050  0.48050  0.25570  Biso   1.000  H
  H84      1.0000 0.51950  0.63000  0.25570  Biso   1.000  H
  H85      1.0000 0.03667  0.22283  0.58903  Biso   1.000  H
  H86      1.0000 0.77717  0.81383  0.58903  Biso   1.000  H
  H87      1.0000 0.18617  0.96333  0.58903  Biso   1.000  H
  H88      1.0000 0.70333  0.55617  0.92237  Biso   1.000  H
  H89      1.0000 0.44383  0.14717  0.92237  Biso   1.000  H
  H90      1.0000 0.85283  0.29667  0.92237  Biso   1.000  H
  C199     1.0000 0.56319  0.11333  0.88240  Biso   1.000  C
  C200     1.0000 0.88667  0.44986  0.88240  Biso   1.000  C
  C201     1.0000 0.55014  0.43681  0.88240  Biso   1.000  C
  C202     1.0000 0.22986  0.44666  0.21573  Biso   1.000  C
  C203     1.0000 0.55334  0.78319  0.21573  Biso   1.000  C
  C204     1.0000 0.21681  0.77014  0.21573  Biso   1.000  C
  C205     1.0000 0.89652  0.78000  0.54907  Biso   1.000  C
  C206     1.0000 0.22000  0.11653  0.54907  Biso   1.000  C
  C207     1.0000 0.88347  0.10348  0.54907  Biso   1.000  C
  C208     1.0000 0.43681  0.88667  0.11760  Biso   1.000  C
  C209     1.0000 0.11333  0.55014  0.11760  Biso   1.000  C
  C210     1.0000 0.44986  0.56319  0.11760  Biso   1.000  C
  C211     1.0000 0.10348  0.22000  0.45093  Biso   1.000  C
  C212     1.0000 0.78000  0.88347  0.45093  Biso   1.000  C
  C213     1.0000 0.11653  0.89652  0.45093  Biso   1.000  C
  C214     1.0000 0.77014  0.55334  0.78427  Biso   1.000  C
  C215     1.0000 0.44666  0.21681  0.78427  Biso   1.000  C
  C216     1.0000 0.78319  0.22986  0.78427  Biso   1.000  C
  H91      1.0000 0.54580  0.10020  0.91280  Biso   1.000  H
  H92      1.0000 0.89980  0.44560  0.91280  Biso   1.000  H
  H93      1.0000 0.55440  0.45420  0.91280  Biso   1.000  H
  H94      1.0000 0.21247  0.43353  0.24613  Biso   1.000  H
  H95      1.0000 0.56647  0.77893  0.24613  Biso   1.000  H
  H96      1.0000 0.22107  0.78753  0.24613  Biso   1.000  H
  H97      1.0000 0.87913  0.76687  0.57947  Biso   1.000  H
  H98      1.0000 0.23313  0.11227  0.57947  Biso   1.000  H
  H99      1.0000 0.88773  0.12087  0.57947  Biso   1.000  H
  H100     1.0000 0.45420  0.89980  0.08720  Biso   1.000  H
  H101     1.0000 0.10020  0.55440  0.08720  Biso   1.000  H
  H102     1.0000 0.44560  0.54580  0.08720  Biso   1.000  H
  H103     1.0000 0.12087  0.23313  0.42053  Biso   1.000  H
  H104     1.0000 0.76687  0.88773  0.42053  Biso   1.000  H
  H105     1.0000 0.11227  0.87913  0.42053  Biso   1.000  H
  H106     1.0000 0.78753  0.56647  0.75387  Biso   1.000  H
  H107     1.0000 0.43353  0.22107  0.75387  Biso   1.000  H
  H108     1.0000 0.77893  0.21247  0.75387  Biso   1.000  H
  C217     1.0000 0.71752  0.18202  0.98680  Biso   1.000  C
  C218     1.0000 0.81798  0.53550  0.98680  Biso   1.000  C
  C219     1.0000 0.46450  0.28248  0.98680  Biso   1.000  C
  C220     1.0000 0.38419  0.51535  0.32013  Biso   1.000  C
  C221     1.0000 0.48465  0.86883  0.32013  Biso   1.000  C
  C222     1.0000 0.13117  0.61581  0.32013  Biso   1.000  C
  C223     1.0000 0.05085  0.84869  0.65347  Biso   1.000  C
  C224     1.0000 0.15131  0.20217  0.65347  Biso   1.000  C
  C225     1.0000 0.79783  0.94915  0.65347  Biso   1.000  C
  C226     1.0000 0.28248  0.81798  0.01320  Biso   1.000  C
  C227     1.0000 0.18202  0.46450  0.01320  Biso   1.000  C
  C228     1.0000 0.53550  0.71752  0.01320  Biso   1.000  C
  C229     1.0000 0.94915  0.15131  0.34653  Biso   1.000  C
  C230     1.0000 0.84869  0.79783  0.34653  Biso   1.000  C
  C231     1.0000 0.20217  0.05085  0.34653  Biso   1.000  C
  C232     1.0000 0.61581  0.48465  0.67987  Biso   1.000  C
  C233     1.0000 0.51535  0.13117  0.67987  Biso   1.000  C
  C234     1.0000 0.86883  0.38419  0.67987  Biso   1.000  C
  H109     1.0000 0.73790  0.18690  0.00960  Biso   1.000  H
  H110     1.0000 0.81310  0.55100  0.00960  Biso   1.000  H
  H111     1.0000 0.44900  0.26210  0.00960  Biso   1.000  H
  H112     1.0000 0.40457  0.52023  0.34293  Biso   1.000  H
  H113     1.0000 0.47977  0.88433  0.34293  Biso   1.000  H
  H114     1.0000 0.11567  0.59543  0.34293  Biso   1.000  H
  H115     1.0000 0.07123  0.85357  0.67627  Biso   1.000  H
  H116     1.0000 0.14643  0.21767  0.67627  Biso   1.000  H
  H117     1.0000 0.78233  0.92877  0.67627  Biso   1.000  H
  H118     1.0000 0.26210  0.81310  0.99040  Biso   1.000  H
  H119     1.0000 0.18690  0.44900  0.99040  Biso   1.000  H
  H120     1.0000 0.55100  0.73790  0.99040  Biso   1.000  H
  H121     1.0000 0.92877  0.14643  0.32373  Biso   1.000  H
  H122     1.0000 0.85357  0.78233  0.32373  Biso   1.000  H
  H123     1.0000 0.21767  0.07123  0.32373  Biso   1.000  H
  H124     1.0000 0.59543  0.47977  0.65707  Biso   1.000  H
  H125     1.0000 0.52023  0.11567  0.65707  Biso   1.000  H
  H126     1.0000 0.88433  0.40457  0.65707  Biso   1.000  H
  C235     1.0000 0.80684  0.18385  0.93610  Biso   1.000  C
  C236     1.0000 0.81615  0.62299  0.93610  Biso   1.000  C
  C237     1.0000 0.37701  0.19316  0.93610  Biso   1.000  C
  C238     1.0000 0.47351  0.51718  0.26943  Biso   1.000  C
  C239     1.0000 0.48282  0.95632  0.26943  Biso   1.000  C
  C240     1.0000 0.04368  0.52649  0.26943  Biso   1.000  C
  C241     1.0000 0.14017  0.85052  0.60277  Biso   1.000  C
  C242     1.0000 0.14948  0.28966  0.60277  Biso   1.000  C
  C243     1.0000 0.71034  0.85983  0.60277  Biso   1.000  C
  C244     1.0000 0.19316  0.81615  0.06390  Biso   1.000  C
  C245     1.0000 0.18385  0.37701  0.06390  Biso   1.000  C
  C246     1.0000 0.62299  0.80684  0.06390  Biso   1.000  C
  C247     1.0000 0.85983  0.14948  0.39723  Biso   1.000  C
  C248     1.0000 0.85052  0.71034  0.39723  Biso   1.000  C
  C249     1.0000 0.28966  0.14017  0.39723  Biso   1.000  C
  C250     1.0000 0.52649  0.48282  0.73057  Biso   1.000  C
  C251     1.0000 0.51718  0.04368  0.73057  Biso   1.000  C
  C252     1.0000 0.95632  0.47351  0.73057  Biso   1.000  C
  C253     1.0000 0.66703  0.17846  0.96260  Biso   1.000  C
  C254     1.0000 0.82154  0.48857  0.96260  Biso   1.000  C
  C255     1.0000 0.51143  0.33297  0.96260  Biso   1.000  C
  C256     1.0000 0.33370  0.51179  0.29593  Biso   1.000  C
  C257     1.0000 0.48821  0.82190  0.29593  Biso   1.000  C
  C258     1.0000 0.17810  0.66630  0.29593  Biso   1.000  C
  C259     1.0000 0.00036  0.84513  0.62927  Biso   1.000  C
  C260     1.0000 0.15487  0.15524  0.62927  Biso   1.000  C
  C261     1.0000 0.84476  0.99964  0.62927  Biso   1.000  C
  C262     1.0000 0.33297  0.82154  0.03740  Biso   1.000  C
  C263     1.0000 0.17846  0.51143  0.03740  Biso   1.000  C
  C264     1.0000 0.48857  0.66703  0.03740  Biso   1.000  C
  C265     1.0000 0.99964  0.15487  0.37073  Biso   1.000  C
  C266     1.0000 0.84513  0.84476  0.37073  Biso   1.000  C
  C267     1.0000 0.15524  0.00036  0.37073  Biso   1.000  C
  C268     1.0000 0.66630  0.48821  0.70407  Biso   1.000  C
  C269     1.0000 0.51179  0.17810  0.70407  Biso   1.000  C
  C270     1.0000 0.82190  0.33370  0.70407  Biso   1.000  C
  H127     1.0000 0.64640  0.18000  0.96330  Biso   1.000  H
  H128     1.0000 0.82000  0.46640  0.96330  Biso   1.000  H
  H129     1.0000 0.53360  0.35360  0.96330  Biso   1.000  H
  H130     1.0000 0.31307  0.51333  0.29663  Biso   1.000  H
  H131     1.0000 0.48667  0.79973  0.29663  Biso   1.000  H
  H132     1.0000 0.20027  0.68693  0.29663  Biso   1.000  H
  H133     1.0000 0.97973  0.84667  0.62997  Biso   1.000  H
  H134     1.0000 0.15333  0.13307  0.62997  Biso   1.000  H
  H135     1.0000 0.86693  0.02027  0.62997  Biso   1.000  H
  H136     1.0000 0.35360  0.82000  0.03670  Biso   1.000  H
  H137     1.0000 0.18000  0.53360  0.03670  Biso   1.000  H
  H138     1.0000 0.46640  0.64640  0.03670  Biso   1.000  H
  H139     1.0000 0.02027  0.15333  0.37003  Biso   1.000  H
  H140     1.0000 0.84667  0.86693  0.37003  Biso   1.000  H
  H141     1.0000 0.13307  0.97973  0.37003  Biso   1.000  H
  H142     1.0000 0.68693  0.48667  0.70337  Biso   1.000  H
  H143     1.0000 0.51333  0.20027  0.70337  Biso   1.000  H
  H144     1.0000 0.79973  0.31307  0.70337  Biso   1.000  H
  C271     1.0000 0.57837  0.14209  0.78830  Biso   1.000  C
  C272     1.0000 0.85791  0.43628  0.78830  Biso   1.000  C
  C273     1.0000 0.56372  0.42163  0.78830  Biso   1.000  C
  C274     1.0000 0.24504  0.47542  0.12163  Biso   1.000  C
  C275     1.0000 0.52458  0.76961  0.12163  Biso   1.000  C
  C276     1.0000 0.23039  0.75496  0.12163  Biso   1.000  C
  C277     1.0000 0.91170  0.80876  0.45497  Biso   1.000  C
  C278     1.0000 0.19124  0.10295  0.45497  Biso   1.000  C
  C279     1.0000 0.89705  0.08830  0.45497  Biso   1.000  C
  C280     1.0000 0.42163  0.85791  0.21170  Biso   1.000  C
  C281     1.0000 0.14209  0.56372  0.21170  Biso   1.000  C
  C282     1.0000 0.43628  0.57837  0.21170  Biso   1.000  C
  C283     1.0000 0.08830  0.19124  0.54503  Biso   1.000  C
  C284     1.0000 0.80876  0.89705  0.54503  Biso   1.000  C
  C285     1.0000 0.10295  0.91170  0.54503  Biso   1.000  C
  C286     1.0000 0.75496  0.52458  0.87837  Biso   1.000  C
  C287     1.0000 0.47542  0.23039  0.87837  Biso   1.000  C
  C288     1.0000 0.76961  0.24504  0.87837  Biso   1.000  C
  H145     1.0000 0.57180  0.14960  0.75150  Biso   1.000  H
  H146     1.0000 0.85040  0.42220  0.75150  Biso   1.000  H
  H147     1.0000 0.57780  0.42820  0.75150  Biso   1.000  H
  H148     1.0000 0.23847  0.48293  0.08483  Biso   1.000  H
  H149     1.0000 0.51707  0.75553  0.08483  Biso   1.000  H
  H150     1.0000 0.24447  0.76153  0.08483  Biso   1.000  H
  H151     1.0000 0.90513  0.81627  0.41817  Biso   1.000  H
  H152     1.0000 0.18373  0.08887  0.41817  Biso   1.000  H
  H153     1.0000 0.91113  0.09487  0.41817  Biso   1.000  H
  H154     1.0000 0.42820  0.85040  0.24850  Biso   1.000  H
  H155     1.0000 0.14960  0.57780  0.24850  Biso   1.000  H
  H156     1.0000 0.42220  0.57180  0.24850  Biso   1.000  H
  H157     1.0000 0.09487  0.18373  0.58183  Biso   1.000  H
  H158     1.0000 0.81627  0.91113  0.58183  Biso   1.000  H
  H159     1.0000 0.08887  0.90513  0.58183  Biso   1.000  H
  H160     1.0000 0.76153  0.51707  0.91517  Biso   1.000  H
  H161     1.0000 0.48293  0.24447  0.91517  Biso   1.000  H
  H162     1.0000 0.75553  0.23847  0.91517  Biso   1.000  H
  C289     1.0000 0.69185  0.19004  0.00800  Biso   1.000  C
  C290     1.0000 0.80996  0.50181  0.00800  Biso   1.000  C
  C291     1.0000 0.49819  0.30815  0.00800  Biso   1.000  C
  C292     1.0000 0.35852  0.52337  0.34133  Biso   1.000  C
  C293     1.0000 0.47663  0.83514  0.34133  Biso   1.000  C
  C294     1.0000 0.16486  0.64148  0.34133  Biso   1.000  C
  C295     1.0000 0.02518  0.85671  0.67467  Biso   1.000  C
  C296     1.0000 0.14329  0.16848  0.67467  Biso   1.000  C
  C297     1.0000 0.83152  0.97482  0.67467  Biso   1.000  C
  C298     1.0000 0.30815  0.80996  0.99200  Biso   1.000  C
  C299     1.0000 0.19004  0.49819  0.99200  Biso   1.000  C
  C300     1.0000 0.50181  0.69185  0.99200  Biso   1.000  C
  C301     1.0000 0.97482  0.14329  0.32533  Biso   1.000  C
  C302     1.0000 0.85671  0.83152  0.32533  Biso   1.000  C
  C303     1.0000 0.16848  0.02518  0.32533  Biso   1.000  C
  C304     1.0000 0.64148  0.47663  0.65867  Biso   1.000  C
  C305     1.0000 0.52337  0.16486  0.65867  Biso   1.000  C
  C306     1.0000 0.83514  0.35852  0.65867  Biso   1.000  C
  H163     1.0000 0.69200  0.20120  0.04620  Biso   1.000  H
  H164     1.0000 0.79880  0.49080  0.04620  Biso   1.000  H
  H165     1.0000 0.50920  0.30800  0.04620  Biso   1.000  H
  H166     1.0000 0.35867  0.53453  0.37953  Biso   1.000  H
  H167     1.0000 0.46547  0.82413  0.37953  Biso   1.000  H
  H168     1.0000 0.17587  0.64133  0.37953  Biso   1.000  H
  H169     1.0000 0.02533  0.86787  0.71287  Biso   1.000  H
  H170     1.0000 0.13213  0.15747  0.71287  Biso   1.000  H
  H171     1.0000 0.84253  0.97467  0.71287  Biso   1.000  H
  H172     1.0000 0.30800  0.79880  0.95380  Biso   1.000  H
  H173     1.0000 0.20120  0.50920  0.95380  Biso   1.000  H
  H174     1.0000 0.49080  0.69200  0.95380  Biso   1.000  H
  H175     1.0000 0.97467  0.13213  0.28713  Biso   1.000  H
  H176     1.0000 0.86787  0.84253  0.28713  Biso   1.000  H
  H177     1.0000 0.15747  0.02533  0.28713  Biso   1.000  H
  H178     1.0000 0.64133  0.46547  0.62047  Biso   1.000  H
  H179     1.0000 0.53453  0.17587  0.62047  Biso   1.000  H
  H180     1.0000 0.82413  0.35867  0.62047  Biso   1.000  H
  C307     1.0000 0.82637  0.16631  0.77050  Biso   1.000  C
  C308     1.0000 0.83369  0.66006  0.77050  Biso   1.000  C
  C309     1.0000 0.33994  0.17363  0.77050  Biso   1.000  C
  C310     1.0000 0.49304  0.49964  0.10383  Biso   1.000  C
  C311     1.0000 0.50036  0.99339  0.10383  Biso   1.000  C
  C312     1.0000 0.00661  0.50696  0.10383  Biso   1.000  C
  C313     1.0000 0.15970  0.83298  0.43717  Biso   1.000  C
  C314     1.0000 0.16702  0.32673  0.43717  Biso   1.000  C
  C315     1.0000 0.67327  0.84030  0.43717  Biso   1.000  C
  C316     1.0000 0.17363  0.83369  0.22950  Biso   1.000  C
  C317     1.0000 0.16631  0.33994  0.22950  Biso   1.000  C
  C318     1.0000 0.66006  0.82637  0.22950  Biso   1.000  C
  C319     1.0000 0.84030  0.16702  0.56283  Biso   1.000  C
  C320     1.0000 0.83298  0.67327  0.56283  Biso   1.000  C
  C321     1.0000 0.32673  0.15970  0.56283  Biso   1.000  C
  C322     1.0000 0.50696  0.50036  0.89617  Biso   1.000  C
  C323     1.0000 0.49964  0.00661  0.89617  Biso   1.000  C
  C324     1.0000 0.99339  0.49304  0.89617  Biso   1.000  C
  C325     1.0000 0.82402  0.18071  0.88330  Biso   1.000  C
  C326     1.0000 0.81929  0.64331  0.88330  Biso   1.000  C
  C327     1.0000 0.35669  0.17598  0.88330  Biso   1.000  C
  C328     1.0000 0.49069  0.51404  0.21663  Biso   1.000  C
  C329     1.0000 0.48596  0.97664  0.21663  Biso   1.000  C
  C330     1.0000 0.02336  0.50931  0.21663  Biso   1.000  C
  C331     1.0000 0.15735  0.84738  0.54997  Biso   1.000  C
  C332     1.0000 0.15262  0.30998  0.54997  Biso   1.000  C
  C333     1.0000 0.69002  0.84265  0.54997  Biso   1.000  C
  C334     1.0000 0.17598  0.81929  0.11670  Biso   1.000  C
  C335     1.0000 0.18071  0.35669  0.11670  Biso   1.000  C
  C336     1.0000 0.64331  0.82402  0.11670  Biso   1.000  C
  C337     1.0000 0.84265  0.15262  0.45003  Biso   1.000  C
  C338     1.0000 0.84738  0.69002  0.45003  Biso   1.000  C
  C339     1.0000 0.30998  0.15735  0.45003  Biso   1.000  C
  C340     1.0000 0.50931  0.48596  0.78337  Biso   1.000  C
  C341     1.0000 0.51404  0.02336  0.78337  Biso   1.000  C
  C342     1.0000 0.97664  0.49069  0.78337  Biso   1.000  C
  H181     1.0000 0.84800  0.18740  0.88590  Biso   1.000  H
  H182     1.0000 0.81260  0.66060  0.88590  Biso   1.000  H
  H183     1.0000 0.33940  0.15200  0.88590  Biso   1.000  H
  H184     1.0000 0.51467  0.52073  0.21923  Biso   1.000  H
  H185     1.0000 0.47927  0.99393  0.21923  Biso   1.000  H
  H186     1.0000 0.00607  0.48533  0.21923  Biso   1.000  H
  H187     1.0000 0.18133  0.85407  0.55257  Biso   1.000  H
  H188     1.0000 0.14593  0.32727  0.55257  Biso   1.000  H
  H189     1.0000 0.67273  0.81867  0.55257  Biso   1.000  H
  H190     1.0000 0.15200  0.81260  0.11410  Biso   1.000  H
  H191     1.0000 0.18740  0.33940  0.11410  Biso   1.000  H
  H192     1.0000 0.66060  0.84800  0.11410  Biso   1.000  H
  H193     1.0000 0.81867  0.14593  0.44743  Biso   1.000  H
  H194     1.0000 0.85407  0.67273  0.44743  Biso   1.000  H
  H195     1.0000 0.32727  0.18133  0.44743  Biso   1.000  H
  H196     1.0000 0.48533  0.47927  0.78077  Biso   1.000  H
  H197     1.0000 0.52073  0.00607  0.78077  Biso   1.000  H
  H198     1.0000 0.99393  0.51467  0.78077  Biso   1.000  H
  F1       1.0000 0.80883  0.18728  0.04736  Biso   1.000  F
  F2       1.0000 0.81272  0.62155  0.04736  Biso   1.000  F
  F3       1.0000 0.37845  0.19117  0.04736  Biso   1.000  F
  F4       1.0000 0.47550  0.52061  0.38069  Biso   1.000  F
  F5       1.0000 0.47939  0.95488  0.38069  Biso   1.000  F
  F6       1.0000 0.04512  0.52450  0.38069  Biso   1.000  F
  F7       1.0000 0.14216  0.85395  0.71403  Biso   1.000  F
  F8       1.0000 0.14605  0.28822  0.71403  Biso   1.000  F
  F9       1.0000 0.71178  0.85784  0.71403  Biso   1.000  F
  F10      1.0000 0.19117  0.81272  0.95264  Biso   1.000  F
  F11      1.0000 0.18728  0.37845  0.95264  Biso   1.000  F
  F12      1.0000 0.62155  0.80883  0.95264  Biso   1.000  F
  F13      1.0000 0.85784  0.14605  0.28597  Biso   1.000  F
  F14      1.0000 0.85395  0.71178  0.28597  Biso   1.000  F
  F15      1.0000 0.28822  0.14216  0.28597  Biso   1.000  F
  F16      1.0000 0.52450  0.47939  0.61931  Biso   1.000  F
  F17      1.0000 0.52061  0.04512  0.61931  Biso   1.000  F
  F18      1.0000 0.95488  0.47550  0.61931  Biso   1.000  F
  F19      1.0000 0.84523  0.23263  0.99640  Biso   1.000  F
  F20      1.0000 0.76737  0.61260  0.99640  Biso   1.000  F
  F21      1.0000 0.38740  0.15477  0.99640  Biso   1.000  F
  F22      1.0000 0.51190  0.56596  0.32973  Biso   1.000  F
  F23      1.0000 0.43404  0.94593  0.32973  Biso   1.000  F
  F24      1.0000 0.05407  0.48810  0.32973  Biso   1.000  F
  F25      1.0000 0.17856  0.89930  0.66307  Biso   1.000  F
  F26      1.0000 0.10070  0.27927  0.66307  Biso   1.000  F
  F27      1.0000 0.72073  0.82144  0.66307  Biso   1.000  F
  F28      1.0000 0.15477  0.76737  0.00360  Biso   1.000  F
  F29      1.0000 0.23263  0.38740  0.00360  Biso   1.000  F
  F30      1.0000 0.61260  0.84523  0.00360  Biso   1.000  F
  F31      1.0000 0.82144  0.10070  0.33693  Biso   1.000  F
  F32      1.0000 0.89930  0.72073  0.33693  Biso   1.000  F
  F33      1.0000 0.27927  0.17856  0.33693  Biso   1.000  F
  F34      1.0000 0.48810  0.43404  0.67027  Biso   1.000  F
  F35      1.0000 0.56596  0.05407  0.67027  Biso   1.000  F
  F36      1.0000 0.94593  0.51190  0.67027  Biso   1.000  F
  F37      1.0000 0.80957  0.13622  0.74150  Biso   1.000  F
  F38      1.0000 0.86378  0.67335  0.74150  Biso   1.000  F
  F39      1.0000 0.32665  0.19043  0.74150  Biso   1.000  F
  F40      1.0000 0.47624  0.46955  0.07483  Biso   1.000  F
  F41      1.0000 0.53045  0.00668  0.07483  Biso   1.000  F
  F42      1.0000 0.99332  0.52376  0.07483  Biso   1.000  F
  F43      1.0000 0.14290  0.80289  0.40817  Biso   1.000  F
  F44      1.0000 0.19711  0.34002  0.40817  Biso   1.000  F
  F45      1.0000 0.65998  0.85710  0.40817  Biso   1.000  F
  F46      1.0000 0.19043  0.86378  0.25850  Biso   1.000  F
  F47      1.0000 0.13622  0.32665  0.25850  Biso   1.000  F
  F48      1.0000 0.67335  0.80957  0.25850  Biso   1.000  F
  F49      1.0000 0.85710  0.19711  0.59183  Biso   1.000  F
  F50      1.0000 0.80289  0.65998  0.59183  Biso   1.000  F
  F51      1.0000 0.34002  0.14290  0.59183  Biso   1.000  F
  F52      1.0000 0.52376  0.53045  0.92517  Biso   1.000  F
  F53      1.0000 0.46955  0.99332  0.92517  Biso   1.000  F
  F54      1.0000 0.00668  0.47624  0.92517  Biso   1.000  F
  F55      1.0000 0.85837  0.17287  0.78340  Biso   1.000  F
  F56      1.0000 0.82713  0.68550  0.78340  Biso   1.000  F
  F57      1.0000 0.31450  0.14163  0.78340  Biso   1.000  F
  F58      1.0000 0.52504  0.50620  0.11673  Biso   1.000  F
  F59      1.0000 0.49380  0.01883  0.11673  Biso   1.000  F
  F60      1.0000 0.98117  0.47496  0.11673  Biso   1.000  F
  F61      1.0000 0.19170  0.83954  0.45007  Biso   1.000  F
  F62      1.0000 0.16046  0.35217  0.45007  Biso   1.000  F
  F63      1.0000 0.64783  0.80830  0.45007  Biso   1.000  F
  F64      1.0000 0.14163  0.82713  0.21660  Biso   1.000  F
  F65      1.0000 0.17287  0.31450  0.21660  Biso   1.000  F
  F66      1.0000 0.68550  0.85837  0.21660  Biso   1.000  F
  F67      1.0000 0.80830  0.16046  0.54993  Biso   1.000  F
  F68      1.0000 0.83954  0.64783  0.54993  Biso   1.000  F
  F69      1.0000 0.35217  0.19170  0.54993  Biso   1.000  F
  F70      1.0000 0.47496  0.49380  0.88327  Biso   1.000  F
  F71      1.0000 0.50620  0.98117  0.88327  Biso   1.000  F
  F72      1.0000 0.01883  0.52504  0.88327  Biso   1.000  F
  F73      1.0000 0.85252  0.18839  0.00210  Biso   1.000  F
  F74      1.0000 0.81161  0.66413  0.00210  Biso   1.000  F
  F75      1.0000 0.33587  0.14748  0.00210  Biso   1.000  F
  F76      1.0000 0.51919  0.52172  0.33543  Biso   1.000  F
  F77      1.0000 0.47828  0.99746  0.33543  Biso   1.000  F
  F78      1.0000 0.00254  0.48081  0.33543  Biso   1.000  F
  F79      1.0000 0.18585  0.85506  0.66877  Biso   1.000  F
  F80      1.0000 0.14494  0.33080  0.66877  Biso   1.000  F
  F81      1.0000 0.66920  0.81415  0.66877  Biso   1.000  F
  F82      1.0000 0.14748  0.81161  0.99790  Biso   1.000  F
  F83      1.0000 0.18839  0.33587  0.99790  Biso   1.000  F
  F84      1.0000 0.66413  0.85252  0.99790  Biso   1.000  F
  F85      1.0000 0.81415  0.14494  0.33123  Biso   1.000  F
  F86      1.0000 0.85506  0.66920  0.33123  Biso   1.000  F
  F87      1.0000 0.33080  0.18585  0.33123  Biso   1.000  F
  F88      1.0000 0.48081  0.47828  0.66457  Biso   1.000  F
  F89      1.0000 0.52172  0.00254  0.66457  Biso   1.000  F
  F90      1.0000 0.99746  0.51919  0.66457  Biso   1.000  F
  F91      1.0000 0.83004  0.19045  0.72820  Biso   1.000  F
  F92      1.0000 0.80955  0.63959  0.72820  Biso   1.000  F
  F93      1.0000 0.36041  0.16996  0.72820  Biso   1.000  F
  F94      1.0000 0.49671  0.52378  0.06153  Biso   1.000  F
  F95      1.0000 0.47622  0.97292  0.06153  Biso   1.000  F
  F96      1.0000 0.02708  0.50329  0.06153  Biso   1.000  F
  F97      1.0000 0.16337  0.85712  0.39487  Biso   1.000  F
  F98      1.0000 0.14288  0.30626  0.39487  Biso   1.000  F
  F99      1.0000 0.69374  0.83663  0.39487  Biso   1.000  F
  F100     1.0000 0.16996  0.80955  0.27180  Biso   1.000  F
  F101     1.0000 0.19045  0.36041  0.27180  Biso   1.000  F
  F102     1.0000 0.63959  0.83004  0.27180  Biso   1.000  F
  F103     1.0000 0.83663  0.14288  0.60513  Biso   1.000  F
  F104     1.0000 0.85712  0.69374  0.60513  Biso   1.000  F
  F105     1.0000 0.30626  0.16337  0.60513  Biso   1.000  F
  F106     1.0000 0.50329  0.47622  0.93847  Biso   1.000  F
  F107     1.0000 0.52378  0.02708  0.93847  Biso   1.000  F
  F108     1.0000 0.97292  0.49671  0.93847  Biso   1.000  F
  Cu19     1.0000 0.67424  0.09358  0.01059  Biso   1.000  Cu
  Cu20     1.0000 0.90642  0.58067  0.01059  Biso   1.000  Cu
  Cu21     1.0000 0.41933  0.32576  0.01059  Biso   1.000  Cu
  Cu22     1.0000 0.34091  0.42691  0.34392  Biso   1.000  Cu
  Cu23     1.0000 0.57309  0.91400  0.34392  Biso   1.000  Cu
  Cu24     1.0000 0.08600  0.65909  0.34392  Biso   1.000  Cu
  Cu25     1.0000 0.00758  0.76024  0.67726  Biso   1.000  Cu
  Cu26     1.0000 0.23976  0.24733  0.67726  Biso   1.000  Cu
  Cu27     1.0000 0.75267  0.99242  0.67726  Biso   1.000  Cu
  Cu28     1.0000 0.32576  0.90642  0.98941  Biso   1.000  Cu
  Cu29     1.0000 0.09358  0.41933  0.98941  Biso   1.000  Cu
  Cu30     1.0000 0.58067  0.67424  0.98941  Biso   1.000  Cu
  Cu31     1.0000 0.99242  0.23976  0.32274  Biso   1.000  Cu
  Cu32     1.0000 0.76024  0.75267  0.32274  Biso   1.000  Cu
  Cu33     1.0000 0.24733  0.00758  0.32274  Biso   1.000  Cu
  Cu34     1.0000 0.65909  0.57309  0.65608  Biso   1.000  Cu
  Cu35     1.0000 0.42691  0.08600  0.65608  Biso   1.000  Cu
  Cu36     1.0000 0.91400  0.34091  0.65608  Biso   1.000  Cu
  N55      1.0000 0.65029  0.06914  0.93390  Biso   1.000  N
  N56      1.0000 0.93086  0.58115  0.93390  Biso   1.000  N
  N57      1.0000 0.41885  0.34971  0.93390  Biso   1.000  N
  N58      1.0000 0.31696  0.40247  0.26723  Biso   1.000  N
  N59      1.0000 0.59753  0.91448  0.26723  Biso   1.000  N
  N60      1.0000 0.08552  0.68304  0.26723  Biso   1.000  N
  N61      1.0000 0.98362  0.73581  0.60057  Biso   1.000  N
  N62      1.0000 0.26419  0.24782  0.60057  Biso   1.000  N
  N63      1.0000 0.75218  0.01638  0.60057  Biso   1.000  N
  N64      1.0000 0.34971  0.93086  0.06610  Biso   1.000  N
  N65      1.0000 0.06914  0.41885  0.06610  Biso   1.000  N
  N66      1.0000 0.58115  0.65029  0.06610  Biso   1.000  N
  N67      1.0000 0.01638  0.26419  0.39943  Biso   1.000  N
  N68      1.0000 0.73581  0.75218  0.39943  Biso   1.000  N
  N69      1.0000 0.24782  0.98362  0.39943  Biso   1.000  N
  N70      1.0000 0.68304  0.59753  0.73277  Biso   1.000  N
  N71      1.0000 0.40247  0.08552  0.73277  Biso   1.000  N
  N72      1.0000 0.91448  0.31696  0.73277  Biso   1.000  N
  O37      1.0000 0.63422  0.10120  0.02986  Biso   1.000  O
  O38      1.0000 0.89880  0.53302  0.02986  Biso   1.000  O
  O39      1.0000 0.46698  0.36578  0.02986  Biso   1.000  O
  O40      1.0000 0.30089  0.43453  0.36319  Biso   1.000  O
  O41      1.0000 0.56547  0.86635  0.36319  Biso   1.000  O
  O42      1.0000 0.13365  0.69911  0.36319  Biso   1.000  O
  O43      1.0000 0.96755  0.76787  0.69653  Biso   1.000  O
  O44      1.0000 0.23213  0.19969  0.69653  Biso   1.000  O
  O45      1.0000 0.80031  0.03245  0.69653  Biso   1.000  O
  O46      1.0000 0.36578  0.89880  0.97014  Biso   1.000  O
  O47      1.0000 0.10120  0.46698  0.97014  Biso   1.000  O
  O48      1.0000 0.53302  0.63422  0.97014  Biso   1.000  O
  O49      1.0000 0.03245  0.23213  0.30347  Biso   1.000  O
  O50      1.0000 0.76787  0.80031  0.30347  Biso   1.000  O
  O51      1.0000 0.19969  0.96755  0.30347  Biso   1.000  O
  O52      1.0000 0.69911  0.56547  0.63681  Biso   1.000  O
  O53      1.0000 0.43453  0.13365  0.63681  Biso   1.000  O
  O54      1.0000 0.86635  0.30089  0.63681  Biso   1.000  O
  O55      1.0000 0.69902  0.12279  0.08504  Biso   1.000  O
  O56      1.0000 0.87721  0.57623  0.08504  Biso   1.000  O
  O57      1.0000 0.42377  0.30098  0.08504  Biso   1.000  O
  O58      1.0000 0.36569  0.45612  0.41837  Biso   1.000  O
  O59      1.0000 0.54388  0.90956  0.41837  Biso   1.000  O
  O60      1.0000 0.09044  0.63431  0.41837  Biso   1.000  O
  O61      1.0000 0.03235  0.78946  0.75171  Biso   1.000  O
  O62      1.0000 0.21054  0.24290  0.75171  Biso   1.000  O
  O63      1.0000 0.75710  0.96765  0.75171  Biso   1.000  O
  O64      1.0000 0.30098  0.87721  0.91496  Biso   1.000  O
  O65      1.0000 0.12279  0.42377  0.91496  Biso   1.000  O
  O66      1.0000 0.57623  0.69902  0.91496  Biso   1.000  O
  O67      1.0000 0.96765  0.21054  0.24829  Biso   1.000  O
  O68      1.0000 0.78946  0.75710  0.24829  Biso   1.000  O
  O69      1.0000 0.24290  0.03235  0.24829  Biso   1.000  O
  O70      1.0000 0.63431  0.54388  0.58163  Biso   1.000  O
  O71      1.0000 0.45612  0.09044  0.58163  Biso   1.000  O
  O72      1.0000 0.90956  0.36569  0.58163  Biso   1.000  O
  N73      1.0000 0.71760  0.09512  0.98610  Biso   1.000  N
  N74      1.0000 0.90488  0.62248  0.98610  Biso   1.000  N
  N75      1.0000 0.37752  0.28240  0.98610  Biso   1.000  N
  N76      1.0000 0.38427  0.42845  0.31943  Biso   1.000  N
  N77      1.0000 0.57155  0.95581  0.31943  Biso   1.000  N
  N78      1.0000 0.04419  0.61573  0.31943  Biso   1.000  N
  N79      1.0000 0.05093  0.76179  0.65277  Biso   1.000  N
  N80      1.0000 0.23821  0.28915  0.65277  Biso   1.000  N
  N81      1.0000 0.71085  0.94907  0.65277  Biso   1.000  N
  N82      1.0000 0.28240  0.90488  0.01390  Biso   1.000  N
  N83      1.0000 0.09512  0.37752  0.01390  Biso   1.000  N
  N84      1.0000 0.62248  0.71760  0.01390  Biso   1.000  N
  N85      1.0000 0.94907  0.23821  0.34723  Biso   1.000  N
  N86      1.0000 0.76179  0.71085  0.34723  Biso   1.000  N
  N87      1.0000 0.28915  0.05093  0.34723  Biso   1.000  N
  N88      1.0000 0.61573  0.57155  0.68057  Biso   1.000  N
  N89      1.0000 0.42845  0.04419  0.68057  Biso   1.000  N
  N90      1.0000 0.95581  0.38427  0.68057  Biso   1.000  N
  C343     1.0000 0.61772  0.05924  0.91690  Biso   1.000  C
  C344     1.0000 0.94076  0.55848  0.91690  Biso   1.000  C
  C345     1.0000 0.44152  0.38228  0.91690  Biso   1.000  C
  C346     1.0000 0.28439  0.39257  0.25023  Biso   1.000  C
  C347     1.0000 0.60743  0.89181  0.25023  Biso   1.000  C
  C348     1.0000 0.10819  0.71561  0.25023  Biso   1.000  C
  C349     1.0000 0.95105  0.72591  0.58357  Biso   1.000  C
  C350     1.0000 0.27409  0.22515  0.58357  Biso   1.000  C
  C351     1.0000 0.77485  0.04895  0.58357  Biso   1.000  C
  C352     1.0000 0.38228  0.94076  0.08310  Biso   1.000  C
  C353     1.0000 0.05924  0.44152  0.08310  Biso   1.000  C
  C354     1.0000 0.55848  0.61772  0.08310  Biso   1.000  C
  C355     1.0000 0.04895  0.27409  0.41643  Biso   1.000  C
  C356     1.0000 0.72591  0.77485  0.41643  Biso   1.000  C
  C357     1.0000 0.22515  0.95105  0.41643  Biso   1.000  C
  C358     1.0000 0.71561  0.60743  0.74977  Biso   1.000  C
  C359     1.0000 0.39257  0.10819  0.74977  Biso   1.000  C
  C360     1.0000 0.89181  0.28439  0.74977  Biso   1.000  C
  H199     1.0000 0.60180  0.06250  0.94210  Biso   1.000  H
  H200     1.0000 0.93750  0.53930  0.94210  Biso   1.000  H
  H201     1.0000 0.46070  0.39820  0.94210  Biso   1.000  H
  H202     1.0000 0.26847  0.39583  0.27543  Biso   1.000  H
  H203     1.0000 0.60417  0.87263  0.27543  Biso   1.000  H
  H204     1.0000 0.12737  0.73153  0.27543  Biso   1.000  H
  H205     1.0000 0.93513  0.72917  0.60877  Biso   1.000  H
  H206     1.0000 0.27083  0.20597  0.60877  Biso   1.000  H
  H207     1.0000 0.79403  0.06487  0.60877  Biso   1.000  H
  H208     1.0000 0.39820  0.93750  0.05790  Biso   1.000  H
  H209     1.0000 0.06250  0.46070  0.05790  Biso   1.000  H
  H210     1.0000 0.53930  0.60180  0.05790  Biso   1.000  H
  H211     1.0000 0.06487  0.27083  0.39123  Biso   1.000  H
  H212     1.0000 0.72917  0.79403  0.39123  Biso   1.000  H
  H213     1.0000 0.20597  0.93513  0.39123  Biso   1.000  H
  H214     1.0000 0.73153  0.60417  0.72457  Biso   1.000  H
  H215     1.0000 0.39583  0.12737  0.72457  Biso   1.000  H
  H216     1.0000 0.87263  0.26847  0.72457  Biso   1.000  H
  C361     1.0000 0.68918  0.01259  0.82140  Biso   1.000  C
  C362     1.0000 0.98741  0.67659  0.82140  Biso   1.000  C
  C363     1.0000 0.32341  0.31082  0.82140  Biso   1.000  C
  C364     1.0000 0.35585  0.34592  0.15473  Biso   1.000  C
  C365     1.0000 0.65408  0.00992  0.15473  Biso   1.000  C
  C366     1.0000 0.99008  0.64415  0.15473  Biso   1.000  C
  C367     1.0000 0.02251  0.67926  0.48807  Biso   1.000  C
  C368     1.0000 0.32074  0.34326  0.48807  Biso   1.000  C
  C369     1.0000 0.65674  0.97749  0.48807  Biso   1.000  C
  C370     1.0000 0.31082  0.98741  0.17860  Biso   1.000  C
  C371     1.0000 0.01259  0.32341  0.17860  Biso   1.000  C
  C372     1.0000 0.67659  0.68918  0.17860  Biso   1.000  C
  C373     1.0000 0.97749  0.32074  0.51193  Biso   1.000  C
  C374     1.0000 0.67926  0.65674  0.51193  Biso   1.000  C
  C375     1.0000 0.34326  0.02251  0.51193  Biso   1.000  C
  C376     1.0000 0.64415  0.65408  0.84527  Biso   1.000  C
  C377     1.0000 0.34592  0.99008  0.84527  Biso   1.000  C
  C378     1.0000 0.00992  0.35585  0.84527  Biso   1.000  C
  H217     1.0000 0.66800  0.99820  0.84320  Biso   1.000  H
  H218     1.0000 0.00180  0.66980  0.84320  Biso   1.000  H
  H219     1.0000 0.33020  0.33200  0.84320  Biso   1.000  H
  H220     1.0000 0.33467  0.33153  0.17653  Biso   1.000  H
  H221     1.0000 0.66847  0.00313  0.17653  Biso   1.000  H
  H222     1.0000 0.99687  0.66533  0.17653  Biso   1.000  H
  H223     1.0000 0.00133  0.66487  0.50987  Biso   1.000  H
  H224     1.0000 0.33513  0.33647  0.50987  Biso   1.000  H
  H225     1.0000 0.66353  0.99867  0.50987  Biso   1.000  H
  H226     1.0000 0.33200  0.00180  0.15680  Biso   1.000  H
  H227     1.0000 0.99820  0.33020  0.15680  Biso   1.000  H
  H228     1.0000 0.66980  0.66800  0.15680  Biso   1.000  H
  H229     1.0000 0.99867  0.33513  0.49013  Biso   1.000  H
  H230     1.0000 0.66487  0.66353  0.49013  Biso   1.000  H
  H231     1.0000 0.33647  0.00133  0.49013  Biso   1.000  H
  H232     1.0000 0.66533  0.66847  0.82347  Biso   1.000  H
  H233     1.0000 0.33153  0.99687  0.82347  Biso   1.000  H
  H234     1.0000 0.00313  0.33467  0.82347  Biso   1.000  H
  N91      1.0000 0.73049  0.01713  0.74400  Biso   1.000  N
  N92      1.0000 0.98287  0.71336  0.74400  Biso   1.000  N
  N93      1.0000 0.28664  0.26951  0.74400  Biso   1.000  N
  N94      1.0000 0.39716  0.35046  0.07733  Biso   1.000  N
  N95      1.0000 0.64954  0.04669  0.07733  Biso   1.000  N
  N96      1.0000 0.95331  0.60284  0.07733  Biso   1.000  N
  N97      1.0000 0.06382  0.68380  0.41067  Biso   1.000  N
  N98      1.0000 0.31620  0.38003  0.41067  Biso   1.000  N
  N99      1.0000 0.61997  0.93618  0.41067  Biso   1.000  N
  N100     1.0000 0.26951  0.98287  0.25600  Biso   1.000  N
  N101     1.0000 0.01713  0.28664  0.25600  Biso   1.000  N
  N102     1.0000 0.71336  0.73049  0.25600  Biso   1.000  N
  N103     1.0000 0.93618  0.31620  0.58933  Biso   1.000  N
  N104     1.0000 0.68380  0.61997  0.58933  Biso   1.000  N
  N105     1.0000 0.38003  0.06382  0.58933  Biso   1.000  N
  N106     1.0000 0.60284  0.64954  0.92267  Biso   1.000  N
  N107     1.0000 0.35046  0.95331  0.92267  Biso   1.000  N
  N108     1.0000 0.04669  0.39716  0.92267  Biso   1.000  N
  C379     1.0000 0.73759  0.06830  0.79630  Biso   1.000  C
  C380     1.0000 0.93170  0.66929  0.79630  Biso   1.000  C
  C381     1.0000 0.33071  0.26241  0.79630  Biso   1.000  C
  C382     1.0000 0.40426  0.40163  0.12963  Biso   1.000  C
  C383     1.0000 0.59837  0.00262  0.12963  Biso   1.000  C
  C384     1.0000 0.99738  0.59574  0.12963  Biso   1.000  C
  C385     1.0000 0.07092  0.73497  0.46297  Biso   1.000  C
  C386     1.0000 0.26503  0.33596  0.46297  Biso   1.000  C
  C387     1.0000 0.66404  0.92908  0.46297  Biso   1.000  C
  C388     1.0000 0.26241  0.93170  0.20370  Biso   1.000  C
  C389     1.0000 0.06830  0.33071  0.20370  Biso   1.000  C
  C390     1.0000 0.66929  0.73759  0.20370  Biso   1.000  C
  C391     1.0000 0.92908  0.26503  0.53703  Biso   1.000  C
  C392     1.0000 0.73497  0.66404  0.53703  Biso   1.000  C
  C393     1.0000 0.33596  0.07092  0.53703  Biso   1.000  C
  C394     1.0000 0.59574  0.59837  0.87037  Biso   1.000  C
  C395     1.0000 0.40163  0.99738  0.87037  Biso   1.000  C
  C396     1.0000 0.00262  0.40426  0.87037  Biso   1.000  C
  H235     1.0000 0.75060  0.09290  0.80140  Biso   1.000  H
  H236     1.0000 0.90710  0.65770  0.80140  Biso   1.000  H
  H237     1.0000 0.34230  0.24940  0.80140  Biso   1.000  H
  H238     1.0000 0.41727  0.42623  0.13473  Biso   1.000  H
  H239     1.0000 0.57377  0.99103  0.13473  Biso   1.000  H
  H240     1.0000 0.00897  0.58273  0.13473  Biso   1.000  H
  H241     1.0000 0.08393  0.75957  0.46807  Biso   1.000  H
  H242     1.0000 0.24043  0.32437  0.46807  Biso   1.000  H
  H243     1.0000 0.67563  0.91607  0.46807  Biso   1.000  H
  H244     1.0000 0.24940  0.90710  0.19860  Biso   1.000  H
  H245     1.0000 0.09290  0.34230  0.19860  Biso   1.000  H
  H246     1.0000 0.65770  0.75060  0.19860  Biso   1.000  H
  H247     1.0000 0.91607  0.24043  0.53193  Biso   1.000  H
  H248     1.0000 0.75957  0.67563  0.53193  Biso   1.000  H
  H249     1.0000 0.32437  0.08393  0.53193  Biso   1.000  H
  H250     1.0000 0.58273  0.57377  0.86527  Biso   1.000  H
  H251     1.0000 0.42623  0.00897  0.86527  Biso   1.000  H
  H252     1.0000 0.99103  0.41727  0.86527  Biso   1.000  H
  C397     1.0000 0.66441  0.05931  0.88500  Biso   1.000  C
  C398     1.0000 0.94069  0.60510  0.88500  Biso   1.000  C
  C399     1.0000 0.39490  0.33559  0.88500  Biso   1.000  C
  C400     1.0000 0.33108  0.39264  0.21833  Biso   1.000  C
  C401     1.0000 0.60736  0.93843  0.21833  Biso   1.000  C
  C402     1.0000 0.06157  0.66892  0.21833  Biso   1.000  C
  C403     1.0000 0.99774  0.72598  0.55167  Biso   1.000  C
  C404     1.0000 0.27402  0.27177  0.55167  Biso   1.000  C
  C405     1.0000 0.72823  0.00226  0.55167  Biso   1.000  C
  C406     1.0000 0.33559  0.94069  0.11500  Biso   1.000  C
  C407     1.0000 0.05931  0.39490  0.11500  Biso   1.000  C
  C408     1.0000 0.60510  0.66441  0.11500  Biso   1.000  C
  C409     1.0000 0.00226  0.27402  0.44833  Biso   1.000  C
  C410     1.0000 0.72598  0.72823  0.44833  Biso   1.000  C
  C411     1.0000 0.27177  0.99774  0.44833  Biso   1.000  C
  C412     1.0000 0.66892  0.60736  0.78167  Biso   1.000  C
  C413     1.0000 0.39264  0.06157  0.78167  Biso   1.000  C
  C414     1.0000 0.93843  0.33108  0.78167  Biso   1.000  C
  C415     1.0000 0.70797  0.04838  0.83270  Biso   1.000  C
  C416     1.0000 0.95162  0.65959  0.83270  Biso   1.000  C
  C417     1.0000 0.34041  0.29203  0.83270  Biso   1.000  C
  C418     1.0000 0.37464  0.38171  0.16603  Biso   1.000  C
  C419     1.0000 0.61829  0.99292  0.16603  Biso   1.000  C
  C420     1.0000 0.00708  0.62536  0.16603  Biso   1.000  C
  C421     1.0000 0.04130  0.71505  0.49937  Biso   1.000  C
  C422     1.0000 0.28495  0.32626  0.49937  Biso   1.000  C
  C423     1.0000 0.67374  0.95870  0.49937  Biso   1.000  C
  C424     1.0000 0.29203  0.95162  0.16730  Biso   1.000  C
  C425     1.0000 0.04838  0.34041  0.16730  Biso   1.000  C
  C426     1.0000 0.65959  0.70797  0.16730  Biso   1.000  C
  C427     1.0000 0.95870  0.28495  0.50063  Biso   1.000  C
  C428     1.0000 0.71505  0.67374  0.50063  Biso   1.000  C
  C429     1.0000 0.32626  0.04130  0.50063  Biso   1.000  C
  C430     1.0000 0.62536  0.61829  0.83397  Biso   1.000  C
  C431     1.0000 0.38171  0.00708  0.83397  Biso   1.000  C
  C432     1.0000 0.99292  0.37464  0.83397  Biso   1.000  C
  C433     1.0000 0.72355  0.08099  0.93200  Biso   1.000  C
  C434     1.0000 0.91901  0.64256  0.93200  Biso   1.000  C
  C435     1.0000 0.35744  0.27645  0.93200  Biso   1.000  C
  C436     1.0000 0.39022  0.41432  0.26533  Biso   1.000  C
  C437     1.0000 0.58568  0.97589  0.26533  Biso   1.000  C
  C438     1.0000 0.02411  0.60978  0.26533  Biso   1.000  C
  C439     1.0000 0.05688  0.74766  0.59867  Biso   1.000  C
  C440     1.0000 0.25234  0.30923  0.59867  Biso   1.000  C
  C441     1.0000 0.69077  0.94312  0.59867  Biso   1.000  C
  C442     1.0000 0.27645  0.91901  0.06800  Biso   1.000  C
  C443     1.0000 0.08099  0.35744  0.06800  Biso   1.000  C
  C444     1.0000 0.64256  0.72355  0.06800  Biso   1.000  C
  C445     1.0000 0.94312  0.25234  0.40133  Biso   1.000  C
  C446     1.0000 0.74766  0.69077  0.40133  Biso   1.000  C
  C447     1.0000 0.30923  0.05688  0.40133  Biso   1.000  C
  C448     1.0000 0.60978  0.58568  0.73467  Biso   1.000  C
  C449     1.0000 0.41432  0.02411  0.73467  Biso   1.000  C
  C450     1.0000 0.97589  0.39022  0.73467  Biso   1.000  C
  C451     1.0000 0.74671  0.10770  0.02080  Biso   1.000  C
  C452     1.0000 0.89230  0.63901  0.02080  Biso   1.000  C
  C453     1.0000 0.36099  0.25329  0.02080  Biso   1.000  C
  C454     1.0000 0.41338  0.44103  0.35413  Biso   1.000  C
  C455     1.0000 0.55897  0.97234  0.35413  Biso   1.000  C
  C456     1.0000 0.02766  0.58662  0.35413  Biso   1.000  C
  C457     1.0000 0.08004  0.77437  0.68747  Biso   1.000  C
  C458     1.0000 0.22563  0.30568  0.68747  Biso   1.000  C
  C459     1.0000 0.69432  0.91996  0.68747  Biso   1.000  C
  C460     1.0000 0.25329  0.89230  0.97920  Biso   1.000  C
  C461     1.0000 0.10770  0.36099  0.97920  Biso   1.000  C
  C462     1.0000 0.63901  0.74671  0.97920  Biso   1.000  C
  C463     1.0000 0.91996  0.22563  0.31253  Biso   1.000  C
  C464     1.0000 0.77437  0.69432  0.31253  Biso   1.000  C
  C465     1.0000 0.30568  0.08004  0.31253  Biso   1.000  C
  C466     1.0000 0.58662  0.55897  0.64587  Biso   1.000  C
  C467     1.0000 0.44103  0.02766  0.64587  Biso   1.000  C
  C468     1.0000 0.97234  0.41338  0.64587  Biso   1.000  C
  H253     1.0000 0.75000  0.11900  0.06010  Biso   1.000  H
  H254     1.0000 0.88100  0.63100  0.06010  Biso   1.000  H
  H255     1.0000 0.36900  0.25000  0.06010  Biso   1.000  H
  H256     1.0000 0.41667  0.45233  0.39343  Biso   1.000  H
  H257     1.0000 0.54767  0.96433  0.39343  Biso   1.000  H
  H258     1.0000 0.03567  0.58333  0.39343  Biso   1.000  H
  H259     1.0000 0.08333  0.78567  0.72677  Biso   1.000  H
  H260     1.0000 0.21433  0.29767  0.72677  Biso   1.000  H
  H261     1.0000 0.70233  0.91667  0.72677  Biso   1.000  H
  H262     1.0000 0.25000  0.88100  0.93990  Biso   1.000  H
  H263     1.0000 0.11900  0.36900  0.93990  Biso   1.000  H
  H264     1.0000 0.63100  0.75000  0.93990  Biso   1.000  H
  H265     1.0000 0.91667  0.21433  0.27323  Biso   1.000  H
  H266     1.0000 0.78567  0.70233  0.27323  Biso   1.000  H
  H267     1.0000 0.29767  0.08333  0.27323  Biso   1.000  H
  H268     1.0000 0.58333  0.54767  0.60657  Biso   1.000  H
  H269     1.0000 0.45233  0.03567  0.60657  Biso   1.000  H
  H270     1.0000 0.96433  0.41667  0.60657  Biso   1.000  H
  C469     1.0000 0.77171  0.10179  0.99080  Biso   1.000  C
  C470     1.0000 0.89821  0.66992  0.99080  Biso   1.000  C
  C471     1.0000 0.33008  0.22829  0.99080  Biso   1.000  C
  C472     1.0000 0.43838  0.43512  0.32413  Biso   1.000  C
  C473     1.0000 0.56488  0.00325  0.32413  Biso   1.000  C
  C474     1.0000 0.99675  0.56162  0.32413  Biso   1.000  C
  C475     1.0000 0.10504  0.76846  0.65747  Biso   1.000  C
  C476     1.0000 0.23154  0.33659  0.65747  Biso   1.000  C
  C477     1.0000 0.66341  0.89496  0.65747  Biso   1.000  C
  C478     1.0000 0.22829  0.89821  0.00920  Biso   1.000  C
  C479     1.0000 0.10179  0.33008  0.00920  Biso   1.000  C
  C480     1.0000 0.66992  0.77171  0.00920  Biso   1.000  C
  C481     1.0000 0.89496  0.23154  0.34253  Biso   1.000  C
  C482     1.0000 0.76846  0.66341  0.34253  Biso   1.000  C
  C483     1.0000 0.33659  0.10504  0.34253  Biso   1.000  C
  C484     1.0000 0.56162  0.56488  0.67587  Biso   1.000  C
  C485     1.0000 0.43512  0.99675  0.67587  Biso   1.000  C
  C486     1.0000 0.00325  0.43838  0.67587  Biso   1.000  C
  H271     1.0000 0.79430  0.10830  0.00600  Biso   1.000  H
  H272     1.0000 0.89170  0.68600  0.00600  Biso   1.000  H
  H273     1.0000 0.31400  0.20570  0.00600  Biso   1.000  H
  H274     1.0000 0.46097  0.44163  0.33933  Biso   1.000  H
  H275     1.0000 0.55837  0.01933  0.33933  Biso   1.000  H
  H276     1.0000 0.98067  0.53903  0.33933  Biso   1.000  H
  H277     1.0000 0.12763  0.77497  0.67267  Biso   1.000  H
  H278     1.0000 0.22503  0.35267  0.67267  Biso   1.000  H
  H279     1.0000 0.64733  0.87237  0.67267  Biso   1.000  H
  H280     1.0000 0.20570  0.89170  0.99400  Biso   1.000  H
  H281     1.0000 0.10830  0.31400  0.99400  Biso   1.000  H
  H282     1.0000 0.68600  0.79430  0.99400  Biso   1.000  H
  H283     1.0000 0.87237  0.22503  0.32733  Biso   1.000  H
  H284     1.0000 0.77497  0.64733  0.32733  Biso   1.000  H
  H285     1.0000 0.35267  0.12763  0.32733  Biso   1.000  H
  H286     1.0000 0.53903  0.55837  0.66067  Biso   1.000  H
  H287     1.0000 0.44163  0.98067  0.66067  Biso   1.000  H
  H288     1.0000 0.01933  0.46097  0.66067  Biso   1.000  H
  C487     1.0000 0.75726  0.08494  0.93580  Biso   1.000  C
  C488     1.0000 0.91506  0.67232  0.93580  Biso   1.000  C
  C489     1.0000 0.32768  0.24274  0.93580  Biso   1.000  C
  C490     1.0000 0.42393  0.41827  0.26913  Biso   1.000  C
  C491     1.0000 0.58173  0.00565  0.26913  Biso   1.000  C
  C492     1.0000 0.99435  0.57607  0.26913  Biso   1.000  C
  C493     1.0000 0.09059  0.75161  0.60247  Biso   1.000  C
  C494     1.0000 0.24839  0.33899  0.60247  Biso   1.000  C
  C495     1.0000 0.66101  0.90941  0.60247  Biso   1.000  C
  C496     1.0000 0.24274  0.91506  0.06420  Biso   1.000  C
  C497     1.0000 0.08494  0.32768  0.06420  Biso   1.000  C
  C498     1.0000 0.67232  0.75726  0.06420  Biso   1.000  C
  C499     1.0000 0.90941  0.24839  0.39753  Biso   1.000  C
  C500     1.0000 0.75161  0.66101  0.39753  Biso   1.000  C
  C501     1.0000 0.33899  0.09059  0.39753  Biso   1.000  C
  C502     1.0000 0.57607  0.58173  0.73087  Biso   1.000  C
  C503     1.0000 0.41827  0.99435  0.73087  Biso   1.000  C
  C504     1.0000 0.00565  0.42393  0.73087  Biso   1.000  C
  H289     1.0000 0.76790  0.07730  0.90570  Biso   1.000  H
  H290     1.0000 0.92270  0.69060  0.90570  Biso   1.000  H
  H291     1.0000 0.30940  0.23210  0.90570  Biso   1.000  H
  H292     1.0000 0.43457  0.41063  0.23903  Biso   1.000  H
  H293     1.0000 0.58937  0.02393  0.23903  Biso   1.000  H
  H294     1.0000 0.97607  0.56543  0.23903  Biso   1.000  H
  H295     1.0000 0.10123  0.74397  0.57237  Biso   1.000  H
  H296     1.0000 0.25603  0.35727  0.57237  Biso   1.000  H
  H297     1.0000 0.64273  0.89877  0.57237  Biso   1.000  H
  H298     1.0000 0.23210  0.92270  0.09430  Biso   1.000  H
  H299     1.0000 0.07730  0.30940  0.09430  Biso   1.000  H
  H300     1.0000 0.69060  0.76790  0.09430  Biso   1.000  H
  H301     1.0000 0.89877  0.25603  0.42763  Biso   1.000  H
  H302     1.0000 0.74397  0.64273  0.42763  Biso   1.000  H
  H303     1.0000 0.35727  0.10123  0.42763  Biso   1.000  H
  H304     1.0000 0.56543  0.58937  0.76097  Biso   1.000  H
  H305     1.0000 0.41063  0.97607  0.76097  Biso   1.000  H
  H306     1.0000 0.02393  0.43457  0.76097  Biso   1.000  H
  C505     1.0000 0.74774  0.05189  0.75270  Biso   1.000  C
  C506     1.0000 0.94811  0.69585  0.75270  Biso   1.000  C
  C507     1.0000 0.30415  0.25226  0.75270  Biso   1.000  C
  C508     1.0000 0.41441  0.38522  0.08603  Biso   1.000  C
  C509     1.0000 0.61478  0.02918  0.08603  Biso   1.000  C
  C510     1.0000 0.97082  0.58559  0.08603  Biso   1.000  C
  C511     1.0000 0.08107  0.71856  0.41937  Biso   1.000  C
  C512     1.0000 0.28144  0.36252  0.41937  Biso   1.000  C
  C513     1.0000 0.63748  0.91893  0.41937  Biso   1.000  C
  C514     1.0000 0.25226  0.94811  0.24730  Biso   1.000  C
  C515     1.0000 0.05189  0.30415  0.24730  Biso   1.000  C
  C516     1.0000 0.69585  0.74774  0.24730  Biso   1.000  C
  C517     1.0000 0.91893  0.28144  0.58063  Biso   1.000  C
  C518     1.0000 0.71856  0.63748  0.58063  Biso   1.000  C
  C519     1.0000 0.36252  0.08107  0.58063  Biso   1.000  C
  C520     1.0000 0.58559  0.61478  0.91397  Biso   1.000  C
  C521     1.0000 0.38522  0.97082  0.91397  Biso   1.000  C
  C522     1.0000 0.02918  0.41441  0.91397  Biso   1.000  C
  H307     1.0000 0.76780  0.06590  0.72780  Biso   1.000  H
  H308     1.0000 0.93410  0.70190  0.72780  Biso   1.000  H
  H309     1.0000 0.29810  0.23220  0.72780  Biso   1.000  H
  H310     1.0000 0.43447  0.39923  0.06113  Biso   1.000  H
  H311     1.0000 0.60077  0.03523  0.06113  Biso   1.000  H
  H312     1.0000 0.96477  0.56553  0.06113  Biso   1.000  H
  H313     1.0000 0.10113  0.73257  0.39447  Biso   1.000  H
  H314     1.0000 0.26743  0.36857  0.39447  Biso   1.000  H
  H315     1.0000 0.63143  0.89887  0.39447  Biso   1.000  H
  H316     1.0000 0.23220  0.93410  0.27220  Biso   1.000  H
  H317     1.0000 0.06590  0.29810  0.27220  Biso   1.000  H
  H318     1.0000 0.70190  0.76780  0.27220  Biso   1.000  H
  H319     1.0000 0.89887  0.26743  0.60553  Biso   1.000  H
  H320     1.0000 0.73257  0.63143  0.60553  Biso   1.000  H
  H321     1.0000 0.36857  0.10113  0.60553  Biso   1.000  H
  H322     1.0000 0.56553  0.60077  0.93887  Biso   1.000  H
  H323     1.0000 0.39923  0.96477  0.93887  Biso   1.000  H
  H324     1.0000 0.03523  0.43447  0.93887  Biso   1.000  H
  C523     1.0000 0.63903  0.04374  0.83690  Biso   1.000  C
  C524     1.0000 0.95626  0.59529  0.83690  Biso   1.000  C
  C525     1.0000 0.40471  0.36097  0.83690  Biso   1.000  C
  C526     1.0000 0.30570  0.37707  0.17023  Biso   1.000  C
  C527     1.0000 0.62293  0.92862  0.17023  Biso   1.000  C
  C528     1.0000 0.07138  0.69430  0.17023  Biso   1.000  C
  C529     1.0000 0.97236  0.71041  0.50357  Biso   1.000  C
  C530     1.0000 0.28959  0.26196  0.50357  Biso   1.000  C
  C531     1.0000 0.73804  0.02764  0.50357  Biso   1.000  C
  C532     1.0000 0.36097  0.95626  0.16310  Biso   1.000  C
  C533     1.0000 0.04374  0.40471  0.16310  Biso   1.000  C
  C534     1.0000 0.59529  0.63903  0.16310  Biso   1.000  C
  C535     1.0000 0.02764  0.28959  0.49643  Biso   1.000  C
  C536     1.0000 0.71041  0.73804  0.49643  Biso   1.000  C
  C537     1.0000 0.26196  0.97236  0.49643  Biso   1.000  C
  C538     1.0000 0.69430  0.62293  0.82977  Biso   1.000  C
  C539     1.0000 0.37707  0.07138  0.82977  Biso   1.000  C
  C540     1.0000 0.92862  0.30570  0.82977  Biso   1.000  C
  H325     1.0000 0.64190  0.03510  0.79780  Biso   1.000  H
  H326     1.0000 0.96490  0.60680  0.79780  Biso   1.000  H
  H327     1.0000 0.39320  0.35810  0.79780  Biso   1.000  H
  H328     1.0000 0.30857  0.36843  0.13113  Biso   1.000  H
  H329     1.0000 0.63157  0.94013  0.13113  Biso   1.000  H
  H330     1.0000 0.05987  0.69143  0.13113  Biso   1.000  H
  H331     1.0000 0.97523  0.70177  0.46447  Biso   1.000  H
  H332     1.0000 0.29823  0.27347  0.46447  Biso   1.000  H
  H333     1.0000 0.72653  0.02477  0.46447  Biso   1.000  H
  H334     1.0000 0.35810  0.96490  0.20220  Biso   1.000  H
  H335     1.0000 0.03510  0.39320  0.20220  Biso   1.000  H
  H336     1.0000 0.60680  0.64190  0.20220  Biso   1.000  H
  H337     1.0000 0.02477  0.29823  0.53553  Biso   1.000  H
  H338     1.0000 0.70177  0.72653  0.53553  Biso   1.000  H
  H339     1.0000 0.27347  0.97523  0.53553  Biso   1.000  H
  H340     1.0000 0.69143  0.63157  0.86887  Biso   1.000  H
  H341     1.0000 0.36843  0.05987  0.86887  Biso   1.000  H
  H342     1.0000 0.94013  0.30857  0.86887  Biso   1.000  H
  C541     1.0000 0.69804  0.06405  0.88510  Biso   1.000  C
  C542     1.0000 0.93595  0.63399  0.88510  Biso   1.000  C
  C543     1.0000 0.36601  0.30196  0.88510  Biso   1.000  C
  C544     1.0000 0.36471  0.39738  0.21843  Biso   1.000  C
  C545     1.0000 0.60262  0.96732  0.21843  Biso   1.000  C
  C546     1.0000 0.03268  0.63529  0.21843  Biso   1.000  C
  C547     1.0000 0.03137  0.73072  0.55177  Biso   1.000  C
  C548     1.0000 0.26928  0.30066  0.55177  Biso   1.000  C
  C549     1.0000 0.69934  0.96863  0.55177  Biso   1.000  C
  C550     1.0000 0.30196  0.93595  0.11490  Biso   1.000  C
  C551     1.0000 0.06405  0.36601  0.11490  Biso   1.000  C
  C552     1.0000 0.63399  0.69804  0.11490  Biso   1.000  C
  C553     1.0000 0.96863  0.26928  0.44823  Biso   1.000  C
  C554     1.0000 0.73072  0.69934  0.44823  Biso   1.000  C
  C555     1.0000 0.30066  0.03137  0.44823  Biso   1.000  C
  C556     1.0000 0.63529  0.60262  0.78157  Biso   1.000  C
  C557     1.0000 0.39738  0.03268  0.78157  Biso   1.000  C
  C558     1.0000 0.96732  0.36471  0.78157  Biso   1.000  C
  C559     1.0000 0.60954  0.04351  0.85750  Biso   1.000  C
  C560     1.0000 0.95649  0.56603  0.85750  Biso   1.000  C
  C561     1.0000 0.43397  0.39046  0.85750  Biso   1.000  C
  C562     1.0000 0.27621  0.37684  0.19083  Biso   1.000  C
  C563     1.0000 0.62316  0.89936  0.19083  Biso   1.000  C
  C564     1.0000 0.10064  0.72379  0.19083  Biso   1.000  C
  C565     1.0000 0.94287  0.71018  0.52417  Biso   1.000  C
  C566     1.0000 0.28982  0.23270  0.52417  Biso   1.000  C
  C567     1.0000 0.76730  0.05713  0.52417  Biso   1.000  C
  C568     1.0000 0.39046  0.95649  0.14250  Biso   1.000  C
  C569     1.0000 0.04351  0.43397  0.14250  Biso   1.000  C
  C570     1.0000 0.56603  0.60954  0.14250  Biso   1.000  C
  C571     1.0000 0.05713  0.28982  0.47583  Biso   1.000  C
  C572     1.0000 0.71018  0.76730  0.47583  Biso   1.000  C
  C573     1.0000 0.23270  0.94287  0.47583  Biso   1.000  C
  C574     1.0000 0.72379  0.62316  0.80917  Biso   1.000  C
  C575     1.0000 0.37684  0.10064  0.80917  Biso   1.000  C
  C576     1.0000 0.89936  0.27621  0.80917  Biso   1.000  C
  H343     1.0000 0.58790  0.03450  0.83600  Biso   1.000  H
  H344     1.0000 0.96550  0.55340  0.83600  Biso   1.000  H
  H345     1.0000 0.44660  0.41210  0.83600  Biso   1.000  H
  H346     1.0000 0.25457  0.36783  0.16933  Biso   1.000  H
  H347     1.0000 0.63217  0.88673  0.16933  Biso   1.000  H
  H348     1.0000 0.11327  0.74543  0.16933  Biso   1.000  H
  H349     1.0000 0.92123  0.70117  0.50267  Biso   1.000  H
  H350     1.0000 0.29883  0.22007  0.50267  Biso   1.000  H
  H351     1.0000 0.77993  0.07877  0.50267  Biso   1.000  H
  H352     1.0000 0.41210  0.96550  0.16400  Biso   1.000  H
  H353     1.0000 0.03450  0.44660  0.16400  Biso   1.000  H
  H354     1.0000 0.55340  0.58790  0.16400  Biso   1.000  H
  H355     1.0000 0.07877  0.29883  0.49733  Biso   1.000  H
  H356     1.0000 0.70117  0.77993  0.49733  Biso   1.000  H
  H357     1.0000 0.22007  0.92123  0.49733  Biso   1.000  H
  H358     1.0000 0.74543  0.63217  0.83067  Biso   1.000  H
  H359     1.0000 0.36783  0.11327  0.83067  Biso   1.000  H
  H360     1.0000 0.88673  0.25457  0.83067  Biso   1.000  H
  C577     1.0000 0.70175  0.99811  0.77780  Biso   1.000  C
  C578     1.0000 0.00189  0.70364  0.77780  Biso   1.000  C
  C579     1.0000 0.29636  0.29825  0.77780  Biso   1.000  C
  C580     1.0000 0.36842  0.33144  0.11113  Biso   1.000  C
  C581     1.0000 0.66856  0.03697  0.11113  Biso   1.000  C
  C582     1.0000 0.96303  0.63158  0.11113  Biso   1.000  C
  C583     1.0000 0.03508  0.66478  0.44447  Biso   1.000  C
  C584     1.0000 0.33522  0.37031  0.44447  Biso   1.000  C
  C585     1.0000 0.62969  0.96492  0.44447  Biso   1.000  C
  C586     1.0000 0.29825  0.00189  0.22220  Biso   1.000  C
  C587     1.0000 0.99811  0.29636  0.22220  Biso   1.000  C
  C588     1.0000 0.70364  0.70175  0.22220  Biso   1.000  C
  C589     1.0000 0.96492  0.33522  0.55553  Biso   1.000  C
  C590     1.0000 0.66478  0.62969  0.55553  Biso   1.000  C
  C591     1.0000 0.37031  0.03508  0.55553  Biso   1.000  C
  C592     1.0000 0.63158  0.66856  0.88887  Biso   1.000  C
  C593     1.0000 0.33144  0.96303  0.88887  Biso   1.000  C
  C594     1.0000 0.03697  0.36842  0.88887  Biso   1.000  C
  H361     1.0000 0.68920  0.97360  0.77180  Biso   1.000  H
  H362     1.0000 0.02640  0.71560  0.77180  Biso   1.000  H
  H363     1.0000 0.28440  0.31080  0.77180  Biso   1.000  H
  H364     1.0000 0.35587  0.30693  0.10513  Biso   1.000  H
  H365     1.0000 0.69307  0.04893  0.10513  Biso   1.000  H
  H366     1.0000 0.95107  0.64413  0.10513  Biso   1.000  H
  H367     1.0000 0.02253  0.64027  0.43847  Biso   1.000  H
  H368     1.0000 0.35973  0.38227  0.43847  Biso   1.000  H
  H369     1.0000 0.61773  0.97747  0.43847  Biso   1.000  H
  H370     1.0000 0.31080  0.02640  0.22820  Biso   1.000  H
  H371     1.0000 0.97360  0.28440  0.22820  Biso   1.000  H
  H372     1.0000 0.71560  0.68920  0.22820  Biso   1.000  H
  H373     1.0000 0.97747  0.35973  0.56153  Biso   1.000  H
  H374     1.0000 0.64027  0.61773  0.56153  Biso   1.000  H
  H375     1.0000 0.38227  0.02253  0.56153  Biso   1.000  H
  H376     1.0000 0.64413  0.69307  0.89487  Biso   1.000  H
  H377     1.0000 0.30693  0.95107  0.89487  Biso   1.000  H
  H378     1.0000 0.04893  0.35587  0.89487  Biso   1.000  H
  C595     1.0000 0.68543  0.13071  0.12830  Biso   1.000  C
  C596     1.0000 0.86929  0.55472  0.12830  Biso   1.000  C
  C597     1.0000 0.44528  0.31457  0.12830  Biso   1.000  C
  C598     1.0000 0.35210  0.46404  0.46163  Biso   1.000  C
  C599     1.0000 0.53596  0.88805  0.46163  Biso   1.000  C
  C600     1.0000 0.11195  0.64790  0.46163  Biso   1.000  C
  C601     1.0000 0.01876  0.79738  0.79497  Biso   1.000  C
  C602     1.0000 0.20262  0.22139  0.79497  Biso   1.000  C
  C603     1.0000 0.77861  0.98124  0.79497  Biso   1.000  C
  C604     1.0000 0.31457  0.86929  0.87170  Biso   1.000  C
  C605     1.0000 0.13071  0.44528  0.87170  Biso   1.000  C
  C606     1.0000 0.55472  0.68543  0.87170  Biso   1.000  C
  C607     1.0000 0.98124  0.20262  0.20503  Biso   1.000  C
  C608     1.0000 0.79738  0.77861  0.20503  Biso   1.000  C
  C609     1.0000 0.22139  0.01876  0.20503  Biso   1.000  C
  C610     1.0000 0.64790  0.53596  0.53837  Biso   1.000  C
  C611     1.0000 0.46404  0.11195  0.53837  Biso   1.000  C
  C612     1.0000 0.88805  0.35210  0.53837  Biso   1.000  C
  C613     1.0000 0.62943  0.11162  0.08120  Biso   1.000  C
  C614     1.0000 0.88838  0.51781  0.08120  Biso   1.000  C
  C615     1.0000 0.48219  0.37057  0.08120  Biso   1.000  C
  C616     1.0000 0.29610  0.44495  0.41453  Biso   1.000  C
  C617     1.0000 0.55505  0.85114  0.41453  Biso   1.000  C
  C618     1.0000 0.14886  0.70390  0.41453  Biso   1.000  C
  C619     1.0000 0.96276  0.77829  0.74787  Biso   1.000  C
  C620     1.0000 0.22171  0.18448  0.74787  Biso   1.000  C
  C621     1.0000 0.81552  0.03724  0.74787  Biso   1.000  C
  C622     1.0000 0.37057  0.88838  0.91880  Biso   1.000  C
  C623     1.0000 0.11162  0.48219  0.91880  Biso   1.000  C
  C624     1.0000 0.51781  0.62943  0.91880  Biso   1.000  C
  C625     1.0000 0.03724  0.22171  0.25213  Biso   1.000  C
  C626     1.0000 0.77829  0.81552  0.25213  Biso   1.000  C
  C627     1.0000 0.18448  0.96276  0.25213  Biso   1.000  C
  C628     1.0000 0.70390  0.55505  0.58547  Biso   1.000  C
  C629     1.0000 0.44495  0.14886  0.58547  Biso   1.000  C
  C630     1.0000 0.85114  0.29610  0.58547  Biso   1.000  C
  C631     1.0000 0.70930  0.14710  0.18640  Biso   1.000  C
  C632     1.0000 0.85290  0.56220  0.18640  Biso   1.000  C
  C633     1.0000 0.43780  0.29070  0.18640  Biso   1.000  C
  C634     1.0000 0.37597  0.48043  0.51973  Biso   1.000  C
  C635     1.0000 0.51957  0.89553  0.51973  Biso   1.000  C
  C636     1.0000 0.10447  0.62403  0.51973  Biso   1.000  C
  C637     1.0000 0.04263  0.81377  0.85307  Biso   1.000  C
  C638     1.0000 0.18623  0.22887  0.85307  Biso   1.000  C
  C639     1.0000 0.77113  0.95737  0.85307  Biso   1.000  C
  C640     1.0000 0.29070  0.85290  0.81360  Biso   1.000  C
  C641     1.0000 0.14710  0.43780  0.81360  Biso   1.000  C
  C642     1.0000 0.56220  0.70930  0.81360  Biso   1.000  C
  C643     1.0000 0.95737  0.18623  0.14693  Biso   1.000  C
  C644     1.0000 0.81377  0.77113  0.14693  Biso   1.000  C
  C645     1.0000 0.22887  0.04263  0.14693  Biso   1.000  C
  C646     1.0000 0.62403  0.51957  0.48027  Biso   1.000  C
  C647     1.0000 0.48043  0.10447  0.48027  Biso   1.000  C
  C648     1.0000 0.89553  0.37597  0.48027  Biso   1.000  C
  C649     1.0000 0.65195  0.12569  0.13180  Biso   1.000  C
  C650     1.0000 0.87431  0.52626  0.13180  Biso   1.000  C
  C651     1.0000 0.47374  0.34805  0.13180  Biso   1.000  C
  C652     1.0000 0.31862  0.45902  0.46513  Biso   1.000  C
  C653     1.0000 0.54098  0.85959  0.46513  Biso   1.000  C
  C654     1.0000 0.14041  0.68138  0.46513  Biso   1.000  C
  C655     1.0000 0.98528  0.79236  0.79847  Biso   1.000  C
  C656     1.0000 0.20764  0.19293  0.79847  Biso   1.000  C
  C657     1.0000 0.80707  0.01472  0.79847  Biso   1.000  C
  C658     1.0000 0.34805  0.87431  0.86820  Biso   1.000  C
  C659     1.0000 0.12569  0.47374  0.86820  Biso   1.000  C
  C660     1.0000 0.52626  0.65195  0.86820  Biso   1.000  C
  C661     1.0000 0.01472  0.20764  0.20153  Biso   1.000  C
  C662     1.0000 0.79236  0.80707  0.20153  Biso   1.000  C
  C663     1.0000 0.19293  0.98528  0.20153  Biso   1.000  C
  C664     1.0000 0.68138  0.54098  0.53487  Biso   1.000  C
  C665     1.0000 0.45902  0.14041  0.53487  Biso   1.000  C
  C666     1.0000 0.85959  0.31862  0.53487  Biso   1.000  C
  H379     1.0000 0.64440  0.13190  0.16880  Biso   1.000  H
  H380     1.0000 0.86810  0.51250  0.16880  Biso   1.000  H
  H381     1.0000 0.48750  0.35560  0.16880  Biso   1.000  H
  H382     1.0000 0.31107  0.46523  0.50213  Biso   1.000  H
  H383     1.0000 0.53477  0.84583  0.50213  Biso   1.000  H
  H384     1.0000 0.15417  0.68893  0.50213  Biso   1.000  H
  H385     1.0000 0.97773  0.79857  0.83547  Biso   1.000  H
  H386     1.0000 0.20143  0.17917  0.83547  Biso   1.000  H
  H387     1.0000 0.82083  0.02227  0.83547  Biso   1.000  H
  H388     1.0000 0.35560  0.86810  0.83120  Biso   1.000  H
  H389     1.0000 0.13190  0.48750  0.83120  Biso   1.000  H
  H390     1.0000 0.51250  0.64440  0.83120  Biso   1.000  H
  H391     1.0000 0.02227  0.20143  0.16453  Biso   1.000  H
  H392     1.0000 0.79857  0.82083  0.16453  Biso   1.000  H
  H393     1.0000 0.17917  0.97773  0.16453  Biso   1.000  H
  H394     1.0000 0.68893  0.53477  0.49787  Biso   1.000  H
  H395     1.0000 0.46523  0.15417  0.49787  Biso   1.000  H
  H396     1.0000 0.84583  0.31107  0.49787  Biso   1.000  H
  C667     1.0000 0.59310  0.10830  0.08810  Biso   1.000  C
  C668     1.0000 0.89170  0.48480  0.08810  Biso   1.000  C
  C669     1.0000 0.51520  0.40690  0.08810  Biso   1.000  C
  C670     1.0000 0.25977  0.44163  0.42143  Biso   1.000  C
  C671     1.0000 0.55837  0.81813  0.42143  Biso   1.000  C
  C672     1.0000 0.18187  0.74023  0.42143  Biso   1.000  C
  C673     1.0000 0.92643  0.77497  0.75477  Biso   1.000  C
  C674     1.0000 0.22503  0.15147  0.75477  Biso   1.000  C
  C675     1.0000 0.84853  0.07357  0.75477  Biso   1.000  C
  C676     1.0000 0.40690  0.89170  0.91190  Biso   1.000  C
  C677     1.0000 0.10830  0.51520  0.91190  Biso   1.000  C
  C678     1.0000 0.48480  0.59310  0.91190  Biso   1.000  C
  C679     1.0000 0.07357  0.22503  0.24523  Biso   1.000  C
  C680     1.0000 0.77497  0.84853  0.24523  Biso   1.000  C
  C681     1.0000 0.15147  0.92643  0.24523  Biso   1.000  C
  C682     1.0000 0.74023  0.55837  0.57857  Biso   1.000  C
  C683     1.0000 0.44163  0.18187  0.57857  Biso   1.000  C
  C684     1.0000 0.81813  0.25977  0.57857  Biso   1.000  C
  F109     1.0000 0.57086  0.08868  0.04610  Biso   1.000  F
  F110     1.0000 0.91132  0.48218  0.04610  Biso   1.000  F
  F111     1.0000 0.51782  0.42914  0.04610  Biso   1.000  F
  F112     1.0000 0.23753  0.42201  0.37943  Biso   1.000  F
  F113     1.0000 0.57799  0.81551  0.37943  Biso   1.000  F
  F114     1.0000 0.18449  0.76247  0.37943  Biso   1.000  F
  F115     1.0000 0.90419  0.75535  0.71277  Biso   1.000  F
  F116     1.0000 0.24465  0.14885  0.71277  Biso   1.000  F
  F117     1.0000 0.85115  0.09581  0.71277  Biso   1.000  F
  F118     1.0000 0.42914  0.91132  0.95390  Biso   1.000  F
  F119     1.0000 0.08868  0.51782  0.95390  Biso   1.000  F
  F120     1.0000 0.48218  0.57086  0.95390  Biso   1.000  F
  F121     1.0000 0.09581  0.24465  0.28723  Biso   1.000  F
  F122     1.0000 0.75535  0.85115  0.28723  Biso   1.000  F
  F123     1.0000 0.14885  0.90419  0.28723  Biso   1.000  F
  F124     1.0000 0.76247  0.57799  0.62057  Biso   1.000  F
  F125     1.0000 0.42201  0.18449  0.62057  Biso   1.000  F
  F126     1.0000 0.81551  0.23753  0.62057  Biso   1.000  F
  F127     1.0000 0.70590  0.17320  0.20990  Biso   1.000  F
  F128     1.0000 0.82680  0.53270  0.20990  Biso   1.000  F
  F129     1.0000 0.46730  0.29410  0.20990  Biso   1.000  F
  F130     1.0000 0.37257  0.50653  0.54323  Biso   1.000  F
  F131     1.0000 0.49347  0.86603  0.54323  Biso   1.000  F
  F132     1.0000 0.13397  0.62743  0.54323  Biso   1.000  F
  F133     1.0000 0.03923  0.83987  0.87657  Biso   1.000  F
  F134     1.0000 0.16013  0.19937  0.87657  Biso   1.000  F
  F135     1.0000 0.80063  0.96077  0.87657  Biso   1.000  F
  F136     1.0000 0.29410  0.82680  0.79010  Biso   1.000  F
  F137     1.0000 0.17320  0.46730  0.79010  Biso   1.000  F
  F138     1.0000 0.53270  0.70590  0.79010  Biso   1.000  F
  F139     1.0000 0.96077  0.16013  0.12343  Biso   1.000  F
  F140     1.0000 0.83987  0.80063  0.12343  Biso   1.000  F
  F141     1.0000 0.19937  0.03923  0.12343  Biso   1.000  F
  F142     1.0000 0.62743  0.49347  0.45677  Biso   1.000  F
  F143     1.0000 0.50653  0.13397  0.45677  Biso   1.000  F
  F144     1.0000 0.86603  0.37257  0.45677  Biso   1.000  F
  F145     1.0000 0.74177  0.15794  0.17420  Biso   1.000  F
  F146     1.0000 0.84206  0.58383  0.17420  Biso   1.000  F
  F147     1.0000 0.41617  0.25823  0.17420  Biso   1.000  F
  F148     1.0000 0.40844  0.49127  0.50753  Biso   1.000  F
  F149     1.0000 0.50873  0.91716  0.50753  Biso   1.000  F
  F150     1.0000 0.08284  0.59156  0.50753  Biso   1.000  F
  F151     1.0000 0.07510  0.82461  0.84087  Biso   1.000  F
  F152     1.0000 0.17539  0.25050  0.84087  Biso   1.000  F
  F153     1.0000 0.74950  0.92490  0.84087  Biso   1.000  F
  F154     1.0000 0.25823  0.84206  0.82580  Biso   1.000  F
  F155     1.0000 0.15794  0.41617  0.82580  Biso   1.000  F
  F156     1.0000 0.58383  0.74177  0.82580  Biso   1.000  F
  F157     1.0000 0.92490  0.17539  0.15913  Biso   1.000  F
  F158     1.0000 0.82461  0.74950  0.15913  Biso   1.000  F
  F159     1.0000 0.25050  0.07510  0.15913  Biso   1.000  F
  F160     1.0000 0.59156  0.50873  0.49247  Biso   1.000  F
  F161     1.0000 0.49127  0.08284  0.49247  Biso   1.000  F
  F162     1.0000 0.91716  0.40844  0.49247  Biso   1.000  F
  F163     1.0000 0.69958  0.12259  0.23170  Biso   1.000  F
  F164     1.0000 0.87741  0.57699  0.23170  Biso   1.000  F
  F165     1.0000 0.42301  0.30042  0.23170  Biso   1.000  F
  F166     1.0000 0.36625  0.45592  0.56503  Biso   1.000  F
  F167     1.0000 0.54408  0.91032  0.56503  Biso   1.000  F
  F168     1.0000 0.08968  0.63375  0.56503  Biso   1.000  F
  F169     1.0000 0.03291  0.78926  0.89837  Biso   1.000  F
  F170     1.0000 0.21074  0.24366  0.89837  Biso   1.000  F
  F171     1.0000 0.75634  0.96709  0.89837  Biso   1.000  F
  F172     1.0000 0.30042  0.87741  0.76830  Biso   1.000  F
  F173     1.0000 0.12259  0.42301  0.76830  Biso   1.000  F
  F174     1.0000 0.57699  0.69958  0.76830  Biso   1.000  F
  F175     1.0000 0.96709  0.21074  0.10163  Biso   1.000  F
  F176     1.0000 0.78926  0.75634  0.10163  Biso   1.000  F
  F177     1.0000 0.24366  0.03291  0.10163  Biso   1.000  F
  F178     1.0000 0.63375  0.54408  0.43497  Biso   1.000  F
  F179     1.0000 0.45592  0.08968  0.43497  Biso   1.000  F
  F180     1.0000 0.91032  0.36625  0.43497  Biso   1.000  F
  F181     1.0000 0.59490  0.13730  0.08350  Biso   1.000  F
  F182     1.0000 0.86270  0.45760  0.08350  Biso   1.000  F
  F183     1.0000 0.54240  0.40510  0.08350  Biso   1.000  F
  F184     1.0000 0.26157  0.47063  0.41683  Biso   1.000  F
  F185     1.0000 0.52937  0.79093  0.41683  Biso   1.000  F
  F186     1.0000 0.20907  0.73843  0.41683  Biso   1.000  F
  F187     1.0000 0.92823  0.80397  0.75017  Biso   1.000  F
  F188     1.0000 0.19603  0.12427  0.75017  Biso   1.000  F
  F189     1.0000 0.87573  0.07177  0.75017  Biso   1.000  F
  F190     1.0000 0.40510  0.86270  0.91650  Biso   1.000  F
  F191     1.0000 0.13730  0.54240  0.91650  Biso   1.000  F
  F192     1.0000 0.45760  0.59490  0.91650  Biso   1.000  F
  F193     1.0000 0.07177  0.19603  0.24983  Biso   1.000  F
  F194     1.0000 0.80397  0.87573  0.24983  Biso   1.000  F
  F195     1.0000 0.12427  0.92823  0.24983  Biso   1.000  F
  F196     1.0000 0.73843  0.52937  0.58317  Biso   1.000  F
  F197     1.0000 0.47063  0.20907  0.58317  Biso   1.000  F
  F198     1.0000 0.79093  0.26157  0.58317  Biso   1.000  F
  F199     1.0000 0.57920  0.09680  0.13900  Biso   1.000  F
  F200     1.0000 0.90320  0.48240  0.13900  Biso   1.000  F
  F201     1.0000 0.51760  0.42080  0.13900  Biso   1.000  F
  F202     1.0000 0.24587  0.43013  0.47233  Biso   1.000  F
  F203     1.0000 0.56987  0.81573  0.47233  Biso   1.000  F
  F204     1.0000 0.18427  0.75413  0.47233  Biso   1.000  F
  F205     1.0000 0.91253  0.76347  0.80567  Biso   1.000  F
  F206     1.0000 0.23653  0.14907  0.80567  Biso   1.000  F
  F207     1.0000 0.85093  0.08747  0.80567  Biso   1.000  F
  F208     1.0000 0.42080  0.90320  0.86100  Biso   1.000  F
  F209     1.0000 0.09680  0.51760  0.86100  Biso   1.000  F
  F210     1.0000 0.48240  0.57920  0.86100  Biso   1.000  F
  F211     1.0000 0.08747  0.23653  0.19433  Biso   1.000  F
  F212     1.0000 0.76347  0.85093  0.19433  Biso   1.000  F
  F213     1.0000 0.14907  0.91253  0.19433  Biso   1.000  F
  F214     1.0000 0.75413  0.56987  0.52767  Biso   1.000  F
  F215     1.0000 0.43013  0.18427  0.52767  Biso   1.000  F
  F216     1.0000 0.81573  0.24587  0.52767  Biso   1.000  F
  Cu37     1.0000 0.76032  0.00565  0.15099  Biso   1.000  Cu
  Cu38     1.0000 0.99435  0.75467  0.15099  Biso   1.000  Cu
  Cu39     1.0000 0.24533  0.23968  0.15099  Biso   1.000  Cu
  Cu40     1.0000 0.42699  0.33898  0.48432  Biso   1.000  Cu
  Cu41     1.0000 0.66102  0.08800  0.48432  Biso   1.000  Cu
  Cu42     1.0000 0.91200  0.57301  0.48432  Biso   1.000  Cu
  Cu43     1.0000 0.09365  0.67232  0.81766  Biso   1.000  Cu
  Cu44     1.0000 0.32768  0.42134  0.81766  Biso   1.000  Cu
  Cu45     1.0000 0.57866  0.90635  0.81766  Biso   1.000  Cu
  Cu46     1.0000 0.23968  0.99435  0.84901  Biso   1.000  Cu
  Cu47     1.0000 0.00565  0.24533  0.84901  Biso   1.000  Cu
  Cu48     1.0000 0.75467  0.76032  0.84901  Biso   1.000  Cu
  Cu49     1.0000 0.90635  0.32768  0.18234  Biso   1.000  Cu
  Cu50     1.0000 0.67232  0.57866  0.18234  Biso   1.000  Cu
  Cu51     1.0000 0.42134  0.09365  0.18234  Biso   1.000  Cu
  Cu52     1.0000 0.57301  0.66102  0.51568  Biso   1.000  Cu
  Cu53     1.0000 0.33898  0.91200  0.51568  Biso   1.000  Cu
  Cu54     1.0000 0.08800  0.42699  0.51568  Biso   1.000  Cu
  O73      1.0000 0.79637  0.03003  0.08560  Biso   1.000  O
  O74      1.0000 0.96997  0.76634  0.08560  Biso   1.000  O
  O75      1.0000 0.23366  0.20363  0.08560  Biso   1.000  O
  O76      1.0000 0.46304  0.36336  0.41893  Biso   1.000  O
  O77      1.0000 0.63664  0.09967  0.41893  Biso   1.000  O
  O78      1.0000 0.90033  0.53696  0.41893  Biso   1.000  O
  O79      1.0000 0.12970  0.69670  0.75227  Biso   1.000  O
  O80      1.0000 0.30330  0.43301  0.75227  Biso   1.000  O
  O81      1.0000 0.56699  0.87030  0.75227  Biso   1.000  O
  O82      1.0000 0.20363  0.96997  0.91440  Biso   1.000  O
  O83      1.0000 0.03003  0.23366  0.91440  Biso   1.000  O
  O84      1.0000 0.76634  0.79637  0.91440  Biso   1.000  O
  O85      1.0000 0.87030  0.30330  0.24773  Biso   1.000  O
  O86      1.0000 0.69670  0.56699  0.24773  Biso   1.000  O
  O87      1.0000 0.43301  0.12970  0.24773  Biso   1.000  O
  O88      1.0000 0.53696  0.63664  0.58107  Biso   1.000  O
  O89      1.0000 0.36336  0.90033  0.58107  Biso   1.000  O
  O90      1.0000 0.09967  0.46304  0.58107  Biso   1.000  O
  N109     1.0000 0.76601  0.05086  0.17540  Biso   1.000  N
  N110     1.0000 0.94914  0.71515  0.17540  Biso   1.000  N
  N111     1.0000 0.28485  0.23399  0.17540  Biso   1.000  N
  N112     1.0000 0.43268  0.38419  0.50873  Biso   1.000  N
  N113     1.0000 0.61581  0.04848  0.50873  Biso   1.000  N
  N114     1.0000 0.95152  0.56732  0.50873  Biso   1.000  N
  N115     1.0000 0.09934  0.71753  0.84207  Biso   1.000  N
  N116     1.0000 0.28247  0.38182  0.84207  Biso   1.000  N
  N117     1.0000 0.61818  0.90066  0.84207  Biso   1.000  N
  N118     1.0000 0.23399  0.94914  0.82460  Biso   1.000  N
  N119     1.0000 0.05086  0.28485  0.82460  Biso   1.000  N
  N120     1.0000 0.71515  0.76601  0.82460  Biso   1.000  N
  N121     1.0000 0.90066  0.28247  0.15793  Biso   1.000  N
  N122     1.0000 0.71753  0.61818  0.15793  Biso   1.000  N
  N123     1.0000 0.38182  0.09934  0.15793  Biso   1.000  N
  N124     1.0000 0.56732  0.61581  0.49127  Biso   1.000  N
  N125     1.0000 0.38419  0.95152  0.49127  Biso   1.000  N
  N126     1.0000 0.04848  0.43268  0.49127  Biso   1.000  N
  N127     1.0000 0.73003  0.98210  0.22240  Biso   1.000  N
  N128     1.0000 0.01790  0.74793  0.22240  Biso   1.000  N
  N129     1.0000 0.25207  0.26997  0.22240  Biso   1.000  N
  N130     1.0000 0.39670  0.31543  0.55573  Biso   1.000  N
  N131     1.0000 0.68457  0.08126  0.55573  Biso   1.000  N
  N132     1.0000 0.91874  0.60330  0.55573  Biso   1.000  N
  N133     1.0000 0.06336  0.64877  0.88907  Biso   1.000  N
  N134     1.0000 0.35123  0.41460  0.88907  Biso   1.000  N
  N135     1.0000 0.58540  0.93664  0.88907  Biso   1.000  N
  N136     1.0000 0.26997  0.01790  0.77760  Biso   1.000  N
  N137     1.0000 0.98210  0.25207  0.77760  Biso   1.000  N
  N138     1.0000 0.74793  0.73003  0.77760  Biso   1.000  N
  N139     1.0000 0.93664  0.35123  0.11093  Biso   1.000  N
  N140     1.0000 0.64877  0.58540  0.11093  Biso   1.000  N
  N141     1.0000 0.41460  0.06336  0.11093  Biso   1.000  N
  N142     1.0000 0.60330  0.68457  0.44427  Biso   1.000  N
  N143     1.0000 0.31543  0.91874  0.44427  Biso   1.000  N
  N144     1.0000 0.08126  0.39670  0.44427  Biso   1.000  N
  C685     1.0000 0.70951  0.04303  0.31410  Biso   1.000  C
  C686     1.0000 0.95697  0.66648  0.31410  Biso   1.000  C
  C687     1.0000 0.33352  0.29049  0.31410  Biso   1.000  C
  C688     1.0000 0.37618  0.37636  0.64743  Biso   1.000  C
  C689     1.0000 0.62364  0.99981  0.64743  Biso   1.000  C
  C690     1.0000 0.00019  0.62382  0.64743  Biso   1.000  C
  C691     1.0000 0.04284  0.70970  0.98077  Biso   1.000  C
  C692     1.0000 0.29030  0.33315  0.98077  Biso   1.000  C
  C693     1.0000 0.66685  0.95716  0.98077  Biso   1.000  C
  C694     1.0000 0.29049  0.95697  0.68590  Biso   1.000  C
  C695     1.0000 0.04303  0.33352  0.68590  Biso   1.000  C
  C696     1.0000 0.66648  0.70951  0.68590  Biso   1.000  C
  C697     1.0000 0.95716  0.29030  0.01923  Biso   1.000  C
  C698     1.0000 0.70970  0.66685  0.01923  Biso   1.000  C
  C699     1.0000 0.33315  0.04284  0.01923  Biso   1.000  C
  C700     1.0000 0.62382  0.62364  0.35257  Biso   1.000  C
  C701     1.0000 0.37636  0.00019  0.35257  Biso   1.000  C
  C702     1.0000 0.99981  0.37618  0.35257  Biso   1.000  C
  N145     1.0000 0.68148  0.06593  0.40850  Biso   1.000  N
  N146     1.0000 0.93407  0.61555  0.40850  Biso   1.000  N
  N147     1.0000 0.38445  0.31852  0.40850  Biso   1.000  N
  N148     1.0000 0.34815  0.39926  0.74183  Biso   1.000  N
  N149     1.0000 0.60074  0.94888  0.74183  Biso   1.000  N
  N150     1.0000 0.05112  0.65185  0.74183  Biso   1.000  N
  N151     1.0000 0.01481  0.73260  0.07517  Biso   1.000  N
  N152     1.0000 0.26740  0.28222  0.07517  Biso   1.000  N
  N153     1.0000 0.71778  0.98519  0.07517  Biso   1.000  N
  N154     1.0000 0.31852  0.93407  0.59150  Biso   1.000  N
  N155     1.0000 0.06593  0.38445  0.59150  Biso   1.000  N
  N156     1.0000 0.61555  0.68148  0.59150  Biso   1.000  N
  N157     1.0000 0.98519  0.26740  0.92483  Biso   1.000  N
  N158     1.0000 0.73260  0.71778  0.92483  Biso   1.000  N
  N159     1.0000 0.28222  0.01481  0.92483  Biso   1.000  N
  N160     1.0000 0.65185  0.60074  0.25817  Biso   1.000  N
  N161     1.0000 0.39926  0.05112  0.25817  Biso   1.000  N
  N162     1.0000 0.94888  0.34815  0.25817  Biso   1.000  N
  C703     1.0000 0.72489  0.03139  0.26420  Biso   1.000  C
  C704     1.0000 0.96861  0.69350  0.26420  Biso   1.000  C
  C705     1.0000 0.30650  0.27511  0.26420  Biso   1.000  C
  C706     1.0000 0.39156  0.36472  0.59753  Biso   1.000  C
  C707     1.0000 0.63528  0.02683  0.59753  Biso   1.000  C
  C708     1.0000 0.97317  0.60844  0.59753  Biso   1.000  C
  C709     1.0000 0.05822  0.69806  0.93087  Biso   1.000  C
  C710     1.0000 0.30194  0.36017  0.93087  Biso   1.000  C
  C711     1.0000 0.63983  0.94178  0.93087  Biso   1.000  C
  C712     1.0000 0.27511  0.96861  0.73580  Biso   1.000  C
  C713     1.0000 0.03139  0.30650  0.73580  Biso   1.000  C
  C714     1.0000 0.69350  0.72489  0.73580  Biso   1.000  C
  C715     1.0000 0.94178  0.30194  0.06913  Biso   1.000  C
  C716     1.0000 0.69806  0.63983  0.06913  Biso   1.000  C
  C717     1.0000 0.36017  0.05822  0.06913  Biso   1.000  C
  C718     1.0000 0.60844  0.63528  0.40247  Biso   1.000  C
  C719     1.0000 0.36472  0.97317  0.40247  Biso   1.000  C
  C720     1.0000 0.02683  0.39156  0.40247  Biso   1.000  C
  O91      1.0000 0.76411  0.96323  0.13480  Biso   1.000  O
  O92      1.0000 0.03677  0.80088  0.13480  Biso   1.000  O
  O93      1.0000 0.19912  0.23589  0.13480  Biso   1.000  O
  O94      1.0000 0.43078  0.29656  0.46813  Biso   1.000  O
  O95      1.0000 0.70344  0.13421  0.46813  Biso   1.000  O
  O96      1.0000 0.86579  0.56922  0.46813  Biso   1.000  O
  O97      1.0000 0.09744  0.62990  0.80147  Biso   1.000  O
  O98      1.0000 0.37010  0.46755  0.80147  Biso   1.000  O
  O99      1.0000 0.53245  0.90256  0.80147  Biso   1.000  O
  O100     1.0000 0.23589  0.03677  0.86520  Biso   1.000  O
  O101     1.0000 0.96323  0.19912  0.86520  Biso   1.000  O
  O102     1.0000 0.80088  0.76411  0.86520  Biso   1.000  O
  O103     1.0000 0.90256  0.37010  0.19853  Biso   1.000  O
  O104     1.0000 0.62990  0.53245  0.19853  Biso   1.000  O
  O105     1.0000 0.46755  0.09744  0.19853  Biso   1.000  O
  O106     1.0000 0.56922  0.70344  0.53187  Biso   1.000  O
  O107     1.0000 0.29656  0.86579  0.53187  Biso   1.000  O
  O108     1.0000 0.13421  0.43078  0.53187  Biso   1.000  O
  C721     1.0000 0.69392  0.93981  0.29040  Biso   1.000  C
  C722     1.0000 0.06019  0.75411  0.29040  Biso   1.000  C
  C723     1.0000 0.24589  0.30608  0.29040  Biso   1.000  C
  C724     1.0000 0.36059  0.27314  0.62373  Biso   1.000  C
  C725     1.0000 0.72686  0.08744  0.62373  Biso   1.000  C
  C726     1.0000 0.91256  0.63941  0.62373  Biso   1.000  C
  C727     1.0000 0.02725  0.60648  0.95707  Biso   1.000  C
  C728     1.0000 0.39352  0.42078  0.95707  Biso   1.000  C
  C729     1.0000 0.57922  0.97275  0.95707  Biso   1.000  C
  C730     1.0000 0.30608  0.06019  0.70960  Biso   1.000  C
  C731     1.0000 0.93981  0.24589  0.70960  Biso   1.000  C
  C732     1.0000 0.75411  0.69392  0.70960  Biso   1.000  C
  C733     1.0000 0.97275  0.39352  0.04293  Biso   1.000  C
  C734     1.0000 0.60648  0.57922  0.04293  Biso   1.000  C
  C735     1.0000 0.42078  0.02725  0.04293  Biso   1.000  C
  C736     1.0000 0.63941  0.72686  0.37627  Biso   1.000  C
  C737     1.0000 0.27314  0.91256  0.37627  Biso   1.000  C
  C738     1.0000 0.08744  0.36059  0.37627  Biso   1.000  C
  H397     1.0000 0.68140  0.91760  0.31010  Biso   1.000  H
  H398     1.0000 0.08240  0.76380  0.31010  Biso   1.000  H
  H399     1.0000 0.23620  0.31860  0.31010  Biso   1.000  H
  H400     1.0000 0.34807  0.25093  0.64343  Biso   1.000  H
  H401     1.0000 0.74907  0.09713  0.64343  Biso   1.000  H
  H402     1.0000 0.90287  0.65193  0.64343  Biso   1.000  H
  H403     1.0000 0.01473  0.58427  0.97677  Biso   1.000  H
  H404     1.0000 0.41573  0.43047  0.97677  Biso   1.000  H
  H405     1.0000 0.56953  0.98527  0.97677  Biso   1.000  H
  H406     1.0000 0.31860  0.08240  0.68990  Biso   1.000  H
  H407     1.0000 0.91760  0.23620  0.68990  Biso   1.000  H
  H408     1.0000 0.76380  0.68140  0.68990  Biso   1.000  H
  H409     1.0000 0.98527  0.41573  0.02323  Biso   1.000  H
  H410     1.0000 0.58427  0.56953  0.02323  Biso   1.000  H
  H411     1.0000 0.43047  0.01473  0.02323  Biso   1.000  H
  H412     1.0000 0.65193  0.74907  0.35657  Biso   1.000  H
  H413     1.0000 0.25093  0.90287  0.35657  Biso   1.000  H
  H414     1.0000 0.09713  0.34807  0.35657  Biso   1.000  H
  C739     1.0000 0.78614  0.08154  0.14750  Biso   1.000  C
  C740     1.0000 0.91846  0.70460  0.14750  Biso   1.000  C
  C741     1.0000 0.29540  0.21386  0.14750  Biso   1.000  C
  C742     1.0000 0.45281  0.41487  0.48083  Biso   1.000  C
  C743     1.0000 0.58513  0.03793  0.48083  Biso   1.000  C
  C744     1.0000 0.96207  0.54719  0.48083  Biso   1.000  C
  C745     1.0000 0.11947  0.74821  0.81417  Biso   1.000  C
  C746     1.0000 0.25179  0.37127  0.81417  Biso   1.000  C
  C747     1.0000 0.62873  0.88053  0.81417  Biso   1.000  C
  C748     1.0000 0.21386  0.91846  0.85250  Biso   1.000  C
  C749     1.0000 0.08154  0.29540  0.85250  Biso   1.000  C
  C750     1.0000 0.70460  0.78614  0.85250  Biso   1.000  C
  C751     1.0000 0.88053  0.25179  0.18583  Biso   1.000  C
  C752     1.0000 0.74821  0.62873  0.18583  Biso   1.000  C
  C753     1.0000 0.37127  0.11947  0.18583  Biso   1.000  C
  C754     1.0000 0.54719  0.58513  0.51917  Biso   1.000  C
  C755     1.0000 0.41487  0.96207  0.51917  Biso   1.000  C
  C756     1.0000 0.03793  0.45281  0.51917  Biso   1.000  C
  H415     1.0000 0.80140  0.08490  0.11350  Biso   1.000  H
  H416     1.0000 0.91510  0.71650  0.11350  Biso   1.000  H
  H417     1.0000 0.28350  0.19860  0.11350  Biso   1.000  H
  H418     1.0000 0.46807  0.41823  0.44683  Biso   1.000  H
  H419     1.0000 0.58177  0.04983  0.44683  Biso   1.000  H
  H420     1.0000 0.95017  0.53193  0.44683  Biso   1.000  H
  H421     1.0000 0.13473  0.75157  0.78017  Biso   1.000  H
  H422     1.0000 0.24843  0.38317  0.78017  Biso   1.000  H
  H423     1.0000 0.61683  0.86527  0.78017  Biso   1.000  H
  H424     1.0000 0.19860  0.91510  0.88650  Biso   1.000  H
  H425     1.0000 0.08490  0.28350  0.88650  Biso   1.000  H
  H426     1.0000 0.71650  0.80140  0.88650  Biso   1.000  H
  H427     1.0000 0.86527  0.24843  0.21983  Biso   1.000  H
  H428     1.0000 0.75157  0.61683  0.21983  Biso   1.000  H
  H429     1.0000 0.38317  0.13473  0.21983  Biso   1.000  H
  H430     1.0000 0.53193  0.58177  0.55317  Biso   1.000  H
  H431     1.0000 0.41823  0.95017  0.55317  Biso   1.000  H
  H432     1.0000 0.04983  0.46807  0.55317  Biso   1.000  H
  C757     1.0000 0.71558  0.07647  0.40650  Biso   1.000  C
  C758     1.0000 0.92353  0.63911  0.40650  Biso   1.000  C
  C759     1.0000 0.36089  0.28442  0.40650  Biso   1.000  C
  C760     1.0000 0.38225  0.40980  0.73983  Biso   1.000  C
  C761     1.0000 0.59020  0.97244  0.73983  Biso   1.000  C
  C762     1.0000 0.02756  0.61775  0.73983  Biso   1.000  C
  C763     1.0000 0.04891  0.74314  0.07317  Biso   1.000  C
  C764     1.0000 0.25686  0.30578  0.07317  Biso   1.000  C
  C765     1.0000 0.69422  0.95109  0.07317  Biso   1.000  C
  C766     1.0000 0.28442  0.92353  0.59350  Biso   1.000  C
  C767     1.0000 0.07647  0.36089  0.59350  Biso   1.000  C
  C768     1.0000 0.63911  0.71558  0.59350  Biso   1.000  C
  C769     1.0000 0.95109  0.25686  0.92683  Biso   1.000  C
  C770     1.0000 0.74314  0.69422  0.92683  Biso   1.000  C
  C771     1.0000 0.30578  0.04891  0.92683  Biso   1.000  C
  C772     1.0000 0.61775  0.59020  0.26017  Biso   1.000  C
  C773     1.0000 0.40980  0.02756  0.26017  Biso   1.000  C
  C774     1.0000 0.97244  0.38225  0.26017  Biso   1.000  C
  H433     1.0000 0.73030  0.09180  0.43830  Biso   1.000  H
  H434     1.0000 0.90820  0.63850  0.43830  Biso   1.000  H
  H435     1.0000 0.36150  0.26970  0.43830  Biso   1.000  H
  H436     1.0000 0.39697  0.42513  0.77163  Biso   1.000  H
  H437     1.0000 0.57487  0.97183  0.77163  Biso   1.000  H
  H438     1.0000 0.02817  0.60303  0.77163  Biso   1.000  H
  H439     1.0000 0.06363  0.75847  0.10497  Biso   1.000  H
  H440     1.0000 0.24153  0.30517  0.10497  Biso   1.000  H
  H441     1.0000 0.69483  0.93637  0.10497  Biso   1.000  H
  H442     1.0000 0.26970  0.90820  0.56170  Biso   1.000  H
  H443     1.0000 0.09180  0.36150  0.56170  Biso   1.000  H
  H444     1.0000 0.63850  0.73030  0.56170  Biso   1.000  H
  H445     1.0000 0.93637  0.24153  0.89503  Biso   1.000  H
  H446     1.0000 0.75847  0.69483  0.89503  Biso   1.000  H
  H447     1.0000 0.30517  0.06363  0.89503  Biso   1.000  H
  H448     1.0000 0.60303  0.57487  0.22837  Biso   1.000  H
  H449     1.0000 0.42513  0.02817  0.22837  Biso   1.000  H
  H450     1.0000 0.97183  0.39697  0.22837  Biso   1.000  H
  C775     1.0000 0.67390  0.03170  0.31700  Biso   1.000  C
  C776     1.0000 0.96830  0.64220  0.31700  Biso   1.000  C
  C777     1.0000 0.35780  0.32610  0.31700  Biso   1.000  C
  C778     1.0000 0.34057  0.36503  0.65033  Biso   1.000  C
  C779     1.0000 0.63497  0.97553  0.65033  Biso   1.000  C
  C780     1.0000 0.02447  0.65943  0.65033  Biso   1.000  C
  C781     1.0000 0.00723  0.69837  0.98367  Biso   1.000  C
  C782     1.0000 0.30163  0.30887  0.98367  Biso   1.000  C
  C783     1.0000 0.69113  0.99277  0.98367  Biso   1.000  C
  C784     1.0000 0.32610  0.96830  0.68300  Biso   1.000  C
  C785     1.0000 0.03170  0.35780  0.68300  Biso   1.000  C
  C786     1.0000 0.64220  0.67390  0.68300  Biso   1.000  C
  C787     1.0000 0.99277  0.30163  0.01633  Biso   1.000  C
  C788     1.0000 0.69837  0.69113  0.01633  Biso   1.000  C
  C789     1.0000 0.30887  0.00723  0.01633  Biso   1.000  C
  C790     1.0000 0.65943  0.63497  0.34967  Biso   1.000  C
  C791     1.0000 0.36503  0.02447  0.34967  Biso   1.000  C
  C792     1.0000 0.97553  0.34057  0.34967  Biso   1.000  C
  H451     1.0000 0.65840  0.01560  0.28680  Biso   1.000  H
  H452     1.0000 0.98440  0.64280  0.28680  Biso   1.000  H
  H453     1.0000 0.35720  0.34160  0.28680  Biso   1.000  H
  H454     1.0000 0.32507  0.34893  0.62013  Biso   1.000  H
  H455     1.0000 0.65107  0.97613  0.62013  Biso   1.000  H
  H456     1.0000 0.02387  0.67493  0.62013  Biso   1.000  H
  H457     1.0000 0.99173  0.68227  0.95347  Biso   1.000  H
  H458     1.0000 0.31773  0.30947  0.95347  Biso   1.000  H
  H459     1.0000 0.69053  0.00827  0.95347  Biso   1.000  H
  H460     1.0000 0.34160  0.98440  0.71320  Biso   1.000  H
  H461     1.0000 0.01560  0.35720  0.71320  Biso   1.000  H
  H462     1.0000 0.64280  0.65840  0.71320  Biso   1.000  H
  H463     1.0000 0.00827  0.31773  0.04653  Biso   1.000  H
  H464     1.0000 0.68227  0.69053  0.04653  Biso   1.000  H
  H465     1.0000 0.30947  0.99173  0.04653  Biso   1.000  H
  H466     1.0000 0.67493  0.65107  0.37987  Biso   1.000  H
  H467     1.0000 0.34893  0.02387  0.37987  Biso   1.000  H
  H468     1.0000 0.97613  0.32507  0.37987  Biso   1.000  H
  C793     1.0000 0.71577  0.99635  0.26390  Biso   1.000  C
  C794     1.0000 0.00365  0.71942  0.26390  Biso   1.000  C
  C795     1.0000 0.28058  0.28423  0.26390  Biso   1.000  C
  C796     1.0000 0.38244  0.32968  0.59723  Biso   1.000  C
  C797     1.0000 0.67032  0.05275  0.59723  Biso   1.000  C
  C798     1.0000 0.94725  0.61756  0.59723  Biso   1.000  C
  C799     1.0000 0.04910  0.66302  0.93057  Biso   1.000  C
  C800     1.0000 0.33698  0.38609  0.93057  Biso   1.000  C
  C801     1.0000 0.61391  0.95090  0.93057  Biso   1.000  C
  C802     1.0000 0.28423  0.00365  0.73610  Biso   1.000  C
  C803     1.0000 0.99635  0.28058  0.73610  Biso   1.000  C
  C804     1.0000 0.71942  0.71577  0.73610  Biso   1.000  C
  C805     1.0000 0.95090  0.33698  0.06943  Biso   1.000  C
  C806     1.0000 0.66302  0.61391  0.06943  Biso   1.000  C
  C807     1.0000 0.38609  0.04910  0.06943  Biso   1.000  C
  C808     1.0000 0.61756  0.67032  0.40277  Biso   1.000  C
  C809     1.0000 0.32968  0.94725  0.40277  Biso   1.000  C
  C810     1.0000 0.05275  0.38244  0.40277  Biso   1.000  C
  C811     1.0000 0.75838  0.09341  0.22140  Biso   1.000  C
  C812     1.0000 0.90659  0.66497  0.22140  Biso   1.000  C
  C813     1.0000 0.33503  0.24162  0.22140  Biso   1.000  C
  C814     1.0000 0.42505  0.42674  0.55473  Biso   1.000  C
  C815     1.0000 0.57326  0.99830  0.55473  Biso   1.000  C
  C816     1.0000 0.00170  0.57495  0.55473  Biso   1.000  C
  C817     1.0000 0.09171  0.76008  0.88807  Biso   1.000  C
  C818     1.0000 0.23992  0.33164  0.88807  Biso   1.000  C
  C819     1.0000 0.66836  0.90829  0.88807  Biso   1.000  C
  C820     1.0000 0.24162  0.90659  0.77860  Biso   1.000  C
  C821     1.0000 0.09341  0.33503  0.77860  Biso   1.000  C
  C822     1.0000 0.66497  0.75838  0.77860  Biso   1.000  C
  C823     1.0000 0.90829  0.23992  0.11193  Biso   1.000  C
  C824     1.0000 0.76008  0.66836  0.11193  Biso   1.000  C
  C825     1.0000 0.33164  0.09171  0.11193  Biso   1.000  C
  C826     1.0000 0.57495  0.57326  0.44527  Biso   1.000  C
  C827     1.0000 0.42674  0.00170  0.44527  Biso   1.000  C
  C828     1.0000 0.99830  0.42505  0.44527  Biso   1.000  C
  H469     1.0000 0.75000  0.10480  0.24820  Biso   1.000  H
  H470     1.0000 0.89520  0.64520  0.24820  Biso   1.000  H
  H471     1.0000 0.35480  0.25000  0.24820  Biso   1.000  H
  H472     1.0000 0.41667  0.43813  0.58153  Biso   1.000  H
  H473     1.0000 0.56187  0.97853  0.58153  Biso   1.000  H
  H474     1.0000 0.02147  0.58333  0.58153  Biso   1.000  H
  H475     1.0000 0.08333  0.77147  0.91487  Biso   1.000  H
  H476     1.0000 0.22853  0.31187  0.91487  Biso   1.000  H
  H477     1.0000 0.68813  0.91667  0.91487  Biso   1.000  H
  H478     1.0000 0.25000  0.89520  0.75180  Biso   1.000  H
  H479     1.0000 0.10480  0.35480  0.75180  Biso   1.000  H
  H480     1.0000 0.64520  0.75000  0.75180  Biso   1.000  H
  H481     1.0000 0.91667  0.22853  0.08513  Biso   1.000  H
  H482     1.0000 0.77147  0.68813  0.08513  Biso   1.000  H
  H483     1.0000 0.31187  0.08333  0.08513  Biso   1.000  H
  H484     1.0000 0.58333  0.56187  0.41847  Biso   1.000  H
  H485     1.0000 0.43813  0.02147  0.41847  Biso   1.000  H
  H486     1.0000 0.97853  0.41667  0.41847  Biso   1.000  H
  C829     1.0000 0.71703  0.94886  0.23950  Biso   1.000  C
  C830     1.0000 0.05114  0.76817  0.23950  Biso   1.000  C
  C831     1.0000 0.23183  0.28297  0.23950  Biso   1.000  C
  C832     1.0000 0.38370  0.28219  0.57283  Biso   1.000  C
  C833     1.0000 0.71781  0.10150  0.57283  Biso   1.000  C
  C834     1.0000 0.89850  0.61630  0.57283  Biso   1.000  C
  C835     1.0000 0.05036  0.61553  0.90617  Biso   1.000  C
  C836     1.0000 0.38447  0.43484  0.90617  Biso   1.000  C
  C837     1.0000 0.56516  0.94964  0.90617  Biso   1.000  C
  C838     1.0000 0.28297  0.05114  0.76050  Biso   1.000  C
  C839     1.0000 0.94886  0.23183  0.76050  Biso   1.000  C
  C840     1.0000 0.76817  0.71703  0.76050  Biso   1.000  C
  C841     1.0000 0.94964  0.38447  0.09383  Biso   1.000  C
  C842     1.0000 0.61553  0.56516  0.09383  Biso   1.000  C
  C843     1.0000 0.43484  0.05036  0.09383  Biso   1.000  C
  C844     1.0000 0.61630  0.71781  0.42717  Biso   1.000  C
  C845     1.0000 0.28219  0.89850  0.42717  Biso   1.000  C
  C846     1.0000 0.10150  0.38370  0.42717  Biso   1.000  C
  H487     1.0000 0.72270  0.93310  0.21950  Biso   1.000  H
  H488     1.0000 0.06690  0.78960  0.21950  Biso   1.000  H
  H489     1.0000 0.21040  0.27730  0.21950  Biso   1.000  H
  H490     1.0000 0.38937  0.26643  0.55283  Biso   1.000  H
  H491     1.0000 0.73357  0.12293  0.55283  Biso   1.000  H
  H492     1.0000 0.87707  0.61063  0.55283  Biso   1.000  H
  H493     1.0000 0.05603  0.59977  0.88617  Biso   1.000  H
  H494     1.0000 0.40023  0.45627  0.88617  Biso   1.000  H
  H495     1.0000 0.54373  0.94397  0.88617  Biso   1.000  H
  H496     1.0000 0.27730  0.06690  0.78050  Biso   1.000  H
  H497     1.0000 0.93310  0.21040  0.78050  Biso   1.000  H
  H498     1.0000 0.78960  0.72270  0.78050  Biso   1.000  H
  H499     1.0000 0.94397  0.40023  0.11383  Biso   1.000  H
  H500     1.0000 0.59977  0.54373  0.11383  Biso   1.000  H
  H501     1.0000 0.45627  0.05603  0.11383  Biso   1.000  H
  H502     1.0000 0.61063  0.73357  0.44717  Biso   1.000  H
  H503     1.0000 0.26643  0.87707  0.44717  Biso   1.000  H
  H504     1.0000 0.12293  0.38937  0.44717  Biso   1.000  H
  C847     1.0000 0.80612  0.01619  0.04500  Biso   1.000  C
  C848     1.0000 0.98381  0.78993  0.04500  Biso   1.000  C
  C849     1.0000 0.21007  0.19388  0.04500  Biso   1.000  C
  C850     1.0000 0.47279  0.34952  0.37833  Biso   1.000  C
  C851     1.0000 0.65048  0.12326  0.37833  Biso   1.000  C
  C852     1.0000 0.87674  0.52721  0.37833  Biso   1.000  C
  C853     1.0000 0.13945  0.68286  0.71167  Biso   1.000  C
  C854     1.0000 0.31714  0.45660  0.71167  Biso   1.000  C
  C855     1.0000 0.54340  0.86055  0.71167  Biso   1.000  C
  C856     1.0000 0.19388  0.98381  0.95500  Biso   1.000  C
  C857     1.0000 0.01619  0.21007  0.95500  Biso   1.000  C
  C858     1.0000 0.78993  0.80612  0.95500  Biso   1.000  C
  C859     1.0000 0.86055  0.31714  0.28833  Biso   1.000  C
  C860     1.0000 0.68286  0.54340  0.28833  Biso   1.000  C
  C861     1.0000 0.45660  0.13945  0.28833  Biso   1.000  C
  C862     1.0000 0.52721  0.65048  0.62167  Biso   1.000  C
  C863     1.0000 0.34952  0.87674  0.62167  Biso   1.000  C
  C864     1.0000 0.12326  0.47279  0.62167  Biso   1.000  C
  C865     1.0000 0.73048  0.06609  0.36060  Biso   1.000  C
  C866     1.0000 0.93391  0.66439  0.36060  Biso   1.000  C
  C867     1.0000 0.33561  0.26952  0.36060  Biso   1.000  C
  C868     1.0000 0.39715  0.39942  0.69393  Biso   1.000  C
  C869     1.0000 0.60058  0.99772  0.69393  Biso   1.000  C
  C870     1.0000 0.00228  0.60285  0.69393  Biso   1.000  C
  C871     1.0000 0.06381  0.73276  0.02727  Biso   1.000  C
  C872     1.0000 0.26724  0.33106  0.02727  Biso   1.000  C
  C873     1.0000 0.66894  0.93619  0.02727  Biso   1.000  C
  C874     1.0000 0.26952  0.93391  0.63940  Biso   1.000  C
  C875     1.0000 0.06609  0.33561  0.63940  Biso   1.000  C
  C876     1.0000 0.66439  0.73048  0.63940  Biso   1.000  C
  C877     1.0000 0.93619  0.26724  0.97273  Biso   1.000  C
  C878     1.0000 0.73276  0.66894  0.97273  Biso   1.000  C
  C879     1.0000 0.33106  0.06381  0.97273  Biso   1.000  C
  C880     1.0000 0.60285  0.60058  0.30607  Biso   1.000  C
  C881     1.0000 0.39942  0.00228  0.30607  Biso   1.000  C
  C882     1.0000 0.99772  0.39715  0.30607  Biso   1.000  C
  H505     1.0000 0.75490  0.07460  0.36080  Biso   1.000  H
  H506     1.0000 0.92540  0.68030  0.36080  Biso   1.000  H
  H507     1.0000 0.31970  0.24510  0.36080  Biso   1.000  H
  H508     1.0000 0.42157  0.40793  0.69413  Biso   1.000  H
  H509     1.0000 0.59207  0.01363  0.69413  Biso   1.000  H
  H510     1.0000 0.98637  0.57843  0.69413  Biso   1.000  H
  H511     1.0000 0.08823  0.74127  0.02747  Biso   1.000  H
  H512     1.0000 0.25873  0.34697  0.02747  Biso   1.000  H
  H513     1.0000 0.65303  0.91177  0.02747  Biso   1.000  H
  H514     1.0000 0.24510  0.92540  0.63920  Biso   1.000  H
  H515     1.0000 0.07460  0.31970  0.63920  Biso   1.000  H
  H516     1.0000 0.68030  0.75490  0.63920  Biso   1.000  H
  H517     1.0000 0.91177  0.25873  0.97253  Biso   1.000  H
  H518     1.0000 0.74127  0.65303  0.97253  Biso   1.000  H
  H519     1.0000 0.34697  0.08823  0.97253  Biso   1.000  H
  H520     1.0000 0.57843  0.59207  0.30587  Biso   1.000  H
  H521     1.0000 0.40793  0.98637  0.30587  Biso   1.000  H
  H522     1.0000 0.01363  0.42157  0.30587  Biso   1.000  H
  C883     1.0000 0.78199  0.10833  0.17470  Biso   1.000  C
  C884     1.0000 0.89167  0.67366  0.17470  Biso   1.000  C
  C885     1.0000 0.32634  0.21801  0.17470  Biso   1.000  C
  C886     1.0000 0.44866  0.44166  0.50803  Biso   1.000  C
  C887     1.0000 0.55834  0.00699  0.50803  Biso   1.000  C
  C888     1.0000 0.99301  0.55134  0.50803  Biso   1.000  C
  C889     1.0000 0.11532  0.77500  0.84137  Biso   1.000  C
  C890     1.0000 0.22500  0.34033  0.84137  Biso   1.000  C
  C891     1.0000 0.65967  0.88468  0.84137  Biso   1.000  C
  C892     1.0000 0.21801  0.89167  0.82530  Biso   1.000  C
  C893     1.0000 0.10833  0.32634  0.82530  Biso   1.000  C
  C894     1.0000 0.67366  0.78199  0.82530  Biso   1.000  C
  C895     1.0000 0.88468  0.22500  0.15863  Biso   1.000  C
  C896     1.0000 0.77500  0.65967  0.15863  Biso   1.000  C
  C897     1.0000 0.34033  0.11532  0.15863  Biso   1.000  C
  C898     1.0000 0.55134  0.55834  0.49197  Biso   1.000  C
  C899     1.0000 0.44166  0.99301  0.49197  Biso   1.000  C
  C900     1.0000 0.00699  0.44866  0.49197  Biso   1.000  C
  H523     1.0000 0.79350  0.13220  0.16250  Biso   1.000  H
  H524     1.0000 0.86780  0.66130  0.16250  Biso   1.000  H
  H525     1.0000 0.33870  0.20650  0.16250  Biso   1.000  H
  H526     1.0000 0.46017  0.46553  0.49583  Biso   1.000  H
  H527     1.0000 0.53447  0.99463  0.49583  Biso   1.000  H
  H528     1.0000 0.00537  0.53983  0.49583  Biso   1.000  H
  H529     1.0000 0.12683  0.79887  0.82917  Biso   1.000  H
  H530     1.0000 0.20113  0.32797  0.82917  Biso   1.000  H
  H531     1.0000 0.67203  0.87317  0.82917  Biso   1.000  H
  H532     1.0000 0.20650  0.86780  0.83750  Biso   1.000  H
  H533     1.0000 0.13220  0.33870  0.83750  Biso   1.000  H
  H534     1.0000 0.66130  0.79350  0.83750  Biso   1.000  H
  H535     1.0000 0.87317  0.20113  0.17083  Biso   1.000  H
  H536     1.0000 0.79887  0.67203  0.17083  Biso   1.000  H
  H537     1.0000 0.32797  0.12683  0.17083  Biso   1.000  H
  H538     1.0000 0.53983  0.53447  0.50417  Biso   1.000  H
  H539     1.0000 0.46553  0.00537  0.50417  Biso   1.000  H
  H540     1.0000 0.99463  0.46017  0.50417  Biso   1.000  H
  C901     1.0000 0.79764  0.98139  0.04130  Biso   1.000  C
  C902     1.0000 0.01861  0.81625  0.04130  Biso   1.000  C
  C903     1.0000 0.18375  0.20236  0.04130  Biso   1.000  C
  C904     1.0000 0.46431  0.31472  0.37463  Biso   1.000  C
  C905     1.0000 0.68528  0.14958  0.37463  Biso   1.000  C
  C906     1.0000 0.85042  0.53569  0.37463  Biso   1.000  C
  C907     1.0000 0.13097  0.64806  0.70797  Biso   1.000  C
  C908     1.0000 0.35194  0.48292  0.70797  Biso   1.000  C
  C909     1.0000 0.51708  0.86903  0.70797  Biso   1.000  C
  C910     1.0000 0.20236  0.01861  0.95870  Biso   1.000  C
  C911     1.0000 0.98139  0.18375  0.95870  Biso   1.000  C
  C912     1.0000 0.81625  0.79764  0.95870  Biso   1.000  C
  C913     1.0000 0.86903  0.35194  0.29203  Biso   1.000  C
  C914     1.0000 0.64806  0.51708  0.29203  Biso   1.000  C
  C915     1.0000 0.48292  0.13097  0.29203  Biso   1.000  C
  C916     1.0000 0.53569  0.68528  0.62537  Biso   1.000  C
  C917     1.0000 0.31472  0.85042  0.62537  Biso   1.000  C
  C918     1.0000 0.14958  0.46431  0.62537  Biso   1.000  C
  H541     1.0000 0.80600  0.97380  0.00720  Biso   1.000  H
  H542     1.0000 0.02620  0.83220  0.00720  Biso   1.000  H
  H543     1.0000 0.16780  0.19400  0.00720  Biso   1.000  H
  H544     1.0000 0.47267  0.30713  0.34053  Biso   1.000  H
  H545     1.0000 0.69287  0.16553  0.34053  Biso   1.000  H
  H546     1.0000 0.83447  0.52733  0.34053  Biso   1.000  H
  H547     1.0000 0.13933  0.64047  0.67387  Biso   1.000  H
  H548     1.0000 0.35953  0.49887  0.67387  Biso   1.000  H
  H549     1.0000 0.50113  0.86067  0.67387  Biso   1.000  H
  H550     1.0000 0.19400  0.02620  0.99280  Biso   1.000  H
  H551     1.0000 0.97380  0.16780  0.99280  Biso   1.000  H
  H552     1.0000 0.83220  0.80600  0.99280  Biso   1.000  H
  H553     1.0000 0.86067  0.35953  0.32613  Biso   1.000  H
  H554     1.0000 0.64047  0.50113  0.32613  Biso   1.000  H
  H555     1.0000 0.49887  0.13933  0.32613  Biso   1.000  H
  H556     1.0000 0.52733  0.69287  0.65947  Biso   1.000  H
  H557     1.0000 0.30713  0.83447  0.65947  Biso   1.000  H
  H558     1.0000 0.16553  0.47267  0.65947  Biso   1.000  H
  C919     1.0000 0.66138  0.04403  0.36390  Biso   1.000  C
  C920     1.0000 0.95597  0.61735  0.36390  Biso   1.000  C
  C921     1.0000 0.38265  0.33862  0.36390  Biso   1.000  C
  C922     1.0000 0.32805  0.37736  0.69723  Biso   1.000  C
  C923     1.0000 0.62264  0.95068  0.69723  Biso   1.000  C
  C924     1.0000 0.04932  0.67195  0.69723  Biso   1.000  C
  C925     1.0000 0.99471  0.71070  0.03057  Biso   1.000  C
  C926     1.0000 0.28930  0.28402  0.03057  Biso   1.000  C
  C927     1.0000 0.71598  0.00529  0.03057  Biso   1.000  C
  C928     1.0000 0.33862  0.95597  0.63610  Biso   1.000  C
  C929     1.0000 0.04403  0.38265  0.63610  Biso   1.000  C
  C930     1.0000 0.61735  0.66138  0.63610  Biso   1.000  C
  C931     1.0000 0.00529  0.28930  0.96943  Biso   1.000  C
  C932     1.0000 0.71070  0.71598  0.96943  Biso   1.000  C
  C933     1.0000 0.28402  0.99471  0.96943  Biso   1.000  C
  C934     1.0000 0.67195  0.62264  0.30277  Biso   1.000  C
  C935     1.0000 0.37736  0.04932  0.30277  Biso   1.000  C
  C936     1.0000 0.95068  0.32805  0.30277  Biso   1.000  C
  H559     1.0000 0.63720  0.03650  0.36440  Biso   1.000  H
  H560     1.0000 0.96350  0.60070  0.36440  Biso   1.000  H
  H561     1.0000 0.39930  0.36280  0.36440  Biso   1.000  H
  H562     1.0000 0.30387  0.36983  0.69773  Biso   1.000  H
  H563     1.0000 0.63017  0.93403  0.69773  Biso   1.000  H
  H564     1.0000 0.06597  0.69613  0.69773  Biso   1.000  H
  H565     1.0000 0.97053  0.70317  0.03107  Biso   1.000  H
  H566     1.0000 0.29683  0.26737  0.03107  Biso   1.000  H
  H567     1.0000 0.73263  0.02947  0.03107  Biso   1.000  H
  H568     1.0000 0.36280  0.96350  0.63560  Biso   1.000  H
  H569     1.0000 0.03650  0.39930  0.63560  Biso   1.000  H
  H570     1.0000 0.60070  0.63720  0.63560  Biso   1.000  H
  H571     1.0000 0.02947  0.29683  0.96893  Biso   1.000  H
  H572     1.0000 0.70317  0.73263  0.96893  Biso   1.000  H
  H573     1.0000 0.26737  0.97053  0.96893  Biso   1.000  H
  H574     1.0000 0.69613  0.63017  0.30227  Biso   1.000  H
  H575     1.0000 0.36983  0.06597  0.30227  Biso   1.000  H
  H576     1.0000 0.93403  0.30387  0.30227  Biso   1.000  H
  C937     1.0000 0.69321  0.96982  0.30600  Biso   1.000  C
  C938     1.0000 0.03018  0.72339  0.30600  Biso   1.000  C
  C939     1.0000 0.27661  0.30679  0.30600  Biso   1.000  C
  C940     1.0000 0.35988  0.30315  0.63933  Biso   1.000  C
  C941     1.0000 0.69685  0.05672  0.63933  Biso   1.000  C
  C942     1.0000 0.94328  0.64012  0.63933  Biso   1.000  C
  C943     1.0000 0.02654  0.63649  0.97267  Biso   1.000  C
  C944     1.0000 0.36351  0.39006  0.97267  Biso   1.000  C
  C945     1.0000 0.60994  0.97346  0.97267  Biso   1.000  C
  C946     1.0000 0.30679  0.03018  0.69400  Biso   1.000  C
  C947     1.0000 0.96982  0.27661  0.69400  Biso   1.000  C
  C948     1.0000 0.72339  0.69321  0.69400  Biso   1.000  C
  C949     1.0000 0.97346  0.36351  0.02733  Biso   1.000  C
  C950     1.0000 0.63649  0.60994  0.02733  Biso   1.000  C
  C951     1.0000 0.39006  0.02654  0.02733  Biso   1.000  C
  C952     1.0000 0.64012  0.69685  0.36067  Biso   1.000  C
  C953     1.0000 0.30315  0.94328  0.36067  Biso   1.000  C
  C954     1.0000 0.05672  0.35988  0.36067  Biso   1.000  C
  H577     1.0000 0.68000  0.97220  0.33890  Biso   1.000  H
  H578     1.0000 0.02780  0.70780  0.33890  Biso   1.000  H
  H579     1.0000 0.29220  0.32000  0.33890  Biso   1.000  H
  H580     1.0000 0.34667  0.30553  0.67223  Biso   1.000  H
  H581     1.0000 0.69447  0.04113  0.67223  Biso   1.000  H
  H582     1.0000 0.95887  0.65333  0.67223  Biso   1.000  H
  H583     1.0000 0.01333  0.63887  0.00557  Biso   1.000  H
  H584     1.0000 0.36113  0.37447  0.00557  Biso   1.000  H
  H585     1.0000 0.62553  0.98667  0.00557  Biso   1.000  H
  H586     1.0000 0.32000  0.02780  0.66110  Biso   1.000  H
  H587     1.0000 0.97220  0.29220  0.66110  Biso   1.000  H
  H588     1.0000 0.70780  0.68000  0.66110  Biso   1.000  H
  H589     1.0000 0.98667  0.36113  0.99443  Biso   1.000  H
  H590     1.0000 0.63887  0.62553  0.99443  Biso   1.000  H
  H591     1.0000 0.37447  0.01333  0.99443  Biso   1.000  H
  H592     1.0000 0.65333  0.69447  0.32777  Biso   1.000  H
  H593     1.0000 0.30553  0.95887  0.32777  Biso   1.000  H
  H594     1.0000 0.04113  0.34667  0.32777  Biso   1.000  H
  C955     1.0000 0.74843  0.05703  0.22280  Biso   1.000  C
  C956     1.0000 0.94297  0.69140  0.22280  Biso   1.000  C
  C957     1.0000 0.30860  0.25157  0.22280  Biso   1.000  C
  C958     1.0000 0.41510  0.39036  0.55613  Biso   1.000  C
  C959     1.0000 0.60964  0.02473  0.55613  Biso   1.000  C
  C960     1.0000 0.97527  0.58490  0.55613  Biso   1.000  C
  C961     1.0000 0.08176  0.72370  0.88947  Biso   1.000  C
  C962     1.0000 0.27630  0.35807  0.88947  Biso   1.000  C
  C963     1.0000 0.64193  0.91824  0.88947  Biso   1.000  C
  C964     1.0000 0.25157  0.94297  0.77720  Biso   1.000  C
  C965     1.0000 0.05703  0.30860  0.77720  Biso   1.000  C
  C966     1.0000 0.69140  0.74843  0.77720  Biso   1.000  C
  C967     1.0000 0.91824  0.27630  0.11053  Biso   1.000  C
  C968     1.0000 0.72370  0.64193  0.11053  Biso   1.000  C
  C969     1.0000 0.35807  0.08176  0.11053  Biso   1.000  C
  C970     1.0000 0.58490  0.60964  0.44387  Biso   1.000  C
  C971     1.0000 0.39036  0.97527  0.44387  Biso   1.000  C
  C972     1.0000 0.02473  0.41510  0.44387  Biso   1.000  C
  C973     1.0000 0.76870  0.91990  0.07990  Biso   1.000  C
  C974     1.0000 0.08010  0.84880  0.07990  Biso   1.000  C
  C975     1.0000 0.15120  0.23130  0.07990  Biso   1.000  C
  C976     1.0000 0.43537  0.25323  0.41323  Biso   1.000  C
  C977     1.0000 0.74677  0.18213  0.41323  Biso   1.000  C
  C978     1.0000 0.81787  0.56463  0.41323  Biso   1.000  C
  C979     1.0000 0.10203  0.58657  0.74657  Biso   1.000  C
  C980     1.0000 0.41343  0.51547  0.74657  Biso   1.000  C
  C981     1.0000 0.48453  0.89797  0.74657  Biso   1.000  C
  C982     1.0000 0.23130  0.08010  0.92010  Biso   1.000  C
  C983     1.0000 0.91990  0.15120  0.92010  Biso   1.000  C
  C984     1.0000 0.84880  0.76870  0.92010  Biso   1.000  C
  C985     1.0000 0.89797  0.41343  0.25343  Biso   1.000  C
  C986     1.0000 0.58657  0.48453  0.25343  Biso   1.000  C
  C987     1.0000 0.51547  0.10203  0.25343  Biso   1.000  C
  C988     1.0000 0.56463  0.74677  0.58677  Biso   1.000  C
  C989     1.0000 0.25323  0.81787  0.58677  Biso   1.000  C
  C990     1.0000 0.18213  0.43537  0.58677  Biso   1.000  C
  C991     1.0000 0.77725  0.95798  0.08680  Biso   1.000  C
  C992     1.0000 0.04202  0.81927  0.08680  Biso   1.000  C
  C993     1.0000 0.18073  0.22275  0.08680  Biso   1.000  C
  C994     1.0000 0.44392  0.29131  0.42013  Biso   1.000  C
  C995     1.0000 0.70869  0.15260  0.42013  Biso   1.000  C
  C996     1.0000 0.84740  0.55608  0.42013  Biso   1.000  C
  C997     1.0000 0.11058  0.62465  0.75347  Biso   1.000  C
  C998     1.0000 0.37535  0.48594  0.75347  Biso   1.000  C
  C999     1.0000 0.51406  0.88942  0.75347  Biso   1.000  C
  C1000    1.0000 0.22275  0.04202  0.91320  Biso   1.000  C
  C1001    1.0000 0.95798  0.18073  0.91320  Biso   1.000  C
  C1002    1.0000 0.81927  0.77725  0.91320  Biso   1.000  C
  C1003    1.0000 0.88942  0.37535  0.24653  Biso   1.000  C
  C1004    1.0000 0.62465  0.51406  0.24653  Biso   1.000  C
  C1005    1.0000 0.48594  0.11058  0.24653  Biso   1.000  C
  C1006    1.0000 0.55608  0.70869  0.57987  Biso   1.000  C
  C1007    1.0000 0.29131  0.84740  0.57987  Biso   1.000  C
  C1008    1.0000 0.15260  0.44392  0.57987  Biso   1.000  C
  F217     1.0000 0.84408  0.02931  0.95780  Biso   1.000  F
  F218     1.0000 0.97069  0.81477  0.95780  Biso   1.000  F
  F219     1.0000 0.18523  0.15592  0.95780  Biso   1.000  F
  F220     1.0000 0.51075  0.36264  0.29113  Biso   1.000  F
  F221     1.0000 0.63736  0.14810  0.29113  Biso   1.000  F
  F222     1.0000 0.85190  0.48925  0.29113  Biso   1.000  F
  F223     1.0000 0.17741  0.69598  0.62447  Biso   1.000  F
  F224     1.0000 0.30402  0.48144  0.62447  Biso   1.000  F
  F225     1.0000 0.51856  0.82259  0.62447  Biso   1.000  F
  F226     1.0000 0.15592  0.97069  0.04220  Biso   1.000  F
  F227     1.0000 0.02931  0.18523  0.04220  Biso   1.000  F
  F228     1.0000 0.81477  0.84408  0.04220  Biso   1.000  F
  F229     1.0000 0.82259  0.30402  0.37553  Biso   1.000  F
  F230     1.0000 0.69598  0.51856  0.37553  Biso   1.000  F
  F231     1.0000 0.48144  0.17741  0.37553  Biso   1.000  F
  F232     1.0000 0.48925  0.63736  0.70887  Biso   1.000  F
  F233     1.0000 0.36264  0.85190  0.70887  Biso   1.000  F
  F234     1.0000 0.14810  0.51075  0.70887  Biso   1.000  F
  F235     1.0000 0.81002  0.04918  0.95630  Biso   1.000  F
  F236     1.0000 0.95082  0.76084  0.95630  Biso   1.000  F
  F237     1.0000 0.23916  0.18998  0.95630  Biso   1.000  F
  F238     1.0000 0.47669  0.38251  0.28963  Biso   1.000  F
  F239     1.0000 0.61749  0.09417  0.28963  Biso   1.000  F
  F240     1.0000 0.90583  0.52331  0.28963  Biso   1.000  F
  F241     1.0000 0.14335  0.71585  0.62297  Biso   1.000  F
  F242     1.0000 0.28415  0.42751  0.62297  Biso   1.000  F
  F243     1.0000 0.57249  0.85665  0.62297  Biso   1.000  F
  F244     1.0000 0.18998  0.95082  0.04370  Biso   1.000  F
  F245     1.0000 0.04918  0.23916  0.04370  Biso   1.000  F
  F246     1.0000 0.76084  0.81002  0.04370  Biso   1.000  F
  F247     1.0000 0.85665  0.28415  0.37703  Biso   1.000  F
  F248     1.0000 0.71585  0.57249  0.37703  Biso   1.000  F
  F249     1.0000 0.42751  0.14335  0.37703  Biso   1.000  F
  F250     1.0000 0.52331  0.61749  0.71037  Biso   1.000  F
  F251     1.0000 0.38251  0.90583  0.71037  Biso   1.000  F
  F252     1.0000 0.09417  0.47669  0.71037  Biso   1.000  F
  F253     1.0000 0.77610  0.91284  0.02690  Biso   1.000  F
  F254     1.0000 0.08716  0.86326  0.02690  Biso   1.000  F
  F255     1.0000 0.13674  0.22390  0.02690  Biso   1.000  F
  F256     1.0000 0.44277  0.24617  0.36023  Biso   1.000  F
  F257     1.0000 0.75383  0.19659  0.36023  Biso   1.000  F
  F258     1.0000 0.80341  0.55723  0.36023  Biso   1.000  F
  F259     1.0000 0.10943  0.57951  0.69357  Biso   1.000  F
  F260     1.0000 0.42049  0.52993  0.69357  Biso   1.000  F
  F261     1.0000 0.47007  0.89057  0.69357  Biso   1.000  F
  F262     1.0000 0.22390  0.08716  0.97310  Biso   1.000  F
  F263     1.0000 0.91284  0.13674  0.97310  Biso   1.000  F
  F264     1.0000 0.86326  0.77610  0.97310  Biso   1.000  F
  F265     1.0000 0.89057  0.42049  0.30643  Biso   1.000  F
  F266     1.0000 0.57951  0.47007  0.30643  Biso   1.000  F
  F267     1.0000 0.52993  0.10943  0.30643  Biso   1.000  F
  F268     1.0000 0.55723  0.75383  0.63977  Biso   1.000  F
  F269     1.0000 0.24617  0.80341  0.63977  Biso   1.000  F
  F270     1.0000 0.19659  0.44277  0.63977  Biso   1.000  F
  C1009    1.0000 0.82930  0.04170  0.99440  Biso   1.000  C
  C1010    1.0000 0.95830  0.78760  0.99440  Biso   1.000  C
  C1011    1.0000 0.21240  0.17070  0.99440  Biso   1.000  C
  C1012    1.0000 0.49597  0.37503  0.32773  Biso   1.000  C
  C1013    1.0000 0.62497  0.12093  0.32773  Biso   1.000  C
  C1014    1.0000 0.87907  0.50403  0.32773  Biso   1.000  C
  C1015    1.0000 0.16263  0.70837  0.66107  Biso   1.000  C
  C1016    1.0000 0.29163  0.45427  0.66107  Biso   1.000  C
  C1017    1.0000 0.54573  0.83737  0.66107  Biso   1.000  C
  C1018    1.0000 0.17070  0.95830  0.00560  Biso   1.000  C
  C1019    1.0000 0.04170  0.21240  0.00560  Biso   1.000  C
  C1020    1.0000 0.78760  0.82930  0.00560  Biso   1.000  C
  C1021    1.0000 0.83737  0.29163  0.33893  Biso   1.000  C
  C1022    1.0000 0.70837  0.54573  0.33893  Biso   1.000  C
  C1023    1.0000 0.45427  0.16263  0.33893  Biso   1.000  C
  C1024    1.0000 0.50403  0.62497  0.67227  Biso   1.000  C
  C1025    1.0000 0.37503  0.87907  0.67227  Biso   1.000  C
  C1026    1.0000 0.12093  0.49597  0.67227  Biso   1.000  C
  F271     1.0000 0.85250  0.07119  0.01730  Biso   1.000  F
  F272     1.0000 0.92881  0.78131  0.01730  Biso   1.000  F
  F273     1.0000 0.21869  0.14750  0.01730  Biso   1.000  F
  F274     1.0000 0.51917  0.40452  0.35063  Biso   1.000  F
  F275     1.0000 0.59548  0.11464  0.35063  Biso   1.000  F
  F276     1.0000 0.88536  0.48083  0.35063  Biso   1.000  F
  F277     1.0000 0.18583  0.73786  0.68397  Biso   1.000  F
  F278     1.0000 0.26214  0.44798  0.68397  Biso   1.000  F
  F279     1.0000 0.55202  0.81417  0.68397  Biso   1.000  F
  F280     1.0000 0.14750  0.92881  0.98270  Biso   1.000  F
  F281     1.0000 0.07119  0.21869  0.98270  Biso   1.000  F
  F282     1.0000 0.78131  0.85250  0.98270  Biso   1.000  F
  F283     1.0000 0.81417  0.26214  0.31603  Biso   1.000  F
  F284     1.0000 0.73786  0.55202  0.31603  Biso   1.000  F
  F285     1.0000 0.44798  0.18583  0.31603  Biso   1.000  F
  F286     1.0000 0.48083  0.59548  0.64937  Biso   1.000  F
  F287     1.0000 0.40452  0.88536  0.64937  Biso   1.000  F
  F288     1.0000 0.11464  0.51917  0.64937  Biso   1.000  F
  F289     1.0000 0.73740  0.89791  0.09260  Biso   1.000  F
  F290     1.0000 0.10209  0.83949  0.09260  Biso   1.000  F
  F291     1.0000 0.16051  0.26260  0.09260  Biso   1.000  F
  F292     1.0000 0.40407  0.23124  0.42593  Biso   1.000  F
  F293     1.0000 0.76876  0.17282  0.42593  Biso   1.000  F
  F294     1.0000 0.82718  0.59593  0.42593  Biso   1.000  F
  F295     1.0000 0.07073  0.56458  0.75927  Biso   1.000  F
  F296     1.0000 0.43542  0.50616  0.75927  Biso   1.000  F
  F297     1.0000 0.49384  0.92927  0.75927  Biso   1.000  F
  F298     1.0000 0.26260  0.10209  0.90740  Biso   1.000  F
  F299     1.0000 0.89791  0.16051  0.90740  Biso   1.000  F
  F300     1.0000 0.83949  0.73740  0.90740  Biso   1.000  F
  F301     1.0000 0.92927  0.43542  0.24073  Biso   1.000  F
  F302     1.0000 0.56458  0.49384  0.24073  Biso   1.000  F
  F303     1.0000 0.50616  0.07073  0.24073  Biso   1.000  F
  F304     1.0000 0.59593  0.76876  0.57407  Biso   1.000  F
  F305     1.0000 0.23124  0.82718  0.57407  Biso   1.000  F
  F306     1.0000 0.17282  0.40407  0.57407  Biso   1.000  F
  F307     1.0000 0.78690  0.91300  0.11720  Biso   1.000  F
  F308     1.0000 0.08700  0.87390  0.11720  Biso   1.000  F
  F309     1.0000 0.12610  0.21310  0.11720  Biso   1.000  F
  F310     1.0000 0.45357  0.24633  0.45053  Biso   1.000  F
  F311     1.0000 0.75367  0.20723  0.45053  Biso   1.000  F
  F312     1.0000 0.79277  0.54643  0.45053  Biso   1.000  F
  F313     1.0000 0.12023  0.57967  0.78387  Biso   1.000  F
  F314     1.0000 0.42033  0.54057  0.78387  Biso   1.000  F
  F315     1.0000 0.45943  0.87977  0.78387  Biso   1.000  F
  F316     1.0000 0.21310  0.08700  0.88280  Biso   1.000  F
  F317     1.0000 0.91300  0.12610  0.88280  Biso   1.000  F
  F318     1.0000 0.87390  0.78690  0.88280  Biso   1.000  F
  F319     1.0000 0.87977  0.42033  0.21613  Biso   1.000  F
  F320     1.0000 0.57967  0.45943  0.21613  Biso   1.000  F
  F321     1.0000 0.54057  0.12023  0.21613  Biso   1.000  F
  F322     1.0000 0.54643  0.75367  0.54947  Biso   1.000  F
  F323     1.0000 0.24633  0.79277  0.54947  Biso   1.000  F
  F324     1.0000 0.20723  0.45357  0.54947  Biso   1.000  F
