data_image0
_cell_length_a       19.1157
_cell_length_b       20.9966
_cell_length_c       35.435
_cell_angle_alpha    90
_cell_angle_beta     97.521
_cell_angle_gamma    90

_symmetry_space_group_name_H-M    "P 1"
_symmetry_int_tables_number       1

loop_
  _symmetry_equiv_pos_as_xyz
  'x, y, z'

loop_
  _atom_site_label
  _atom_site_occupancy
  _atom_site_fract_x
  _atom_site_fract_y
  _atom_site_fract_z
  _atom_site_thermal_displace_type
  _atom_site_B_iso_or_equiv
  _atom_site_type_symbol
  C1       1.0000 0.18152  0.74275  0.49443  Biso   1.000  C
  C2       1.0000 0.81848  0.24275  0.00557  Biso   1.000  C
  C3       1.0000 0.81848  0.25725  0.50557  Biso   1.000  C
  C4       1.0000 0.18152  0.75725  0.99443  Biso   1.000  C
  C5       1.0000 0.15097  0.79925  0.47998  Biso   1.000  C
  C6       1.0000 0.84903  0.29925  0.02002  Biso   1.000  C
  C7       1.0000 0.84903  0.20075  0.52002  Biso   1.000  C
  C8       1.0000 0.15097  0.70075  0.97998  Biso   1.000  C
  H1       1.0000 0.15568  0.83614  0.49461  Biso   1.000  H
  H2       1.0000 0.84432  0.33614  0.00539  Biso   1.000  H
  H3       1.0000 0.84432  0.16386  0.50539  Biso   1.000  H
  H4       1.0000 0.15568  0.66386  0.99461  Biso   1.000  H
  C9       1.0000 0.11339  0.80060  0.44365  Biso   1.000  C
  C10      1.0000 0.88661  0.30060  0.05635  Biso   1.000  C
  C11      1.0000 0.88661  0.19940  0.55635  Biso   1.000  C
  C12      1.0000 0.11339  0.69940  0.94365  Biso   1.000  C
  H5       1.0000 0.09295  0.83840  0.43397  Biso   1.000  H
  H6       1.0000 0.90705  0.33840  0.06603  Biso   1.000  H
  H7       1.0000 0.90705  0.16160  0.56603  Biso   1.000  H
  H8       1.0000 0.09295  0.66160  0.93397  Biso   1.000  H
  C13      1.0000 0.10635  0.74550  0.42177  Biso   1.000  C
  C14      1.0000 0.89365  0.24550  0.07823  Biso   1.000  C
  C15      1.0000 0.89365  0.25450  0.57823  Biso   1.000  C
  C16      1.0000 0.10635  0.75450  0.92177  Biso   1.000  C
  H9       1.0000 0.08120  0.74636  0.39746  Biso   1.000  H
  H10      1.0000 0.91880  0.24636  0.10254  Biso   1.000  H
  H11      1.0000 0.91880  0.25364  0.60254  Biso   1.000  H
  H12      1.0000 0.08120  0.75364  0.89746  Biso   1.000  H
  C17      1.0000 0.13690  0.68900  0.43623  Biso   1.000  C
  C18      1.0000 0.86310  0.18900  0.06377  Biso   1.000  C
  C19      1.0000 0.86310  0.31100  0.56377  Biso   1.000  C
  C20      1.0000 0.13690  0.81100  0.93623  Biso   1.000  C
  H13      1.0000 0.13219  0.65207  0.42159  Biso   1.000  H
  H14      1.0000 0.86781  0.15207  0.07841  Biso   1.000  H
  H15      1.0000 0.86781  0.34793  0.57841  Biso   1.000  H
  H16      1.0000 0.13219  0.84793  0.92159  Biso   1.000  H
  C21      1.0000 0.17450  0.68761  0.47256  Biso   1.000  C
  C22      1.0000 0.82550  0.18761  0.02744  Biso   1.000  C
  C23      1.0000 0.82550  0.31239  0.52744  Biso   1.000  C
  C24      1.0000 0.17450  0.81239  0.97256  Biso   1.000  C
  H17      1.0000 0.19492  0.64981  0.48223  Biso   1.000  H
  H18      1.0000 0.80508  0.14981  0.01777  Biso   1.000  H
  H19      1.0000 0.80508  0.35019  0.51777  Biso   1.000  H
  H20      1.0000 0.19492  0.85019  0.98223  Biso   1.000  H
  Cu1      1.0000 0.42594  0.30800  0.67906  Biso   1.000  Cu
  Cu2      1.0000 0.57406  0.80800  0.82094  Biso   1.000  Cu
  Cu3      1.0000 0.57406  0.69200  0.32094  Biso   1.000  Cu
  Cu4      1.0000 0.42594  0.19200  0.17906  Biso   1.000  Cu
  Cu5      1.0000 0.46725  0.76806  0.73965  Biso   1.000  Cu
  Cu6      1.0000 0.53275  0.26806  0.76035  Biso   1.000  Cu
  Cu7      1.0000 0.53275  0.23194  0.26035  Biso   1.000  Cu
  Cu8      1.0000 0.46725  0.73194  0.23965  Biso   1.000  Cu
  Cu9      1.0000 0.96144  0.64652  0.68902  Biso   1.000  Cu
  Cu10     1.0000 0.03856  0.14652  0.81098  Biso   1.000  Cu
  Cu11     1.0000 0.03856  0.35348  0.31098  Biso   1.000  Cu
  Cu12     1.0000 0.96144  0.85348  0.18902  Biso   1.000  Cu
  Cu13     1.0000 0.07231  0.68203  0.76892  Biso   1.000  Cu
  Cu14     1.0000 0.92769  0.18203  0.73108  Biso   1.000  Cu
  Cu15     1.0000 0.92769  0.31797  0.23108  Biso   1.000  Cu
  Cu16     1.0000 0.07231  0.81797  0.26892  Biso   1.000  Cu
  Cu17     1.0000 0.41851  0.37932  0.76165  Biso   1.000  Cu
  Cu18     1.0000 0.58149  0.87932  0.73835  Biso   1.000  Cu
  Cu19     1.0000 0.58149  0.62068  0.23835  Biso   1.000  Cu
  Cu20     1.0000 0.41851  0.12068  0.26165  Biso   1.000  Cu
  Cu21     1.0000 0.95338  0.57434  0.77160  Biso   1.000  Cu
  Cu22     1.0000 0.04662  0.07434  0.72840  Biso   1.000  Cu
  Cu23     1.0000 0.04662  0.42566  0.22840  Biso   1.000  Cu
  Cu24     1.0000 0.95338  0.92566  0.27160  Biso   1.000  Cu
  Cu25     1.0000 0.46565  0.84776  0.66361  Biso   1.000  Cu
  Cu26     1.0000 0.53435  0.34776  0.83639  Biso   1.000  Cu
  Cu27     1.0000 0.53435  0.15224  0.33639  Biso   1.000  Cu
  Cu28     1.0000 0.46565  0.65224  0.16361  Biso   1.000  Cu
  Cu29     1.0000 0.93009  0.11019  0.65345  Biso   1.000  Cu
  Cu30     1.0000 0.06991  0.61019  0.84655  Biso   1.000  Cu
  Cu31     1.0000 0.06991  0.88981  0.34655  Biso   1.000  Cu
  Cu32     1.0000 0.93009  0.38981  0.15345  Biso   1.000  Cu
  O1       1.0000 0.43076  0.29210  0.73318  Biso   1.000  O
  O2       1.0000 0.56924  0.79210  0.76682  Biso   1.000  O
  O3       1.0000 0.56924  0.70790  0.26682  Biso   1.000  O
  O4       1.0000 0.43076  0.20790  0.23318  Biso   1.000  O
  O5       1.0000 0.54903  0.83208  0.63958  Biso   1.000  O
  O6       1.0000 0.45097  0.33208  0.86042  Biso   1.000  O
  O7       1.0000 0.45097  0.16792  0.36042  Biso   1.000  O
  O8       1.0000 0.54903  0.66792  0.13958  Biso   1.000  O
  O9       1.0000 0.96836  0.66038  0.74348  Biso   1.000  O
  O10      1.0000 0.03164  0.16038  0.75652  Biso   1.000  O
  O11      1.0000 0.03164  0.33962  0.25652  Biso   1.000  O
  O12      1.0000 0.96836  0.83962  0.24348  Biso   1.000  O
  O13      1.0000 0.47753  0.85798  0.71837  Biso   1.000  O
  O14      1.0000 0.52247  0.35798  0.78163  Biso   1.000  O
  O15      1.0000 0.52247  0.14202  0.28163  Biso   1.000  O
  O16      1.0000 0.47753  0.64202  0.21837  Biso   1.000  O
  O17      1.0000 0.33774  0.29426  0.64536  Biso   1.000  O
  O18      1.0000 0.66226  0.79426  0.85464  Biso   1.000  O
  O19      1.0000 0.66226  0.70574  0.35464  Biso   1.000  O
  O20      1.0000 0.33774  0.20574  0.14536  Biso   1.000  O
  O21      1.0000 0.36603  0.76073  0.70691  Biso   1.000  O
  O22      1.0000 0.63397  0.26073  0.79309  Biso   1.000  O
  O23      1.0000 0.63397  0.23927  0.29309  Biso   1.000  O
  O24      1.0000 0.36603  0.73927  0.20691  Biso   1.000  O
  O25      1.0000 0.58129  0.26776  0.71315  Biso   1.000  O
  O26      1.0000 0.41871  0.76776  0.78685  Biso   1.000  O
  O27      1.0000 0.41871  0.73224  0.28685  Biso   1.000  O
  O28      1.0000 0.58129  0.23224  0.21315  Biso   1.000  O
  O29      1.0000 0.94139  0.09364  0.70789  Biso   1.000  O
  O30      1.0000 0.05861  0.59364  0.79211  Biso   1.000  O
  O31      1.0000 0.05861  0.90636  0.29211  Biso   1.000  O
  O32      1.0000 0.94139  0.40636  0.20789  Biso   1.000  O
  O33      1.0000 0.62038  0.82872  0.69456  Biso   1.000  O
  O34      1.0000 0.37962  0.32872  0.80544  Biso   1.000  O
  O35      1.0000 0.37962  0.17128  0.30544  Biso   1.000  O
  O36      1.0000 0.62038  0.67128  0.19456  Biso   1.000  O
  O37      1.0000 0.82816  0.19147  0.69896  Biso   1.000  O
  O38      1.0000 0.17184  0.69147  0.80104  Biso   1.000  O
  O39      1.0000 0.17184  0.80853  0.30104  Biso   1.000  O
  O40      1.0000 0.82816  0.30853  0.19896  Biso   1.000  O
  O41      1.0000 0.87545  0.66500  0.65555  Biso   1.000  O
  O42      1.0000 0.12455  0.16500  0.84445  Biso   1.000  O
  O43      1.0000 0.12455  0.33500  0.34445  Biso   1.000  O
  O44      1.0000 0.87545  0.83500  0.15555  Biso   1.000  O
  O45      1.0000 0.50167  0.25809  0.66095  Biso   1.000  O
  O46      1.0000 0.49833  0.75809  0.83905  Biso   1.000  O
  O47      1.0000 0.49833  0.74191  0.33905  Biso   1.000  O
  O48      1.0000 0.50167  0.24191  0.16095  Biso   1.000  O
  O49      1.0000 0.98682  0.56093  0.67591  Biso   1.000  O
  O50      1.0000 0.01318  0.06093  0.82409  Biso   1.000  O
  O51      1.0000 0.01318  0.43907  0.32409  Biso   1.000  O
  O52      1.0000 0.98682  0.93907  0.17591  Biso   1.000  O
  O53      1.0000 0.37807  0.80188  0.64933  Biso   1.000  O
  O54      1.0000 0.62193  0.30188  0.85067  Biso   1.000  O
  O55      1.0000 0.62193  0.19812  0.35067  Biso   1.000  O
  O56      1.0000 0.37807  0.69812  0.14933  Biso   1.000  O
  O57      1.0000 0.12054  0.68182  0.72174  Biso   1.000  O
  O58      1.0000 0.87946  0.18182  0.77826  Biso   1.000  O
  O59      1.0000 0.87946  0.31818  0.27826  Biso   1.000  O
  O60      1.0000 0.12054  0.81818  0.22174  Biso   1.000  O
  O61      1.0000 0.46319  0.39241  0.66814  Biso   1.000  O
  O62      1.0000 0.53681  0.89241  0.83186  Biso   1.000  O
  O63      1.0000 0.53681  0.60759  0.33186  Biso   1.000  O
  O64      1.0000 0.46319  0.10759  0.16814  Biso   1.000  O
  O65      1.0000 0.01521  0.12158  0.63067  Biso   1.000  O
  O66      1.0000 0.98479  0.62158  0.86933  Biso   1.000  O
  O67      1.0000 0.98479  0.87842  0.36933  Biso   1.000  O
  O68      1.0000 0.01521  0.37842  0.13067  Biso   1.000  O
  O69      1.0000 0.08786  0.12674  0.68530  Biso   1.000  O
  O70      1.0000 0.91214  0.62674  0.81470  Biso   1.000  O
  O71      1.0000 0.91214  0.87326  0.31470  Biso   1.000  O
  O72      1.0000 0.08786  0.37326  0.18530  Biso   1.000  O
  O73      1.0000 0.45268  0.44068  0.72321  Biso   1.000  O
  O74      1.0000 0.54732  0.94068  0.77679  Biso   1.000  O
  O75      1.0000 0.54732  0.55932  0.27679  Biso   1.000  O
  O76      1.0000 0.45268  0.05932  0.22321  Biso   1.000  O
  O77      1.0000 0.03897  0.69419  0.67093  Biso   1.000  O
  O78      1.0000 0.96103  0.19419  0.82907  Biso   1.000  O
  O79      1.0000 0.96103  0.30581  0.32907  Biso   1.000  O
  O80      1.0000 0.03897  0.80581  0.17093  Biso   1.000  O
  O81      1.0000 0.84148  0.15428  0.64059  Biso   1.000  O
  O82      1.0000 0.15852  0.65428  0.85941  Biso   1.000  O
  O83      1.0000 0.15852  0.84572  0.35941  Biso   1.000  O
  O84      1.0000 0.84148  0.34572  0.14059  Biso   1.000  O
  O85      1.0000 0.31616  0.38351  0.73445  Biso   1.000  O
  O86      1.0000 0.68384  0.88351  0.76555  Biso   1.000  O
  O87      1.0000 0.68384  0.61649  0.26555  Biso   1.000  O
  O88      1.0000 0.31616  0.11649  0.23445  Biso   1.000  O
  O89      1.0000 0.48456  0.67314  0.73289  Biso   1.000  O
  O90      1.0000 0.51544  0.17314  0.76711  Biso   1.000  O
  O91      1.0000 0.51544  0.32686  0.26711  Biso   1.000  O
  O92      1.0000 0.48456  0.82686  0.23289  Biso   1.000  O
  O93      1.0000 0.32862  0.21006  0.68225  Biso   1.000  O
  O94      1.0000 0.67138  0.71006  0.81775  Biso   1.000  O
  O95      1.0000 0.67138  0.78994  0.31775  Biso   1.000  O
  O96      1.0000 0.32862  0.28994  0.18225  Biso   1.000  O
  O97      1.0000 0.98550  0.51248  0.73175  Biso   1.000  O
  O98      1.0000 0.01450  0.01248  0.76825  Biso   1.000  O
  O99      1.0000 0.01450  0.48752  0.26825  Biso   1.000  O
  O100     1.0000 0.98550  0.98752  0.23175  Biso   1.000  O
  O101     1.0000 0.50937  0.72494  0.68179  Biso   1.000  O
  O102     1.0000 0.49063  0.22494  0.81821  Biso   1.000  O
  O103     1.0000 0.49063  0.27506  0.31821  Biso   1.000  O
  O104     1.0000 0.50937  0.77506  0.18179  Biso   1.000  O
  O105     1.0000 0.85124  0.56593  0.74359  Biso   1.000  O
  O106     1.0000 0.14876  0.06593  0.75641  Biso   1.000  O
  O107     1.0000 0.14876  0.43407  0.25641  Biso   1.000  O
  O108     1.0000 0.85124  0.93407  0.24359  Biso   1.000  O
  O109     1.0000 0.97142  0.22612  0.67309  Biso   1.000  O
  O110     1.0000 0.02858  0.72612  0.82691  Biso   1.000  O
  O111     1.0000 0.02858  0.77388  0.32691  Biso   1.000  O
  O112     1.0000 0.97142  0.27388  0.17309  Biso   1.000  O
  O113     1.0000 0.95349  0.27576  0.72574  Biso   1.000  O
  O114     1.0000 0.04651  0.77576  0.77426  Biso   1.000  O
  O115     1.0000 0.04651  0.72424  0.27426  Biso   1.000  O
  O116     1.0000 0.95349  0.22424  0.22574  Biso   1.000  O
  O117     1.0000 0.40610  0.46059  0.79491  Biso   1.000  O
  O118     1.0000 0.59390  0.96059  0.70509  Biso   1.000  O
  O119     1.0000 0.59390  0.53941  0.20509  Biso   1.000  O
  O120     1.0000 0.40610  0.03941  0.29491  Biso   1.000  O
  H21      1.0000 0.36981  0.46799  0.80961  Biso   1.000  H
  H22      1.0000 0.63019  0.96799  0.69039  Biso   1.000  H
  H23      1.0000 0.63019  0.53201  0.19039  Biso   1.000  H
  H24      1.0000 0.36981  0.03201  0.30961  Biso   1.000  H
  H25      1.0000 0.43605  0.49594  0.79756  Biso   1.000  H
  H26      1.0000 0.56395  0.99594  0.70244  Biso   1.000  H
  H27      1.0000 0.56395  0.50406  0.20244  Biso   1.000  H
  H28      1.0000 0.43605  0.00406  0.29756  Biso   1.000  H
  N1       1.0000 0.66177  0.67648  0.55640  Biso   1.000  N
  N2       1.0000 0.33823  0.17648  0.94360  Biso   1.000  N
  N3       1.0000 0.33823  0.32352  0.44360  Biso   1.000  N
  N4       1.0000 0.66177  0.82352  0.05640  Biso   1.000  N
  H29      1.0000 0.68751  0.64627  0.54932  Biso   1.000  H
  H30      1.0000 0.31249  0.14627  0.95068  Biso   1.000  H
  H31      1.0000 0.31249  0.35373  0.45068  Biso   1.000  H
  H32      1.0000 0.68751  0.85373  0.04932  Biso   1.000  H
  N5       1.0000 0.58991  0.55500  0.59583  Biso   1.000  N
  N6       1.0000 0.41009  0.05500  0.90417  Biso   1.000  N
  N7       1.0000 0.41009  0.44500  0.40417  Biso   1.000  N
  N8       1.0000 0.58991  0.94500  0.09583  Biso   1.000  N
  H33      1.0000 0.59121  0.59045  0.58379  Biso   1.000  H
  H34      1.0000 0.40879  0.09045  0.91621  Biso   1.000  H
  H35      1.0000 0.40879  0.40955  0.41621  Biso   1.000  H
  H36      1.0000 0.59121  0.90955  0.08379  Biso   1.000  H
  N9       1.0000 0.65136  0.25993  0.55361  Biso   1.000  N
  N10      1.0000 0.34864  0.75993  0.94639  Biso   1.000  N
  N11      1.0000 0.34864  0.74007  0.44639  Biso   1.000  N
  N12      1.0000 0.65136  0.24007  0.05361  Biso   1.000  N
  H37      1.0000 0.68083  0.24486  0.53954  Biso   1.000  H
  H38      1.0000 0.31917  0.74486  0.96046  Biso   1.000  H
  H39      1.0000 0.31917  0.75514  0.46046  Biso   1.000  H
  H40      1.0000 0.68083  0.25514  0.03954  Biso   1.000  H
  N13      1.0000 0.12207  0.27474  0.54469  Biso   1.000  N
  N14      1.0000 0.87793  0.77474  0.95531  Biso   1.000  N
  N15      1.0000 0.87793  0.72526  0.45531  Biso   1.000  N
  N16      1.0000 0.12207  0.22526  0.04469  Biso   1.000  N
  H41      1.0000 0.14475  0.30726  0.53788  Biso   1.000  H
  H42      1.0000 0.85525  0.80726  0.96212  Biso   1.000  H
  H43      1.0000 0.85525  0.69274  0.46212  Biso   1.000  H
  H44      1.0000 0.14475  0.19274  0.03788  Biso   1.000  H
  O121     1.0000 0.85658  0.73556  0.69964  Biso   1.000  O
  O122     1.0000 0.14342  0.23556  0.80036  Biso   1.000  O
  O123     1.0000 0.14342  0.26444  0.30036  Biso   1.000  O
  O124     1.0000 0.85658  0.76444  0.19964  Biso   1.000  O
  N17      1.0000 0.07332  0.39167  0.59292  Biso   1.000  N
  N18      1.0000 0.92668  0.89167  0.90708  Biso   1.000  N
  N19      1.0000 0.92668  0.60833  0.40708  Biso   1.000  N
  N20      1.0000 0.07332  0.10833  0.09292  Biso   1.000  N
  H45      1.0000 0.07485  0.35591  0.58121  Biso   1.000  H
  H46      1.0000 0.92515  0.85591  0.91879  Biso   1.000  H
  H47      1.0000 0.92515  0.64409  0.41879  Biso   1.000  H
  H48      1.0000 0.07485  0.14409  0.08121  Biso   1.000  H
  C25      1.0000 0.60510  0.81496  0.66019  Biso   1.000  C
  C26      1.0000 0.39490  0.31496  0.83981  Biso   1.000  C
  C27      1.0000 0.39490  0.18504  0.33981  Biso   1.000  C
  C28      1.0000 0.60510  0.68504  0.16019  Biso   1.000  C
  C29      1.0000 0.72250  0.76348  0.66147  Biso   1.000  C
  C30      1.0000 0.27750  0.26348  0.83853  Biso   1.000  C
  C31      1.0000 0.27750  0.23652  0.33853  Biso   1.000  C
  C32      1.0000 0.72250  0.73652  0.16147  Biso   1.000  C
  H49      1.0000 0.73598  0.78228  0.68507  Biso   1.000  H
  H50      1.0000 0.26402  0.28228  0.81493  Biso   1.000  H
  H51      1.0000 0.26402  0.21772  0.31493  Biso   1.000  H
  H52      1.0000 0.73598  0.71772  0.18507  Biso   1.000  H
  C33      1.0000 0.65670  0.77554  0.64220  Biso   1.000  C
  C34      1.0000 0.34330  0.27554  0.85780  Biso   1.000  C
  C35      1.0000 0.34330  0.22446  0.35780  Biso   1.000  C
  C36      1.0000 0.65670  0.72446  0.14220  Biso   1.000  C
  C37      1.0000 0.30440  0.24503  0.65526  Biso   1.000  C
  C38      1.0000 0.69560  0.74503  0.84474  Biso   1.000  C
  C39      1.0000 0.69560  0.75497  0.34474  Biso   1.000  C
  C40      1.0000 0.30440  0.25497  0.15526  Biso   1.000  C
  C41      1.0000 0.68182  0.70781  0.59037  Biso   1.000  C
  C42      1.0000 0.31818  0.20781  0.90963  Biso   1.000  C
  C43      1.0000 0.31818  0.29219  0.40963  Biso   1.000  C
  C44      1.0000 0.68182  0.79219  0.09037  Biso   1.000  C
  C45      1.0000 0.56420  0.25857  0.67813  Biso   1.000  C
  C46      1.0000 0.43580  0.75857  0.82187  Biso   1.000  C
  C47      1.0000 0.43580  0.74143  0.32187  Biso   1.000  C
  C48      1.0000 0.56420  0.24143  0.17813  Biso   1.000  C
  C49      1.0000 0.50006  0.49955  0.67621  Biso   1.000  C
  C50      1.0000 0.49994  0.99955  0.82379  Biso   1.000  C
  C51      1.0000 0.49994  0.50045  0.32379  Biso   1.000  C
  C52      1.0000 0.50006  0.00045  0.17621  Biso   1.000  C
  C53      1.0000 0.47007  0.43953  0.69058  Biso   1.000  C
  C54      1.0000 0.52993  0.93953  0.80942  Biso   1.000  C
  C55      1.0000 0.52993  0.56047  0.30942  Biso   1.000  C
  C56      1.0000 0.47007  0.06047  0.19058  Biso   1.000  C
  C57      1.0000 0.63638  0.74814  0.60645  Biso   1.000  C
  C58      1.0000 0.36362  0.24814  0.89355  Biso   1.000  C
  C59      1.0000 0.36362  0.25186  0.39355  Biso   1.000  C
  C60      1.0000 0.63638  0.75186  0.10645  Biso   1.000  C
  H53      1.0000 0.59207  0.75704  0.59335  Biso   1.000  H
  H54      1.0000 0.40793  0.25704  0.90665  Biso   1.000  H
  H55      1.0000 0.40793  0.24296  0.40665  Biso   1.000  H
  H56      1.0000 0.59207  0.74296  0.09335  Biso   1.000  H
  N21      1.0000 0.73846  0.60260  0.72816  Biso   1.000  N
  N22      1.0000 0.26154  0.10260  0.77184  Biso   1.000  N
  N23      1.0000 0.26154  0.39740  0.27184  Biso   1.000  N
  N24      1.0000 0.73846  0.89740  0.22816  Biso   1.000  N
  O125     1.0000 0.43773  0.93359  0.64150  Biso   1.000  O
  O126     1.0000 0.56227  0.43359  0.85850  Biso   1.000  O
  O127     1.0000 0.56227  0.06641  0.35850  Biso   1.000  O
  O128     1.0000 0.43773  0.56641  0.14150  Biso   1.000  O
  H57      1.0000 0.39416  0.94805  0.63656  Biso   1.000  H
  H58      1.0000 0.60584  0.44805  0.86344  Biso   1.000  H
  H59      1.0000 0.60584  0.05195  0.36344  Biso   1.000  H
  H60      1.0000 0.39416  0.55195  0.13656  Biso   1.000  H
  H61      1.0000 0.46691  0.96315  0.63521  Biso   1.000  H
  H62      1.0000 0.53309  0.46315  0.86479  Biso   1.000  H
  H63      1.0000 0.53309  0.03685  0.36479  Biso   1.000  H
  H64      1.0000 0.46691  0.53685  0.13521  Biso   1.000  H
  C61      1.0000 0.66120  0.24790  0.59278  Biso   1.000  C
  C62      1.0000 0.33880  0.74790  0.90722  Biso   1.000  C
  C63      1.0000 0.33880  0.75210  0.40722  Biso   1.000  C
  C64      1.0000 0.66120  0.25210  0.09278  Biso   1.000  C
  C65      1.0000 0.68728  0.22414  0.67074  Biso   1.000  C
  C66      1.0000 0.31272  0.72414  0.82926  Biso   1.000  C
  C67      1.0000 0.31272  0.77586  0.32926  Biso   1.000  C
  C68      1.0000 0.68728  0.27586  0.17074  Biso   1.000  C
  H65      1.0000 0.69648  0.21773  0.69688  Biso   1.000  H
  H66      1.0000 0.30352  0.71773  0.80312  Biso   1.000  H
  H67      1.0000 0.30352  0.78227  0.30312  Biso   1.000  H
  H68      1.0000 0.69648  0.28227  0.19688  Biso   1.000  H
  C69      1.0000 0.49131  0.55578  0.69489  Biso   1.000  C
  C70      1.0000 0.50869  0.05578  0.80511  Biso   1.000  C
  C71      1.0000 0.50869  0.44422  0.30511  Biso   1.000  C
  C72      1.0000 0.49131  0.94422  0.19489  Biso   1.000  C
  H69      1.0000 0.47037  0.55607  0.71714  Biso   1.000  H
  H70      1.0000 0.52963  0.05607  0.78286  Biso   1.000  H
  H71      1.0000 0.52963  0.44393  0.28286  Biso   1.000  H
  H72      1.0000 0.47037  0.94393  0.21714  Biso   1.000  H
  C73      1.0000 0.62150  0.24723  0.65450  Biso   1.000  C
  C74      1.0000 0.37850  0.74723  0.84550  Biso   1.000  C
  C75      1.0000 0.37850  0.75277  0.34550  Biso   1.000  C
  C76      1.0000 0.62150  0.25277  0.15450  Biso   1.000  C
  C77      1.0000 0.51427  0.61235  0.67999  Biso   1.000  C
  C78      1.0000 0.48573  0.11235  0.82001  Biso   1.000  C
  C79      1.0000 0.48573  0.38765  0.32001  Biso   1.000  C
  C80      1.0000 0.51427  0.88765  0.17999  Biso   1.000  C
  N25      1.0000 0.16990  0.72850  0.56076  Biso   1.000  N
  N26      1.0000 0.83010  0.22850  0.93924  Biso   1.000  N
  N27      1.0000 0.83010  0.27150  0.43924  Biso   1.000  N
  N28      1.0000 0.16990  0.77150  0.06076  Biso   1.000  N
  H73      1.0000 0.12722  0.71868  0.55187  Biso   1.000  H
  H74      1.0000 0.87278  0.21868  0.94813  Biso   1.000  H
  H75      1.0000 0.87278  0.28132  0.44813  Biso   1.000  H
  H76      1.0000 0.12722  0.78132  0.05187  Biso   1.000  H
  C81      1.0000 0.22449  0.73033  0.67943  Biso   1.000  C
  C82      1.0000 0.77551  0.23033  0.82057  Biso   1.000  C
  C83      1.0000 0.77551  0.26967  0.32057  Biso   1.000  C
  C84      1.0000 0.22449  0.76967  0.17943  Biso   1.000  C
  H77      1.0000 0.23697  0.72893  0.70568  Biso   1.000  H
  H78      1.0000 0.76303  0.22893  0.79432  Biso   1.000  H
  H79      1.0000 0.76303  0.27107  0.29432  Biso   1.000  H
  H80      1.0000 0.23697  0.77107  0.20568  Biso   1.000  H
  C85      1.0000 0.54676  0.61127  0.64688  Biso   1.000  C
  C86      1.0000 0.45324  0.11127  0.85312  Biso   1.000  C
  C87      1.0000 0.45324  0.38873  0.35312  Biso   1.000  C
  C88      1.0000 0.54676  0.88873  0.14688  Biso   1.000  C
  H81      1.0000 0.56066  0.64934  0.63670  Biso   1.000  H
  H82      1.0000 0.43934  0.14934  0.86330  Biso   1.000  H
  H83      1.0000 0.43934  0.35066  0.36330  Biso   1.000  H
  H84      1.0000 0.56066  0.85066  0.13670  Biso   1.000  H
  C89      1.0000 0.21290  0.25652  0.59804  Biso   1.000  C
  C90      1.0000 0.78710  0.75652  0.90196  Biso   1.000  C
  C91      1.0000 0.78710  0.74348  0.40196  Biso   1.000  C
  C92      1.0000 0.21290  0.24348  0.09804  Biso   1.000  C
  H85      1.0000 0.24361  0.28255  0.58673  Biso   1.000  H
  H86      1.0000 0.75639  0.78255  0.91327  Biso   1.000  H
  H87      1.0000 0.75639  0.71745  0.41327  Biso   1.000  H
  H88      1.0000 0.24361  0.21745  0.08673  Biso   1.000  H
  C93      1.0000 0.55861  0.55419  0.62894  Biso   1.000  C
  C94      1.0000 0.44139  0.05419  0.87106  Biso   1.000  C
  C95      1.0000 0.44139  0.44581  0.37106  Biso   1.000  C
  C96      1.0000 0.55861  0.94581  0.12894  Biso   1.000  C
  C97      1.0000 0.76890  0.72371  0.64609  Biso   1.000  C
  C98      1.0000 0.23110  0.22371  0.85391  Biso   1.000  C
  C99      1.0000 0.23110  0.27629  0.35391  Biso   1.000  C
  C100     1.0000 0.76890  0.77629  0.14609  Biso   1.000  C
  C101     1.0000 0.10100  0.20349  0.59552  Biso   1.000  C
  C102     1.0000 0.89900  0.70349  0.90448  Biso   1.000  C
  C103     1.0000 0.89900  0.79651  0.40448  Biso   1.000  C
  C104     1.0000 0.10100  0.29651  0.09552  Biso   1.000  C
  H89      1.0000 0.05700  0.19300  0.58265  Biso   1.000  H
  H90      1.0000 0.94300  0.69300  0.91735  Biso   1.000  H
  H91      1.0000 0.94300  0.80700  0.41735  Biso   1.000  H
  H92      1.0000 0.05700  0.30700  0.08265  Biso   1.000  H
  C105     1.0000 0.74889  0.69649  0.61048  Biso   1.000  C
  C106     1.0000 0.25111  0.19649  0.88952  Biso   1.000  C
  C107     1.0000 0.25111  0.30351  0.38952  Biso   1.000  C
  C108     1.0000 0.74889  0.80351  0.11048  Biso   1.000  C
  H93      1.0000 0.78046  0.67042  0.59986  Biso   1.000  H
  H94      1.0000 0.21954  0.17042  0.90014  Biso   1.000  H
  H95      1.0000 0.21954  0.32958  0.40014  Biso   1.000  H
  H96      1.0000 0.78046  0.82958  0.09986  Biso   1.000  H
  C109     1.0000 0.23440  0.23101  0.63366  Biso   1.000  C
  C110     1.0000 0.76560  0.73101  0.86634  Biso   1.000  C
  C111     1.0000 0.76560  0.76899  0.36634  Biso   1.000  C
  C112     1.0000 0.23440  0.26899  0.13366  Biso   1.000  C
  C113     1.0000 0.10120  0.69480  0.68734  Biso   1.000  C
  C114     1.0000 0.89880  0.19480  0.81266  Biso   1.000  C
  C115     1.0000 0.89880  0.30520  0.31266  Biso   1.000  C
  C116     1.0000 0.10120  0.80520  0.18734  Biso   1.000  C
  C117     1.0000 0.83880  0.70870  0.66881  Biso   1.000  C
  C118     1.0000 0.16120  0.20870  0.83119  Biso   1.000  C
  C119     1.0000 0.16120  0.29130  0.33119  Biso   1.000  C
  C120     1.0000 0.83880  0.79130  0.16881  Biso   1.000  C
  C121     1.0000 0.15700  0.71310  0.66305  Biso   1.000  C
  C122     1.0000 0.84300  0.21310  0.83695  Biso   1.000  C
  C123     1.0000 0.84300  0.28690  0.33695  Biso   1.000  C
  C124     1.0000 0.15700  0.78690  0.16305  Biso   1.000  C
  C125     1.0000 0.53480  0.49816  0.64391  Biso   1.000  C
  C126     1.0000 0.46520  0.99816  0.85609  Biso   1.000  C
  C127     1.0000 0.46520  0.50184  0.35609  Biso   1.000  C
  C128     1.0000 0.53480  0.00184  0.14391  Biso   1.000  C
  H97      1.0000 0.54209  0.45943  0.63230  Biso   1.000  H
  H98      1.0000 0.45791  0.95943  0.86770  Biso   1.000  H
  H99      1.0000 0.45791  0.54057  0.36770  Biso   1.000  H
  H100     1.0000 0.54209  0.04057  0.13230  Biso   1.000  H
  C129     1.0000 0.68910  0.47770  0.60148  Biso   1.000  C
  C130     1.0000 0.31090  0.97770  0.89852  Biso   1.000  C
  C131     1.0000 0.31090  0.52230  0.39852  Biso   1.000  C
  C132     1.0000 0.68910  0.02230  0.10148  Biso   1.000  C
  C133     1.0000 0.27260  0.74960  0.65576  Biso   1.000  C
  C134     1.0000 0.72740  0.24960  0.84424  Biso   1.000  C
  C135     1.0000 0.72740  0.25040  0.34424  Biso   1.000  C
  C136     1.0000 0.27260  0.75040  0.15576  Biso   1.000  C
  C137     1.0000 0.73810  0.21100  0.64790  Biso   1.000  C
  C138     1.0000 0.26190  0.71100  0.85210  Biso   1.000  C
  C139     1.0000 0.26190  0.78900  0.35210  Biso   1.000  C
  C140     1.0000 0.73810  0.28900  0.14790  Biso   1.000  C
  C141     1.0000 0.60890  0.25894  0.61561  Biso   1.000  C
  C142     1.0000 0.39110  0.75894  0.88439  Biso   1.000  C
  C143     1.0000 0.39110  0.74106  0.38439  Biso   1.000  C
  C144     1.0000 0.60890  0.24106  0.11561  Biso   1.000  C
  H101     1.0000 0.56516  0.27428  0.60486  Biso   1.000  H
  H102     1.0000 0.43484  0.77428  0.89514  Biso   1.000  H
  H103     1.0000 0.43484  0.72572  0.39514  Biso   1.000  H
  H104     1.0000 0.56516  0.22572  0.10486  Biso   1.000  H
  O129     1.0000 0.90002  0.02912  0.62515  Biso   1.000  O
  O130     1.0000 0.09998  0.52912  0.87485  Biso   1.000  O
  O131     1.0000 0.09998  0.97088  0.37485  Biso   1.000  O
  O132     1.0000 0.90002  0.47088  0.12515  Biso   1.000  O
  H105     1.0000 0.86285  0.00399  0.62906  Biso   1.000  H
  H106     1.0000 0.13715  0.50399  0.87094  Biso   1.000  H
  H107     1.0000 0.13715  0.99601  0.37094  Biso   1.000  H
  H108     1.0000 0.86285  0.49601  0.12906  Biso   1.000  H
  H109     1.0000 0.92122  0.01133  0.60617  Biso   1.000  H
  H110     1.0000 0.07878  0.51133  0.89383  Biso   1.000  H
  H111     1.0000 0.07878  0.98867  0.39383  Biso   1.000  H
  H112     1.0000 0.92122  0.48867  0.10617  Biso   1.000  H
  C145     1.0000 0.18870  0.19180  0.65039  Biso   1.000  C
  C146     1.0000 0.81130  0.69180  0.84961  Biso   1.000  C
  C147     1.0000 0.81130  0.80820  0.34961  Biso   1.000  C
  C148     1.0000 0.18870  0.30820  0.15039  Biso   1.000  C
  H113     1.0000 0.20301  0.17432  0.67427  Biso   1.000  H
  H114     1.0000 0.79699  0.67432  0.82573  Biso   1.000  H
  H115     1.0000 0.79699  0.82568  0.32573  Biso   1.000  H
  H116     1.0000 0.20301  0.32568  0.17427  Biso   1.000  H
  C149     1.0000 0.14520  0.24366  0.57861  Biso   1.000  C
  C150     1.0000 0.85480  0.74366  0.92139  Biso   1.000  C
  C151     1.0000 0.85480  0.75634  0.42139  Biso   1.000  C
  C152     1.0000 0.14520  0.25634  0.07861  Biso   1.000  C
  C153     1.0000 0.58680  0.65600  0.49678  Biso   1.000  C
  C154     1.0000 0.41320  0.15600  0.00322  Biso   1.000  C
  C155     1.0000 0.41320  0.34400  0.50322  Biso   1.000  C
  C156     1.0000 0.58680  0.84400  0.99678  Biso   1.000  C
  C157     1.0000 0.80800  0.18390  0.66405  Biso   1.000  C
  C158     1.0000 0.19200  0.68390  0.83595  Biso   1.000  C
  C159     1.0000 0.19200  0.81610  0.33595  Biso   1.000  C
  C160     1.0000 0.80800  0.31610  0.16405  Biso   1.000  C
  C161     1.0000 0.07190  0.13940  0.65112  Biso   1.000  C
  C162     1.0000 0.92810  0.63940  0.84888  Biso   1.000  C
  C163     1.0000 0.92810  0.86060  0.34888  Biso   1.000  C
  C164     1.0000 0.07190  0.36060  0.15112  Biso   1.000  C
  C165     1.0000 0.72540  0.22300  0.60879  Biso   1.000  C
  C166     1.0000 0.27460  0.72300  0.89121  Biso   1.000  C
  C167     1.0000 0.27460  0.77700  0.39121  Biso   1.000  C
  C168     1.0000 0.72540  0.27700  0.10879  Biso   1.000  C
  H117     1.0000 0.76023  0.21429  0.59347  Biso   1.000  H
  H118     1.0000 0.23977  0.71429  0.90653  Biso   1.000  H
  H119     1.0000 0.23977  0.78571  0.40653  Biso   1.000  H
  H120     1.0000 0.76023  0.28571  0.09347  Biso   1.000  H
  C169     1.0000 0.00503  0.45020  0.67875  Biso   1.000  C
  C170     1.0000 0.99497  0.95020  0.82125  Biso   1.000  C
  C171     1.0000 0.99497  0.54980  0.32125  Biso   1.000  C
  C172     1.0000 0.00503  0.04980  0.17875  Biso   1.000  C
  C173     1.0000 0.16960  0.47300  0.59598  Biso   1.000  C
  C174     1.0000 0.83040  0.97300  0.90402  Biso   1.000  C
  C175     1.0000 0.83040  0.52700  0.40402  Biso   1.000  C
  C176     1.0000 0.16960  0.02700  0.09598  Biso   1.000  C
  C177     1.0000 0.12220  0.17850  0.63185  Biso   1.000  C
  C178     1.0000 0.87780  0.67850  0.86815  Biso   1.000  C
  C179     1.0000 0.87780  0.82150  0.36815  Biso   1.000  C
  C180     1.0000 0.12220  0.32150  0.13185  Biso   1.000  C
  C181     1.0000 0.34470  0.77210  0.67257  Biso   1.000  C
  C182     1.0000 0.65530  0.27210  0.82743  Biso   1.000  C
  C183     1.0000 0.65530  0.22790  0.32743  Biso   1.000  C
  C184     1.0000 0.34470  0.72790  0.17257  Biso   1.000  C
  C185     1.0000 0.62020  0.49980  0.58062  Biso   1.000  C
  C186     1.0000 0.37980  0.99980  0.91938  Biso   1.000  C
  C187     1.0000 0.37980  0.50020  0.41938  Biso   1.000  C
  C188     1.0000 0.62020  0.00020  0.08062  Biso   1.000  C
  H121     1.0000 0.62690  0.50864  0.55447  Biso   1.000  H
  H122     1.0000 0.37310  0.00864  0.94553  Biso   1.000  H
  H123     1.0000 0.37310  0.49136  0.44553  Biso   1.000  H
  H124     1.0000 0.62690  0.99136  0.05447  Biso   1.000  H
  H125     1.0000 0.58663  0.46507  0.58020  Biso   1.000  H
  H126     1.0000 0.41337  0.96507  0.91980  Biso   1.000  H
  H127     1.0000 0.41337  0.53493  0.41980  Biso   1.000  H
  H128     1.0000 0.58663  0.03493  0.08020  Biso   1.000  H
  C189     1.0000 0.98596  0.39420  0.69507  Biso   1.000  C
  C190     1.0000 0.01404  0.89420  0.80493  Biso   1.000  C
  C191     1.0000 0.01404  0.60580  0.30493  Biso   1.000  C
  C192     1.0000 0.98596  0.10580  0.19507  Biso   1.000  C
  H129     1.0000 0.96803  0.39466  0.71824  Biso   1.000  H
  H130     1.0000 0.03197  0.89466  0.78176  Biso   1.000  H
  H131     1.0000 0.03197  0.60534  0.28176  Biso   1.000  H
  H132     1.0000 0.96803  0.10534  0.21824  Biso   1.000  H
  C193     1.0000 0.55820  0.59540  0.49629  Biso   1.000  C
  C194     1.0000 0.44180  0.09540  0.00371  Biso   1.000  C
  C195     1.0000 0.44180  0.40460  0.50371  Biso   1.000  C
  C196     1.0000 0.55820  0.90460  0.99629  Biso   1.000  C
  H133     1.0000 0.54310  0.57933  0.51831  Biso   1.000  H
  H134     1.0000 0.45690  0.07933  0.98169  Biso   1.000  H
  H135     1.0000 0.45690  0.42067  0.48169  Biso   1.000  H
  H136     1.0000 0.54310  0.92067  0.01831  Biso   1.000  H
  C197     1.0000 0.25590  0.74850  0.61656  Biso   1.000  C
  C198     1.0000 0.74410  0.24850  0.88344  Biso   1.000  C
  C199     1.0000 0.74410  0.25150  0.38344  Biso   1.000  C
  C200     1.0000 0.25590  0.75150  0.11656  Biso   1.000  C
  H137     1.0000 0.28934  0.76066  0.60112  Biso   1.000  H
  H138     1.0000 0.71066  0.26066  0.89888  Biso   1.000  H
  H139     1.0000 0.71066  0.23934  0.39888  Biso   1.000  H
  H140     1.0000 0.28934  0.73934  0.10112  Biso   1.000  H
  C201     1.0000 0.99120  0.51180  0.69727  Biso   1.000  C
  C202     1.0000 0.00880  0.01180  0.80273  Biso   1.000  C
  C203     1.0000 0.00880  0.48820  0.30273  Biso   1.000  C
  C204     1.0000 0.99120  0.98820  0.19727  Biso   1.000  C
  C205     1.0000 0.59700  0.69480  0.53263  Biso   1.000  C
  C206     1.0000 0.40300  0.19480  0.96737  Biso   1.000  C
  C207     1.0000 0.40300  0.30520  0.46737  Biso   1.000  C
  C208     1.0000 0.59700  0.80520  0.03263  Biso   1.000  C
  H141     1.0000 0.59899  0.73958  0.52625  Biso   1.000  H
  H142     1.0000 0.40101  0.23958  0.97375  Biso   1.000  H
  H143     1.0000 0.40101  0.26042  0.47375  Biso   1.000  H
  H144     1.0000 0.59899  0.76042  0.02625  Biso   1.000  H
  H145     1.0000 0.55714  0.68838  0.54659  Biso   1.000  H
  H146     1.0000 0.44286  0.18838  0.95341  Biso   1.000  H
  H147     1.0000 0.44286  0.31162  0.45341  Biso   1.000  H
  H148     1.0000 0.55714  0.81162  0.04659  Biso   1.000  H
  C209     1.0000 0.59230  0.30380  0.49413  Biso   1.000  C
  C210     1.0000 0.40770  0.80380  0.00587  Biso   1.000  C
  C211     1.0000 0.40770  0.69620  0.50587  Biso   1.000  C
  C212     1.0000 0.59230  0.19620  0.99413  Biso   1.000  C
  C213     1.0000 0.03417  0.45052  0.64505  Biso   1.000  C
  C214     1.0000 0.96583  0.95052  0.85495  Biso   1.000  C
  C215     1.0000 0.96583  0.54948  0.35495  Biso   1.000  C
  C216     1.0000 0.03417  0.04948  0.14505  Biso   1.000  C
  H149     1.0000 0.04682  0.48885  0.63466  Biso   1.000  H
  H150     1.0000 0.95318  0.98885  0.86534  Biso   1.000  H
  H151     1.0000 0.95318  0.51115  0.36534  Biso   1.000  H
  H152     1.0000 0.04682  0.01115  0.13466  Biso   1.000  H
  C217     1.0000 0.04030  0.29770  0.48762  Biso   1.000  C
  C218     1.0000 0.95970  0.79770  0.01238  Biso   1.000  C
  C219     1.0000 0.95970  0.70230  0.51238  Biso   1.000  C
  C220     1.0000 0.04030  0.20230  0.98762  Biso   1.000  C
  C221     1.0000 0.02290  0.33680  0.64231  Biso   1.000  C
  C222     1.0000 0.97710  0.83680  0.85769  Biso   1.000  C
  C223     1.0000 0.97710  0.66320  0.35769  Biso   1.000  C
  C224     1.0000 0.02290  0.16320  0.14231  Biso   1.000  C
  H153     1.0000 0.02765  0.29838  0.62988  Biso   1.000  H
  H154     1.0000 0.97235  0.79838  0.87012  Biso   1.000  H
  H155     1.0000 0.97235  0.70162  0.37012  Biso   1.000  H
  H156     1.0000 0.02765  0.20162  0.12988  Biso   1.000  H
  C225     1.0000 0.10110  0.44790  0.57627  Biso   1.000  C
  C226     1.0000 0.89890  0.94790  0.92373  Biso   1.000  C
  C227     1.0000 0.89890  0.55210  0.42373  Biso   1.000  C
  C228     1.0000 0.10110  0.05210  0.07627  Biso   1.000  C
  H157     1.0000 0.06613  0.48147  0.57564  Biso   1.000  H
  H158     1.0000 0.93387  0.98147  0.92436  Biso   1.000  H
  H159     1.0000 0.93387  0.51853  0.42436  Biso   1.000  H
  H160     1.0000 0.06613  0.01853  0.07564  Biso   1.000  H
  H161     1.0000 0.10715  0.43817  0.55013  Biso   1.000  H
  H162     1.0000 0.89285  0.93817  0.94987  Biso   1.000  H
  H163     1.0000 0.89285  0.56183  0.44987  Biso   1.000  H
  H164     1.0000 0.10715  0.06183  0.05013  Biso   1.000  H
  C229     1.0000 0.99400  0.33730  0.67628  Biso   1.000  C
  C230     1.0000 0.00600  0.83730  0.82372  Biso   1.000  C
  C231     1.0000 0.00600  0.66270  0.32372  Biso   1.000  C
  C232     1.0000 0.99400  0.16270  0.17628  Biso   1.000  C
  C233     1.0000 0.50240  0.67460  0.69907  Biso   1.000  C
  C234     1.0000 0.49760  0.17460  0.80093  Biso   1.000  C
  C235     1.0000 0.49760  0.32540  0.30093  Biso   1.000  C
  C236     1.0000 0.50240  0.82540  0.19907  Biso   1.000  C
  C237     1.0000 0.18370  0.53760  0.59636  Biso   1.000  C
  C238     1.0000 0.81630  0.03760  0.90364  Biso   1.000  C
  C239     1.0000 0.81630  0.46240  0.40364  Biso   1.000  C
  C240     1.0000 0.18370  0.96240  0.09636  Biso   1.000  C
  H165     1.0000 0.14871  0.56574  0.58617  Biso   1.000  H
  H166     1.0000 0.85129  0.06574  0.91383  Biso   1.000  H
  H167     1.0000 0.85129  0.43426  0.41383  Biso   1.000  H
  H168     1.0000 0.14871  0.93426  0.08617  Biso   1.000  H
  C241     1.0000 0.26460  0.38740  0.75262  Biso   1.000  C
  C242     1.0000 0.73540  0.88740  0.74738  Biso   1.000  C
  C243     1.0000 0.73540  0.61260  0.24738  Biso   1.000  C
  C244     1.0000 0.26460  0.11260  0.25262  Biso   1.000  C
  C245     1.0000 0.22260  0.43280  0.61257  Biso   1.000  C
  C246     1.0000 0.77740  0.93280  0.88743  Biso   1.000  C
  C247     1.0000 0.77740  0.56720  0.38743  Biso   1.000  C
  C248     1.0000 0.22260  0.06720  0.11257  Biso   1.000  C
  H169     1.0000 0.21407  0.38923  0.61320  Biso   1.000  H
  H170     1.0000 0.78593  0.88923  0.88680  Biso   1.000  H
  H171     1.0000 0.78593  0.61077  0.38680  Biso   1.000  H
  H172     1.0000 0.21407  0.11077  0.11320  Biso   1.000  H
  C249     1.0000 0.04460  0.39287  0.62654  Biso   1.000  C
  C250     1.0000 0.95540  0.89287  0.87346  Biso   1.000  C
  C251     1.0000 0.95540  0.60713  0.37346  Biso   1.000  C
  C252     1.0000 0.04460  0.10713  0.12654  Biso   1.000  C
  C253     1.0000 0.18910  0.72940  0.60023  Biso   1.000  C
  C254     1.0000 0.81090  0.22940  0.89977  Biso   1.000  C
  C255     1.0000 0.81090  0.27060  0.39977  Biso   1.000  C
  C256     1.0000 0.18910  0.77060  0.10023  Biso   1.000  C
  C257     1.0000 0.80390  0.60630  0.74526  Biso   1.000  C
  C258     1.0000 0.19610  0.10630  0.75474  Biso   1.000  C
  C259     1.0000 0.19610  0.39370  0.25474  Biso   1.000  C
  C260     1.0000 0.80390  0.89370  0.24526  Biso   1.000  C
  C261     1.0000 0.13950  0.71280  0.62403  Biso   1.000  C
  C262     1.0000 0.86050  0.21280  0.87597  Biso   1.000  C
  C263     1.0000 0.86050  0.28720  0.37597  Biso   1.000  C
  C264     1.0000 0.13950  0.78720  0.12403  Biso   1.000  C
  H173     1.0000 0.09408  0.70136  0.61350  Biso   1.000  H
  H174     1.0000 0.90592  0.20136  0.88650  Biso   1.000  H
  H175     1.0000 0.90592  0.29864  0.38650  Biso   1.000  H
  H176     1.0000 0.09408  0.79864  0.11350  Biso   1.000  H
  C265     1.0000 0.59150  0.29790  0.53639  Biso   1.000  C
  C266     1.0000 0.40850  0.79790  0.96361  Biso   1.000  C
  C267     1.0000 0.40850  0.70210  0.46361  Biso   1.000  C
  C268     1.0000 0.59150  0.20210  0.03639  Biso   1.000  C
  H177     1.0000 0.59364  0.33993  0.54781  Biso   1.000  H
  H178     1.0000 0.40636  0.83993  0.95219  Biso   1.000  H
  H179     1.0000 0.40636  0.66007  0.45219  Biso   1.000  H
  H180     1.0000 0.59364  0.16007  0.04781  Biso   1.000  H
  H181     1.0000 0.54785  0.27785  0.54127  Biso   1.000  H
  H182     1.0000 0.45215  0.77785  0.95873  Biso   1.000  H
  H183     1.0000 0.45215  0.72215  0.45873  Biso   1.000  H
  H184     1.0000 0.54785  0.22215  0.04127  Biso   1.000  H
  C269     1.0000 0.05980  0.25240  0.52085  Biso   1.000  C
  C270     1.0000 0.94020  0.75240  0.97915  Biso   1.000  C
  C271     1.0000 0.94020  0.74760  0.47915  Biso   1.000  C
  C272     1.0000 0.05980  0.24760  0.02085  Biso   1.000  C
  H185     1.0000 0.02091  0.24934  0.53577  Biso   1.000  H
  H186     1.0000 0.97909  0.74934  0.96423  Biso   1.000  H
  H187     1.0000 0.97909  0.75066  0.46423  Biso   1.000  H
  H188     1.0000 0.02091  0.25066  0.03577  Biso   1.000  H
  H189     1.0000 0.06860  0.21028  0.51125  Biso   1.000  H
  H190     1.0000 0.93140  0.71028  0.98875  Biso   1.000  H
  H191     1.0000 0.93140  0.78972  0.48875  Biso   1.000  H
  H192     1.0000 0.06860  0.28972  0.01125  Biso   1.000  H
  C273     1.0000 0.06010  0.28520  0.45212  Biso   1.000  C
  C274     1.0000 0.93990  0.78520  0.04788  Biso   1.000  C
  C275     1.0000 0.93990  0.71480  0.54788  Biso   1.000  C
  C276     1.0000 0.06010  0.21480  0.95212  Biso   1.000  C
  H193     1.0000 0.08476  0.24816  0.44806  Biso   1.000  H
  H194     1.0000 0.91524  0.74816  0.05194  Biso   1.000  H
  H195     1.0000 0.91524  0.75184  0.55194  Biso   1.000  H
  H196     1.0000 0.08476  0.25184  0.94806  Biso   1.000  H
  C277     1.0000 0.55160  0.55800  0.46364  Biso   1.000  C
  C278     1.0000 0.44840  0.05800  0.03636  Biso   1.000  C
  C279     1.0000 0.44840  0.44200  0.53636  Biso   1.000  C
  C280     1.0000 0.55160  0.94200  0.96364  Biso   1.000  C
  H197     1.0000 0.53249  0.51725  0.46402  Biso   1.000  H
  H198     1.0000 0.46751  0.01725  0.03598  Biso   1.000  H
  H199     1.0000 0.46751  0.48275  0.53598  Biso   1.000  H
  H200     1.0000 0.53249  0.98275  0.96402  Biso   1.000  H
  C281     1.0000 0.00280  0.35210  0.49264  Biso   1.000  C
  C282     1.0000 0.99720  0.85210  0.00736  Biso   1.000  C
  C283     1.0000 0.99720  0.64790  0.50736  Biso   1.000  C
  C284     1.0000 0.00280  0.14790  0.99264  Biso   1.000  C
  H201     1.0000 0.98836  0.36040  0.51622  Biso   1.000  H
  H202     1.0000 0.01164  0.86040  0.98378  Biso   1.000  H
  H203     1.0000 0.01164  0.63960  0.48378  Biso   1.000  H
  H204     1.0000 0.98836  0.13960  0.01622  Biso   1.000  H
  C285     1.0000 0.57960  0.25010  0.47085  Biso   1.000  C
  C286     1.0000 0.42040  0.75010  0.02915  Biso   1.000  C
  C287     1.0000 0.42040  0.74990  0.52915  Biso   1.000  C
  C288     1.0000 0.57960  0.24990  0.97085  Biso   1.000  C
  H205     1.0000 0.57285  0.21066  0.48178  Biso   1.000  H
  H206     1.0000 0.42715  0.71066  0.01822  Biso   1.000  H
  H207     1.0000 0.42715  0.78934  0.51822  Biso   1.000  H
  H208     1.0000 0.57285  0.28934  0.98178  Biso   1.000  H
  C289     1.0000 0.60830  0.67880  0.46347  Biso   1.000  C
  C290     1.0000 0.39170  0.17880  0.03653  Biso   1.000  C
  C291     1.0000 0.39170  0.32120  0.53653  Biso   1.000  C
  C292     1.0000 0.60830  0.82120  0.96347  Biso   1.000  C
  H209     1.0000 0.62758  0.71938  0.46282  Biso   1.000  H
  H210     1.0000 0.37242  0.21938  0.03718  Biso   1.000  H
  H211     1.0000 0.37242  0.28062  0.53718  Biso   1.000  H
  H212     1.0000 0.62758  0.78062  0.96282  Biso   1.000  H
  C293     1.0000 0.28750  0.45600  0.62813  Biso   1.000  C
  C294     1.0000 0.71250  0.95600  0.87187  Biso   1.000  C
  C295     1.0000 0.71250  0.54400  0.37187  Biso   1.000  C
  C296     1.0000 0.28750  0.04400  0.12813  Biso   1.000  C
  H213     1.0000 0.32204  0.42827  0.63936  Biso   1.000  H
  H214     1.0000 0.67796  0.92827  0.86064  Biso   1.000  H
  H215     1.0000 0.67796  0.57173  0.36064  Biso   1.000  H
  H216     1.0000 0.32204  0.07173  0.13936  Biso   1.000  H
  C297     1.0000 0.97190  0.27540  0.69211  Biso   1.000  C
  C298     1.0000 0.02810  0.77540  0.80789  Biso   1.000  C
  C299     1.0000 0.02810  0.72460  0.30789  Biso   1.000  C
  C300     1.0000 0.97190  0.22460  0.19211  Biso   1.000  C
  C301     1.0000 0.30100  0.52020  0.62700  Biso   1.000  C
  C302     1.0000 0.69900  0.02020  0.87300  Biso   1.000  C
  C303     1.0000 0.69900  0.47980  0.37300  Biso   1.000  C
  C304     1.0000 0.30100  0.97980  0.12700  Biso   1.000  C
  H217     1.0000 0.34520  0.53600  0.63661  Biso   1.000  H
  H218     1.0000 0.65480  0.03600  0.86339  Biso   1.000  H
  H219     1.0000 0.65480  0.46400  0.36339  Biso   1.000  H
  H220     1.0000 0.34520  0.96400  0.13661  Biso   1.000  H
  C305     1.0000 0.60140  0.36030  0.47758  Biso   1.000  C
  C306     1.0000 0.39860  0.86030  0.02242  Biso   1.000  C
  C307     1.0000 0.39860  0.63970  0.52242  Biso   1.000  C
  C308     1.0000 0.60140  0.13970  0.97758  Biso   1.000  C
  H221     1.0000 0.61062  0.39642  0.49256  Biso   1.000  H
  H222     1.0000 0.38938  0.89642  0.00744  Biso   1.000  H
  H223     1.0000 0.38938  0.60358  0.50744  Biso   1.000  H
  H224     1.0000 0.61062  0.10358  0.99256  Biso   1.000  H
  C309     1.0000 0.57310  0.58120  0.43091  Biso   1.000  C
  C310     1.0000 0.42690  0.08120  0.06909  Biso   1.000  C
  C311     1.0000 0.42690  0.41880  0.56909  Biso   1.000  C
  C312     1.0000 0.57310  0.91880  0.93091  Biso   1.000  C
  H225     1.0000 0.56870  0.55645  0.40894  Biso   1.000  H
  H226     1.0000 0.43130  0.05645  0.09106  Biso   1.000  H
  H227     1.0000 0.43130  0.44355  0.59106  Biso   1.000  H
  H228     1.0000 0.56870  0.94355  0.90894  Biso   1.000  H
  C313     1.0000 0.24870  0.56100  0.61158  Biso   1.000  C
  C314     1.0000 0.75130  0.06100  0.88842  Biso   1.000  C
  C315     1.0000 0.75130  0.43900  0.38842  Biso   1.000  C
  C316     1.0000 0.24870  0.93900  0.11158  Biso   1.000  C
  H229     1.0000 0.25723  0.60457  0.61139  Biso   1.000  H
  H230     1.0000 0.74277  0.10457  0.88861  Biso   1.000  H
  H231     1.0000 0.74277  0.39543  0.38861  Biso   1.000  H
  H232     1.0000 0.25723  0.89543  0.11139  Biso   1.000  H
  C317     1.0000 0.21880  0.74320  0.53457  Biso   1.000  C
  C318     1.0000 0.78120  0.24320  0.96543  Biso   1.000  C
  C319     1.0000 0.78120  0.25680  0.46543  Biso   1.000  C
  C320     1.0000 0.21880  0.75680  0.03457  Biso   1.000  C
  H233     1.0000 0.25664  0.71210  0.53706  Biso   1.000  H
  H234     1.0000 0.74336  0.21210  0.96294  Biso   1.000  H
  H235     1.0000 0.74336  0.28790  0.46294  Biso   1.000  H
  H236     1.0000 0.25664  0.78790  0.03706  Biso   1.000  H
  H237     1.0000 0.23938  0.78488  0.54042  Biso   1.000  H
  H238     1.0000 0.76062  0.28488  0.95958  Biso   1.000  H
  H239     1.0000 0.76062  0.21512  0.45958  Biso   1.000  H
  H240     1.0000 0.23938  0.71512  0.04042  Biso   1.000  H
  C321     1.0000 0.04280  0.32810  0.42272  Biso   1.000  C
  C322     1.0000 0.95720  0.82810  0.07728  Biso   1.000  C
  C323     1.0000 0.95720  0.67190  0.57728  Biso   1.000  C
  C324     1.0000 0.04280  0.17190  0.92272  Biso   1.000  C
  H241     1.0000 0.05614  0.31944  0.39893  Biso   1.000  H
  H242     1.0000 0.94386  0.81944  0.10107  Biso   1.000  H
  H243     1.0000 0.94386  0.68056  0.60107  Biso   1.000  H
  H244     1.0000 0.05614  0.18056  0.89893  Biso   1.000  H
  C325     1.0000 0.68720  0.65130  0.73214  Biso   1.000  C
  C326     1.0000 0.31280  0.15130  0.76786  Biso   1.000  C
  C327     1.0000 0.31280  0.34870  0.26786  Biso   1.000  C
  C328     1.0000 0.68720  0.84870  0.23214  Biso   1.000  C
  H245     1.0000 0.64306  0.63985  0.71758  Biso   1.000  H
  H246     1.0000 0.35694  0.13985  0.78242  Biso   1.000  H
  H247     1.0000 0.35694  0.36015  0.28242  Biso   1.000  H
  H248     1.0000 0.64306  0.86015  0.21758  Biso   1.000  H
  H249     1.0000 0.68101  0.65541  0.75848  Biso   1.000  H
  H250     1.0000 0.31899  0.15541  0.74152  Biso   1.000  H
  H251     1.0000 0.31899  0.34459  0.24152  Biso   1.000  H
  H252     1.0000 0.68101  0.84459  0.25848  Biso   1.000  H
  H253     1.0000 0.70327  0.69102  0.72303  Biso   1.000  H
  H254     1.0000 0.29673  0.19102  0.77697  Biso   1.000  H
  H255     1.0000 0.29673  0.30898  0.27697  Biso   1.000  H
  H256     1.0000 0.70327  0.80898  0.22303  Biso   1.000  H
  C329     1.0000 0.98630  0.39430  0.46333  Biso   1.000  C
  C330     1.0000 0.01370  0.89430  0.03667  Biso   1.000  C
  C331     1.0000 0.01370  0.60570  0.53667  Biso   1.000  C
  C332     1.0000 0.98630  0.10570  0.96333  Biso   1.000  C
  H257     1.0000 0.96106  0.43111  0.46715  Biso   1.000  H
  H258     1.0000 0.03894  0.93111  0.03285  Biso   1.000  H
  H259     1.0000 0.03894  0.56889  0.53285  Biso   1.000  H
  H260     1.0000 0.96106  0.06889  0.96715  Biso   1.000  H
  C333     1.0000 0.00730  0.38220  0.42776  Biso   1.000  C
  C334     1.0000 0.99270  0.88220  0.07224  Biso   1.000  C
  C335     1.0000 0.99270  0.61780  0.57224  Biso   1.000  C
  C336     1.0000 0.00730  0.11780  0.92776  Biso   1.000  C
  H261     1.0000 0.99696  0.41099  0.40786  Biso   1.000  H
  H262     1.0000 0.00304  0.91099  0.09214  Biso   1.000  H
  H263     1.0000 0.00304  0.58901  0.59214  Biso   1.000  H
  H264     1.0000 0.99696  0.08901  0.90786  Biso   1.000  H
  C337     1.0000 0.57700  0.25500  0.43212  Biso   1.000  C
  C338     1.0000 0.42300  0.75500  0.06788  Biso   1.000  C
  C339     1.0000 0.42300  0.74500  0.56788  Biso   1.000  C
  C340     1.0000 0.57700  0.24500  0.93212  Biso   1.000  C
  H265     1.0000 0.56956  0.21867  0.41709  Biso   1.000  H
  H266     1.0000 0.43044  0.71867  0.08291  Biso   1.000  H
  H267     1.0000 0.43044  0.78133  0.58291  Biso   1.000  H
  H268     1.0000 0.56956  0.28133  0.91709  Biso   1.000  H
  C341     1.0000 0.60110  0.64080  0.43092  Biso   1.000  C
  C342     1.0000 0.39890  0.14080  0.06908  Biso   1.000  C
  C343     1.0000 0.39890  0.35920  0.56908  Biso   1.000  C
  C344     1.0000 0.60110  0.85920  0.93092  Biso   1.000  C
  H269     1.0000 0.61574  0.65649  0.40870  Biso   1.000  H
  H270     1.0000 0.38426  0.15649  0.09130  Biso   1.000  H
  H271     1.0000 0.38426  0.34351  0.59130  Biso   1.000  H
  H272     1.0000 0.61574  0.84351  0.90870  Biso   1.000  H
  C345     1.0000 0.74560  0.51750  0.60714  Biso   1.000  C
  C346     1.0000 0.25440  0.01750  0.89286  Biso   1.000  C
  C347     1.0000 0.25440  0.48250  0.39286  Biso   1.000  C
  C348     1.0000 0.74560  0.98250  0.10714  Biso   1.000  C
  H273     1.0000 0.74108  0.55871  0.59749  Biso   1.000  H
  H274     1.0000 0.25892  0.05871  0.90251  Biso   1.000  H
  H275     1.0000 0.25892  0.44129  0.40251  Biso   1.000  H
  H276     1.0000 0.74108  0.94129  0.09749  Biso   1.000  H
  C349     1.0000 0.58500  0.31200  0.41556  Biso   1.000  C
  C350     1.0000 0.41500  0.81200  0.08444  Biso   1.000  C
  C351     1.0000 0.41500  0.68800  0.58444  Biso   1.000  C
  C352     1.0000 0.58500  0.18800  0.91556  Biso   1.000  C
  H277     1.0000 0.58239  0.31523  0.38924  Biso   1.000  H
  H278     1.0000 0.41761  0.81523  0.11076  Biso   1.000  H
  H279     1.0000 0.41761  0.68477  0.61076  Biso   1.000  H
  H280     1.0000 0.58239  0.18477  0.88924  Biso   1.000  H
  C353     1.0000 0.69760  0.41710  0.61457  Biso   1.000  C
  C354     1.0000 0.30240  0.91710  0.88543  Biso   1.000  C
  C355     1.0000 0.30240  0.58290  0.38543  Biso   1.000  C
  C356     1.0000 0.69760  0.08290  0.11457  Biso   1.000  C
  H281     1.0000 0.65987  0.38879  0.61088  Biso   1.000  H
  H282     1.0000 0.34013  0.88879  0.88912  Biso   1.000  H
  H283     1.0000 0.34013  0.61121  0.38912  Biso   1.000  H
  H284     1.0000 0.65987  0.11121  0.11088  Biso   1.000  H
  C357     1.0000 0.59710  0.36500  0.43813  Biso   1.000  C
  C358     1.0000 0.40290  0.86500  0.06187  Biso   1.000  C
  C359     1.0000 0.40290  0.63500  0.56187  Biso   1.000  C
  C360     1.0000 0.59710  0.13500  0.93813  Biso   1.000  C
  H285     1.0000 0.60240  0.40447  0.42697  Biso   1.000  H
  H286     1.0000 0.39760  0.90447  0.07303  Biso   1.000  H
  H287     1.0000 0.39760  0.59553  0.57303  Biso   1.000  H
  H288     1.0000 0.60240  0.09553  0.92697  Biso   1.000  H
  C361     1.0000 0.81040  0.49860  0.62700  Biso   1.000  C
  C362     1.0000 0.18960  0.99860  0.87300  Biso   1.000  C
  C363     1.0000 0.18960  0.50140  0.37300  Biso   1.000  C
  C364     1.0000 0.81040  0.00140  0.12700  Biso   1.000  C
  H289     1.0000 0.84738  0.52751  0.63172  Biso   1.000  H
  H290     1.0000 0.15262  0.02751  0.86828  Biso   1.000  H
  H291     1.0000 0.15262  0.47249  0.36828  Biso   1.000  H
  H292     1.0000 0.84738  0.97249  0.13172  Biso   1.000  H
  C365     1.0000 0.81850  0.43720  0.63929  Biso   1.000  C
  C366     1.0000 0.18150  0.93720  0.86071  Biso   1.000  C
  C367     1.0000 0.18150  0.56280  0.36071  Biso   1.000  C
  C368     1.0000 0.81850  0.06280  0.13929  Biso   1.000  C
  H293     1.0000 0.86179  0.42305  0.65146  Biso   1.000  H
  H294     1.0000 0.13821  0.92305  0.84854  Biso   1.000  H
  H295     1.0000 0.13821  0.57695  0.34854  Biso   1.000  H
  H296     1.0000 0.86179  0.07695  0.15146  Biso   1.000  H
  C369     1.0000 0.71420  0.54930  0.70490  Biso   1.000  C
  C370     1.0000 0.28580  0.04930  0.79510  Biso   1.000  C
  C371     1.0000 0.28580  0.45070  0.29510  Biso   1.000  C
  C372     1.0000 0.71420  0.95070  0.20490  Biso   1.000  C
  H297     1.0000 0.66549  0.55535  0.69497  Biso   1.000  H
  H298     1.0000 0.33451  0.05535  0.80503  Biso   1.000  H
  H299     1.0000 0.33451  0.44465  0.30503  Biso   1.000  H
  H300     1.0000 0.66549  0.94465  0.19497  Biso   1.000  H
  H301     1.0000 0.74174  0.54581  0.68415  Biso   1.000  H
  H302     1.0000 0.25826  0.04581  0.81585  Biso   1.000  H
  H303     1.0000 0.25826  0.45419  0.31585  Biso   1.000  H
  H304     1.0000 0.74174  0.95419  0.18415  Biso   1.000  H
  H305     1.0000 0.71924  0.51114  0.71985  Biso   1.000  H
  H306     1.0000 0.28076  0.01114  0.78015  Biso   1.000  H
  H307     1.0000 0.28076  0.48886  0.28015  Biso   1.000  H
  H308     1.0000 0.71924  0.98886  0.21985  Biso   1.000  H
  C373     1.0000 0.76250  0.39680  0.63350  Biso   1.000  C
  C374     1.0000 0.23750  0.89680  0.86650  Biso   1.000  C
  C375     1.0000 0.23750  0.60320  0.36650  Biso   1.000  C
  C376     1.0000 0.76250  0.10320  0.13350  Biso   1.000  C
  H309     1.0000 0.76744  0.35513  0.64235  Biso   1.000  H
  H310     1.0000 0.23256  0.85513  0.85765  Biso   1.000  H
  H311     1.0000 0.23256  0.64487  0.35765  Biso   1.000  H
  H312     1.0000 0.76744  0.14487  0.14235  Biso   1.000  H
  O133     1.0000 0.94685  0.49380  0.80575  Biso   1.000  O
  O134     1.0000 0.05315  0.99380  0.69425  Biso   1.000  O
  O135     1.0000 0.05315  0.50620  0.19425  Biso   1.000  O
  O136     1.0000 0.94685  0.00620  0.30575  Biso   1.000  O
  H313     1.0000 0.91441  0.48689  0.82589  Biso   1.000  H
  H314     1.0000 0.08559  0.98689  0.67411  Biso   1.000  H
  H315     1.0000 0.08559  0.51311  0.17411  Biso   1.000  H
  H316     1.0000 0.91441  0.01311  0.32589  Biso   1.000  H
  H317     1.0000 0.97557  0.45323  0.80567  Biso   1.000  H
  H318     1.0000 0.02443  0.95323  0.69433  Biso   1.000  H
  H319     1.0000 0.02443  0.54677  0.19433  Biso   1.000  H
  H320     1.0000 0.97557  0.04677  0.30567  Biso   1.000  H
  N29      1.0000 0.20100  0.37140  0.73935  Biso   1.000  N
  N30      1.0000 0.79900  0.87140  0.76065  Biso   1.000  N
  N31      1.0000 0.79900  0.62860  0.26065  Biso   1.000  N
  N32      1.0000 0.20100  0.12860  0.23935  Biso   1.000  N
  C377     1.0000 0.14190  0.37830  0.76186  Biso   1.000  C
  C378     1.0000 0.85810  0.87830  0.73814  Biso   1.000  C
  C379     1.0000 0.85810  0.62170  0.23814  Biso   1.000  C
  C380     1.0000 0.14190  0.12170  0.26186  Biso   1.000  C
  H321     1.0000 0.15971  0.39131  0.78729  Biso   1.000  H
  H322     1.0000 0.84029  0.89131  0.71271  Biso   1.000  H
  H323     1.0000 0.84029  0.60869  0.21271  Biso   1.000  H
  H324     1.0000 0.15971  0.10869  0.28729  Biso   1.000  H
  H325     1.0000 0.11782  0.33833  0.76266  Biso   1.000  H
  H326     1.0000 0.88218  0.83833  0.73734  Biso   1.000  H
  H327     1.0000 0.88218  0.66167  0.23734  Biso   1.000  H
  H328     1.0000 0.11782  0.16167  0.26266  Biso   1.000  H
  H329     1.0000 0.10963  0.40992  0.75031  Biso   1.000  H
  H330     1.0000 0.89037  0.90992  0.74969  Biso   1.000  H
  H331     1.0000 0.89037  0.59008  0.24969  Biso   1.000  H
  H332     1.0000 0.10963  0.09008  0.25031  Biso   1.000  H
  C381     1.0000 0.18450  0.34510  0.70124  Biso   1.000  C
  C382     1.0000 0.81550  0.84510  0.79876  Biso   1.000  C
  C383     1.0000 0.81550  0.65490  0.29876  Biso   1.000  C
  C384     1.0000 0.18450  0.15490  0.20124  Biso   1.000  C
  H333     1.0000 0.22657  0.34368  0.68915  Biso   1.000  H
  H334     1.0000 0.77343  0.84368  0.81085  Biso   1.000  H
  H335     1.0000 0.77343  0.65632  0.31085  Biso   1.000  H
  H336     1.0000 0.22657  0.15632  0.18915  Biso   1.000  H
  H337     1.0000 0.15001  0.37156  0.68660  Biso   1.000  H
  H338     1.0000 0.84999  0.87156  0.81340  Biso   1.000  H
  H339     1.0000 0.84999  0.62844  0.31340  Biso   1.000  H
  H340     1.0000 0.15001  0.12844  0.18660  Biso   1.000  H
  H341     1.0000 0.16596  0.30286  0.70281  Biso   1.000  H
  H342     1.0000 0.83404  0.80286  0.79719  Biso   1.000  H
  H343     1.0000 0.83404  0.69714  0.29719  Biso   1.000  H
  H344     1.0000 0.16596  0.19714  0.20281  Biso   1.000  H
  H345     1.0000 0.81200  0.64440  0.75860  Biso   1.000  H
  H346     1.0000 0.18800  0.14440  0.74140  Biso   1.000  H
  H347     1.0000 0.18800  0.35560  0.24140  Biso   1.000  H
  H348     1.0000 0.81200  0.85560  0.25860  Biso   1.000  H
  H349     1.0000 0.27100  0.40300  0.77720  Biso   1.000  H
  H350     1.0000 0.72900  0.90300  0.72280  Biso   1.000  H
  H351     1.0000 0.72900  0.59700  0.22280  Biso   1.000  H
  H352     1.0000 0.27100  0.09700  0.27720  Biso   1.000  H
