data_image0
_cell_length_a       19.401
_cell_length_b       18.667
_cell_length_c       19.423
_cell_angle_alpha    90
_cell_angle_beta     90
_cell_angle_gamma    90

_symmetry_space_group_name_H-M    "P 1"
_symmetry_int_tables_number       1

loop_
  _symmetry_equiv_pos_as_xyz
  'x, y, z'

loop_
  _atom_site_label
  _atom_site_occupancy
  _atom_site_fract_x
  _atom_site_fract_y
  _atom_site_fract_z
  _atom_site_thermal_displace_type
  _atom_site_B_iso_or_equiv
  _atom_site_type_symbol
  Cu1      1.0000 0.54579  0.19716  0.65450  Biso   1.000  Cu
  Cu2      1.0000 0.95421  0.80284  0.15450  Biso   1.000  Cu
  Cu3      1.0000 0.04579  0.30284  0.34550  Biso   1.000  Cu
  Cu4      1.0000 0.45421  0.69716  0.84550  Biso   1.000  Cu
  Cu5      1.0000 0.45421  0.80284  0.34550  Biso   1.000  Cu
  Cu6      1.0000 0.04579  0.19716  0.84550  Biso   1.000  Cu
  Cu7      1.0000 0.95421  0.69716  0.65450  Biso   1.000  Cu
  Cu8      1.0000 0.54579  0.30284  0.15450  Biso   1.000  Cu
  O1       1.0000 0.10141  0.42868  0.86130  Biso   1.000  O
  O2       1.0000 0.39859  0.57132  0.36130  Biso   1.000  O
  O3       1.0000 0.60141  0.07132  0.13870  Biso   1.000  O
  O4       1.0000 0.89859  0.92868  0.63870  Biso   1.000  O
  O5       1.0000 0.89859  0.57132  0.13870  Biso   1.000  O
  O6       1.0000 0.60141  0.42868  0.63870  Biso   1.000  O
  O7       1.0000 0.39859  0.92868  0.86130  Biso   1.000  O
  O8       1.0000 0.10141  0.07132  0.36130  Biso   1.000  O
  O9       1.0000 0.44653  0.20276  0.65695  Biso   1.000  O
  O10      1.0000 0.05347  0.79724  0.15695  Biso   1.000  O
  O11      1.0000 0.94653  0.29724  0.34305  Biso   1.000  O
  O12      1.0000 0.55347  0.70276  0.84305  Biso   1.000  O
  O13      1.0000 0.55347  0.79724  0.34305  Biso   1.000  O
  O14      1.0000 0.94653  0.20276  0.84305  Biso   1.000  O
  O15      1.0000 0.05347  0.70276  0.65695  Biso   1.000  O
  O16      1.0000 0.44653  0.29724  0.15695  Biso   1.000  O
  O17      1.0000 0.29179  0.29823  0.68664  Biso   1.000  O
  O18      1.0000 0.20821  0.70177  0.18664  Biso   1.000  O
  O19      1.0000 0.79179  0.20177  0.31336  Biso   1.000  O
  O20      1.0000 0.70821  0.79823  0.81336  Biso   1.000  O
  O21      1.0000 0.70821  0.70177  0.31336  Biso   1.000  O
  O22      1.0000 0.79179  0.29823  0.81336  Biso   1.000  O
  O23      1.0000 0.20821  0.79823  0.68664  Biso   1.000  O
  O24      1.0000 0.29179  0.20177  0.18664  Biso   1.000  O
  O25      1.0000 0.98534  0.31339  0.94965  Biso   1.000  O
  O26      1.0000 0.51466  0.68661  0.44965  Biso   1.000  O
  O27      1.0000 0.48534  0.18661  0.05035  Biso   1.000  O
  O28      1.0000 0.01466  0.81339  0.55035  Biso   1.000  O
  O29      1.0000 0.01466  0.68661  0.05035  Biso   1.000  O
  O30      1.0000 0.48534  0.31339  0.55035  Biso   1.000  O
  O31      1.0000 0.51466  0.81339  0.94965  Biso   1.000  O
  O32      1.0000 0.98534  0.18661  0.44965  Biso   1.000  O
  O33      1.0000 0.43017  0.29657  0.72592  Biso   1.000  O
  O34      1.0000 0.06983  0.70343  0.22592  Biso   1.000  O
  O35      1.0000 0.93017  0.20343  0.27408  Biso   1.000  O
  O36      1.0000 0.56983  0.79657  0.77408  Biso   1.000  O
  O37      1.0000 0.56983  0.70343  0.27408  Biso   1.000  O
  O38      1.0000 0.93017  0.29657  0.77408  Biso   1.000  O
  O39      1.0000 0.06983  0.79657  0.72592  Biso   1.000  O
  O40      1.0000 0.43017  0.20343  0.22592  Biso   1.000  O
  O41      1.0000 0.06489  0.29359  0.86475  Biso   1.000  O
  O42      1.0000 0.43511  0.70641  0.36475  Biso   1.000  O
  O43      1.0000 0.56489  0.20641  0.13525  Biso   1.000  O
  O44      1.0000 0.93511  0.79359  0.63525  Biso   1.000  O
  O45      1.0000 0.93511  0.70641  0.13525  Biso   1.000  O
  O46      1.0000 0.56489  0.29359  0.63525  Biso   1.000  O
  O47      1.0000 0.43511  0.79359  0.86475  Biso   1.000  O
  O48      1.0000 0.06489  0.20641  0.36475  Biso   1.000  O
  O49      1.0000 0.57489  0.21131  0.77224  Biso   1.000  O
  O50      1.0000 0.92511  0.78869  0.27224  Biso   1.000  O
  O51      1.0000 0.07489  0.28869  0.22776  Biso   1.000  O
  O52      1.0000 0.42511  0.71131  0.72776  Biso   1.000  O
  O53      1.0000 0.42511  0.78869  0.22776  Biso   1.000  O
  O54      1.0000 0.07489  0.21131  0.72776  Biso   1.000  O
  O55      1.0000 0.92511  0.71131  0.77224  Biso   1.000  O
  O56      1.0000 0.57489  0.28869  0.27224  Biso   1.000  O
  N1       1.0000 0.63680  0.16710  0.61178  Biso   1.000  N
  N2       1.0000 0.86320  0.83290  0.11178  Biso   1.000  N
  N3       1.0000 0.13680  0.33290  0.38822  Biso   1.000  N
  N4       1.0000 0.36320  0.66710  0.88822  Biso   1.000  N
  N5       1.0000 0.36320  0.83290  0.38822  Biso   1.000  N
  N6       1.0000 0.13680  0.16710  0.88822  Biso   1.000  N
  N7       1.0000 0.86320  0.66710  0.61178  Biso   1.000  N
  N8       1.0000 0.63680  0.33290  0.11178  Biso   1.000  N
  N9       1.0000 0.53911  0.09544  0.67065  Biso   1.000  N
  N10      1.0000 0.96089  0.90456  0.17065  Biso   1.000  N
  N11      1.0000 0.03911  0.40456  0.32935  Biso   1.000  N
  N12      1.0000 0.46089  0.59544  0.82935  Biso   1.000  N
  N13      1.0000 0.46089  0.90456  0.32935  Biso   1.000  N
  N14      1.0000 0.03911  0.09544  0.82935  Biso   1.000  N
  N15      1.0000 0.96089  0.59544  0.67065  Biso   1.000  N
  N16      1.0000 0.53911  0.40456  0.17065  Biso   1.000  N
  O57      1.0000 0.42463  0.08830  0.96661  Biso   1.000  O
  O58      1.0000 0.07537  0.91170  0.46661  Biso   1.000  O
  O59      1.0000 0.92463  0.41170  0.03339  Biso   1.000  O
  O60      1.0000 0.57537  0.58830  0.53339  Biso   1.000  O
  O61      1.0000 0.57537  0.91170  0.03339  Biso   1.000  O
  O62      1.0000 0.92463  0.08830  0.53339  Biso   1.000  O
  O63      1.0000 0.07537  0.58830  0.96661  Biso   1.000  O
  O64      1.0000 0.42463  0.41170  0.46661  Biso   1.000  O
  H1       1.0000 0.43450  0.12490  0.98980  Biso   1.000  H
  H2       1.0000 0.06550  0.87510  0.48980  Biso   1.000  H
  H3       1.0000 0.93450  0.37510  0.01020  Biso   1.000  H
  H4       1.0000 0.56550  0.62490  0.51020  Biso   1.000  H
  H5       1.0000 0.56550  0.87510  0.01020  Biso   1.000  H
  H6       1.0000 0.93450  0.12490  0.51020  Biso   1.000  H
  H7       1.0000 0.06550  0.62490  0.98980  Biso   1.000  H
  H8       1.0000 0.43450  0.37510  0.48980  Biso   1.000  H
  N17      1.0000 0.58965  0.28364  0.86711  Biso   1.000  N
  N18      1.0000 0.91035  0.71636  0.36711  Biso   1.000  N
  N19      1.0000 0.08965  0.21636  0.13289  Biso   1.000  N
  N20      1.0000 0.41035  0.78364  0.63289  Biso   1.000  N
  N21      1.0000 0.41035  0.71636  0.13289  Biso   1.000  N
  N22      1.0000 0.08965  0.28364  0.63289  Biso   1.000  N
  N23      1.0000 0.91035  0.78364  0.86711  Biso   1.000  N
  N24      1.0000 0.58965  0.21636  0.36711  Biso   1.000  N
  C1       1.0000 0.20418  0.36724  0.77764  Biso   1.000  C
  C2       1.0000 0.29582  0.63276  0.27764  Biso   1.000  C
  C3       1.0000 0.70418  0.13276  0.22236  Biso   1.000  C
  C4       1.0000 0.79582  0.86724  0.72236  Biso   1.000  C
  C5       1.0000 0.79582  0.63276  0.22236  Biso   1.000  C
  C6       1.0000 0.70418  0.36724  0.72236  Biso   1.000  C
  C7       1.0000 0.29582  0.86724  0.77764  Biso   1.000  C
  C8       1.0000 0.20418  0.13276  0.27764  Biso   1.000  C
  H9       1.0000 0.20800  0.31500  0.76950  Biso   1.000  H
  H10      1.0000 0.29200  0.68500  0.26950  Biso   1.000  H
  H11      1.0000 0.70800  0.18500  0.23050  Biso   1.000  H
  H12      1.0000 0.79200  0.81500  0.73050  Biso   1.000  H
  H13      1.0000 0.79200  0.68500  0.23050  Biso   1.000  H
  H14      1.0000 0.70800  0.31500  0.73050  Biso   1.000  H
  H15      1.0000 0.29200  0.81500  0.76950  Biso   1.000  H
  H16      1.0000 0.20800  0.18500  0.26950  Biso   1.000  H
  H17      1.0000 0.15670  0.38160  0.76510  Biso   1.000  H
  H18      1.0000 0.34330  0.61840  0.26510  Biso   1.000  H
  H19      1.0000 0.65670  0.11840  0.23490  Biso   1.000  H
  H20      1.0000 0.84330  0.88160  0.73490  Biso   1.000  H
  H21      1.0000 0.84330  0.61840  0.23490  Biso   1.000  H
  H22      1.0000 0.65670  0.38160  0.73490  Biso   1.000  H
  H23      1.0000 0.34330  0.88160  0.76510  Biso   1.000  H
  H24      1.0000 0.15670  0.11840  0.26510  Biso   1.000  H
  C9       1.0000 0.28364  0.37755  0.96783  Biso   1.000  C
  C10      1.0000 0.21636  0.62245  0.46783  Biso   1.000  C
  C11      1.0000 0.78364  0.12245  0.03217  Biso   1.000  C
  C12      1.0000 0.71636  0.87755  0.53217  Biso   1.000  C
  C13      1.0000 0.71636  0.62245  0.03217  Biso   1.000  C
  C14      1.0000 0.78364  0.37755  0.53217  Biso   1.000  C
  C15      1.0000 0.21636  0.87755  0.96783  Biso   1.000  C
  C16      1.0000 0.28364  0.12245  0.46783  Biso   1.000  C
  C17      1.0000 0.21392  0.38114  0.85687  Biso   1.000  C
  C18      1.0000 0.28608  0.61886  0.35687  Biso   1.000  C
  C19      1.0000 0.71392  0.11886  0.14313  Biso   1.000  C
  C20      1.0000 0.78608  0.88114  0.64313  Biso   1.000  C
  C21      1.0000 0.78608  0.61886  0.14313  Biso   1.000  C
  C22      1.0000 0.71392  0.38114  0.64313  Biso   1.000  C
  C23      1.0000 0.28608  0.88114  0.85687  Biso   1.000  C
  C24      1.0000 0.21392  0.11886  0.35687  Biso   1.000  C
  C25      1.0000 0.29846  0.36867  0.68465  Biso   1.000  C
  C26      1.0000 0.20154  0.63133  0.18465  Biso   1.000  C
  C27      1.0000 0.79846  0.13133  0.31535  Biso   1.000  C
  C28      1.0000 0.70154  0.86867  0.81535  Biso   1.000  C
  C29      1.0000 0.70154  0.63133  0.31535  Biso   1.000  C
  C30      1.0000 0.79846  0.36867  0.81535  Biso   1.000  C
  C31      1.0000 0.20154  0.86867  0.68465  Biso   1.000  C
  C32      1.0000 0.29846  0.13133  0.18465  Biso   1.000  C
  C33      1.0000 0.59836  0.98788  0.66222  Biso   1.000  C
  C34      1.0000 0.90164  0.01212  0.16222  Biso   1.000  C
  C35      1.0000 0.09836  0.51212  0.33778  Biso   1.000  C
  C36      1.0000 0.40164  0.48788  0.83778  Biso   1.000  C
  C37      1.0000 0.40164  0.01212  0.33778  Biso   1.000  C
  C38      1.0000 0.09836  0.98788  0.83778  Biso   1.000  C
  C39      1.0000 0.90164  0.48788  0.66222  Biso   1.000  C
  C40      1.0000 0.59836  0.51212  0.16222  Biso   1.000  C
  H25      1.0000 0.63640  0.96070  0.64590  Biso   1.000  H
  H26      1.0000 0.86360  0.03930  0.14590  Biso   1.000  H
  H27      1.0000 0.13640  0.53930  0.35410  Biso   1.000  H
  H28      1.0000 0.36360  0.46070  0.85410  Biso   1.000  H
  H29      1.0000 0.36360  0.03930  0.35410  Biso   1.000  H
  H30      1.0000 0.13640  0.96070  0.85410  Biso   1.000  H
  H31      1.0000 0.86360  0.46070  0.64590  Biso   1.000  H
  H32      1.0000 0.63640  0.53930  0.14590  Biso   1.000  H
  C41      1.0000 0.54703  0.95586  0.70089  Biso   1.000  C
  C42      1.0000 0.95297  0.04414  0.20089  Biso   1.000  C
  C43      1.0000 0.04703  0.54414  0.29911  Biso   1.000  C
  C44      1.0000 0.45297  0.45586  0.79911  Biso   1.000  C
  C45      1.0000 0.45297  0.04414  0.29911  Biso   1.000  C
  C46      1.0000 0.04703  0.95586  0.79911  Biso   1.000  C
  C47      1.0000 0.95297  0.45586  0.70089  Biso   1.000  C
  C48      1.0000 0.54703  0.54414  0.20089  Biso   1.000  C
  H33      1.0000 0.55050  0.90640  0.71210  Biso   1.000  H
  H34      1.0000 0.94950  0.09360  0.21210  Biso   1.000  H
  H35      1.0000 0.05050  0.59360  0.28790  Biso   1.000  H
  H36      1.0000 0.44950  0.40640  0.78790  Biso   1.000  H
  H37      1.0000 0.44950  0.09360  0.28790  Biso   1.000  H
  H38      1.0000 0.05050  0.90640  0.78790  Biso   1.000  H
  H39      1.0000 0.94950  0.40640  0.71210  Biso   1.000  H
  H40      1.0000 0.55050  0.59360  0.21210  Biso   1.000  H
  C49      1.0000 0.25383  0.40504  0.72872  Biso   1.000  C
  C50      1.0000 0.24617  0.59496  0.22872  Biso   1.000  C
  C51      1.0000 0.75383  0.09496  0.27128  Biso   1.000  C
  C52      1.0000 0.74617  0.90504  0.77128  Biso   1.000  C
  C53      1.0000 0.74617  0.59496  0.27128  Biso   1.000  C
  C54      1.0000 0.75383  0.40504  0.77128  Biso   1.000  C
  C55      1.0000 0.24617  0.90504  0.72872  Biso   1.000  C
  C56      1.0000 0.25383  0.09496  0.22872  Biso   1.000  C
  C57      1.0000 0.20897  0.52133  0.76438  Biso   1.000  C
  C58      1.0000 0.29103  0.47867  0.26438  Biso   1.000  C
  C59      1.0000 0.70897  0.97867  0.23562  Biso   1.000  C
  C60      1.0000 0.79103  0.02133  0.73562  Biso   1.000  C
  C61      1.0000 0.79103  0.47867  0.23562  Biso   1.000  C
  C62      1.0000 0.70897  0.52133  0.73562  Biso   1.000  C
  C63      1.0000 0.29103  0.02133  0.76438  Biso   1.000  C
  C64      1.0000 0.20897  0.97867  0.26438  Biso   1.000  C
  H41      1.0000 0.17240  0.49950  0.78920  Biso   1.000  H
  H42      1.0000 0.32760  0.50050  0.28920  Biso   1.000  H
  H43      1.0000 0.67240  0.00050  0.21080  Biso   1.000  H
  H44      1.0000 0.82760  0.99950  0.71080  Biso   1.000  H
  H45      1.0000 0.82760  0.50050  0.21080  Biso   1.000  H
  H46      1.0000 0.67240  0.49950  0.71080  Biso   1.000  H
  H47      1.0000 0.32760  0.99950  0.78920  Biso   1.000  H
  H48      1.0000 0.17240  0.00050  0.28920  Biso   1.000  H
  C65      1.0000 0.59331  0.05786  0.64827  Biso   1.000  C
  C66      1.0000 0.90669  0.94214  0.14827  Biso   1.000  C
  C67      1.0000 0.09331  0.44214  0.35173  Biso   1.000  C
  C68      1.0000 0.40669  0.55786  0.85173  Biso   1.000  C
  C69      1.0000 0.40669  0.94214  0.35173  Biso   1.000  C
  C70      1.0000 0.09331  0.05786  0.85173  Biso   1.000  C
  C71      1.0000 0.90669  0.55786  0.64827  Biso   1.000  C
  C72      1.0000 0.59331  0.44214  0.14827  Biso   1.000  C
  C73      1.0000 0.16173  0.41140  0.89645  Biso   1.000  C
  C74      1.0000 0.33827  0.58860  0.39645  Biso   1.000  C
  C75      1.0000 0.66173  0.08860  0.10355  Biso   1.000  C
  C76      1.0000 0.83827  0.91140  0.60355  Biso   1.000  C
  C77      1.0000 0.83827  0.58860  0.10355  Biso   1.000  C
  C78      1.0000 0.66173  0.41140  0.60355  Biso   1.000  C
  C79      1.0000 0.33827  0.91140  0.89645  Biso   1.000  C
  C80      1.0000 0.16173  0.08860  0.39645  Biso   1.000  C
  C81      1.0000 0.25668  0.47885  0.72691  Biso   1.000  C
  C82      1.0000 0.24332  0.52115  0.22691  Biso   1.000  C
  C83      1.0000 0.75668  0.02115  0.27309  Biso   1.000  C
  C84      1.0000 0.74332  0.97885  0.77309  Biso   1.000  C
  C85      1.0000 0.74332  0.52115  0.27309  Biso   1.000  C
  C86      1.0000 0.75668  0.47885  0.77309  Biso   1.000  C
  C87      1.0000 0.24332  0.97885  0.72691  Biso   1.000  C
  C88      1.0000 0.25668  0.02115  0.22691  Biso   1.000  C
  C89      1.0000 0.64686  0.09824  0.61039  Biso   1.000  C
  C90      1.0000 0.85314  0.90176  0.11039  Biso   1.000  C
  C91      1.0000 0.14686  0.40176  0.38961  Biso   1.000  C
  C92      1.0000 0.35314  0.59824  0.88961  Biso   1.000  C
  C93      1.0000 0.35314  0.90176  0.38961  Biso   1.000  C
  C94      1.0000 0.14686  0.09824  0.88961  Biso   1.000  C
  C95      1.0000 0.85314  0.59824  0.61039  Biso   1.000  C
  C96      1.0000 0.64686  0.40176  0.11039  Biso   1.000  C
  C97      1.0000 0.31615  0.58468  0.69058  Biso   1.000  C
  C98      1.0000 0.18385  0.41532  0.19058  Biso   1.000  C
  C99      1.0000 0.81615  0.91532  0.30942  Biso   1.000  C
  C100     1.0000 0.68385  0.08468  0.80942  Biso   1.000  C
  C101     1.0000 0.68385  0.41532  0.30942  Biso   1.000  C
  C102     1.0000 0.81615  0.58468  0.80942  Biso   1.000  C
  C103     1.0000 0.18385  0.08468  0.69058  Biso   1.000  C
  C104     1.0000 0.31615  0.91532  0.19058  Biso   1.000  C
  H49      1.0000 0.35250  0.60790  0.66660  Biso   1.000  H
  H50      1.0000 0.14750  0.39210  0.16660  Biso   1.000  H
  H51      1.0000 0.85250  0.89210  0.33340  Biso   1.000  H
  H52      1.0000 0.64750  0.10790  0.83340  Biso   1.000  H
  H53      1.0000 0.64750  0.39210  0.33340  Biso   1.000  H
  H54      1.0000 0.85250  0.60790  0.83340  Biso   1.000  H
  H55      1.0000 0.14750  0.10790  0.66660  Biso   1.000  H
  H56      1.0000 0.35250  0.89210  0.16660  Biso   1.000  H
  C105     1.0000 0.38651  0.30367  0.89665  Biso   1.000  C
  C106     1.0000 0.11349  0.69633  0.39665  Biso   1.000  C
  C107     1.0000 0.88651  0.19633  0.10335  Biso   1.000  C
  C108     1.0000 0.61349  0.80367  0.60335  Biso   1.000  C
  C109     1.0000 0.61349  0.69633  0.10335  Biso   1.000  C
  C110     1.0000 0.88651  0.30367  0.60335  Biso   1.000  C
  C111     1.0000 0.11349  0.80367  0.89665  Biso   1.000  C
  C112     1.0000 0.38651  0.19633  0.39665  Biso   1.000  C
  H57      1.0000 0.42210  0.27800  0.87390  Biso   1.000  H
  H58      1.0000 0.07790  0.72200  0.37390  Biso   1.000  H
  H59      1.0000 0.92210  0.22200  0.12610  Biso   1.000  H
  H60      1.0000 0.57790  0.77800  0.62610  Biso   1.000  H
  H61      1.0000 0.57790  0.72200  0.12610  Biso   1.000  H
  H62      1.0000 0.92210  0.27800  0.62610  Biso   1.000  H
  H63      1.0000 0.07790  0.77800  0.87390  Biso   1.000  H
  H64      1.0000 0.42210  0.22200  0.37390  Biso   1.000  H
  C113     1.0000 0.17039  0.42885  0.96904  Biso   1.000  C
  C114     1.0000 0.32961  0.57115  0.46904  Biso   1.000  C
  C115     1.0000 0.67039  0.07115  0.03096  Biso   1.000  C
  C116     1.0000 0.82961  0.92885  0.53096  Biso   1.000  C
  C117     1.0000 0.82961  0.57115  0.03096  Biso   1.000  C
  C118     1.0000 0.67039  0.42885  0.53096  Biso   1.000  C
  C119     1.0000 0.32961  0.92885  0.96904  Biso   1.000  C
  C120     1.0000 0.17039  0.07115  0.46904  Biso   1.000  C
  H65      1.0000 0.13390  0.45210  0.99280  Biso   1.000  H
  H66      1.0000 0.36610  0.54790  0.49280  Biso   1.000  H
  H67      1.0000 0.63390  0.04790  0.00720  Biso   1.000  H
  H68      1.0000 0.86610  0.95210  0.50720  Biso   1.000  H
  H69      1.0000 0.86610  0.54790  0.00720  Biso   1.000  H
  H70      1.0000 0.63390  0.45210  0.50720  Biso   1.000  H
  H71      1.0000 0.36610  0.95210  0.99280  Biso   1.000  H
  H72      1.0000 0.13390  0.04790  0.49280  Biso   1.000  H
  C121     1.0000 0.41167  0.25352  0.68187  Biso   1.000  C
  C122     1.0000 0.08833  0.74648  0.18187  Biso   1.000  C
  C123     1.0000 0.91167  0.24648  0.31813  Biso   1.000  C
  C124     1.0000 0.58833  0.75352  0.81813  Biso   1.000  C
  C125     1.0000 0.58833  0.74648  0.31813  Biso   1.000  C
  C126     1.0000 0.91167  0.25352  0.81813  Biso   1.000  C
  C127     1.0000 0.08833  0.75352  0.68187  Biso   1.000  C
  C128     1.0000 0.41167  0.24648  0.18187  Biso   1.000  C
  C129     1.0000 0.30935  0.51237  0.68640  Biso   1.000  C
  C130     1.0000 0.19065  0.48763  0.18640  Biso   1.000  C
  C131     1.0000 0.80935  0.98763  0.31360  Biso   1.000  C
  C132     1.0000 0.69065  0.01237  0.81360  Biso   1.000  C
  C133     1.0000 0.69065  0.48763  0.31360  Biso   1.000  C
  C134     1.0000 0.80935  0.51237  0.81360  Biso   1.000  C
  C135     1.0000 0.19065  0.01237  0.68640  Biso   1.000  C
  C136     1.0000 0.30935  0.98763  0.18640  Biso   1.000  C
  C137     1.0000 0.33995  0.25589  0.64873  Biso   1.000  C
  C138     1.0000 0.16005  0.74411  0.14873  Biso   1.000  C
  C139     1.0000 0.83995  0.24411  0.35127  Biso   1.000  C
  C140     1.0000 0.66005  0.75589  0.85127  Biso   1.000  C
  C141     1.0000 0.66005  0.74411  0.35127  Biso   1.000  C
  C142     1.0000 0.83995  0.25589  0.85127  Biso   1.000  C
  C143     1.0000 0.16005  0.75589  0.64873  Biso   1.000  C
  C144     1.0000 0.33995  0.24411  0.14873  Biso   1.000  C
  H73      1.0000 0.34410  0.27560  0.60160  Biso   1.000  H
  H74      1.0000 0.15590  0.72440  0.10160  Biso   1.000  H
  H75      1.0000 0.84410  0.22440  0.39840  Biso   1.000  H
  H76      1.0000 0.65590  0.77560  0.89840  Biso   1.000  H
  H77      1.0000 0.65590  0.72440  0.39840  Biso   1.000  H
  H78      1.0000 0.84410  0.27560  0.89840  Biso   1.000  H
  H79      1.0000 0.15590  0.77560  0.60160  Biso   1.000  H
  H80      1.0000 0.34410  0.22440  0.10160  Biso   1.000  H
  H81      1.0000 0.32200  0.20640  0.64490  Biso   1.000  H
  H82      1.0000 0.17800  0.79360  0.14490  Biso   1.000  H
  H83      1.0000 0.82200  0.29360  0.35510  Biso   1.000  H
  H84      1.0000 0.67800  0.70640  0.85510  Biso   1.000  H
  H85      1.0000 0.67800  0.79360  0.35510  Biso   1.000  H
  H86      1.0000 0.82200  0.20640  0.85510  Biso   1.000  H
  H87      1.0000 0.17800  0.70640  0.64490  Biso   1.000  H
  H88      1.0000 0.32200  0.29360  0.14490  Biso   1.000  H
  C145     1.0000 0.22978  0.41255  0.00396  Biso   1.000  C
  C146     1.0000 0.27022  0.58745  0.50396  Biso   1.000  C
  C147     1.0000 0.72978  0.08745  0.99604  Biso   1.000  C
  C148     1.0000 0.77022  0.91255  0.49604  Biso   1.000  C
  C149     1.0000 0.77022  0.58745  0.99604  Biso   1.000  C
  C150     1.0000 0.72978  0.41255  0.49604  Biso   1.000  C
  C151     1.0000 0.27022  0.91255  0.00396  Biso   1.000  C
  C152     1.0000 0.22978  0.08745  0.50396  Biso   1.000  C
  H89      1.0000 0.23470  0.42440  0.05130  Biso   1.000  H
  H90      1.0000 0.26530  0.57560  0.55130  Biso   1.000  H
  H91      1.0000 0.73470  0.07560  0.94870  Biso   1.000  H
  H92      1.0000 0.76530  0.92440  0.44870  Biso   1.000  H
  H93      1.0000 0.76530  0.57560  0.94870  Biso   1.000  H
  H94      1.0000 0.73470  0.42440  0.44870  Biso   1.000  H
  H95      1.0000 0.26530  0.92440  0.05130  Biso   1.000  H
  H96      1.0000 0.23470  0.07560  0.55130  Biso   1.000  H
  C153     1.0000 0.74291  0.18283  0.54958  Biso   1.000  C
  C154     1.0000 0.75709  0.81717  0.04958  Biso   1.000  C
  C155     1.0000 0.24291  0.31717  0.45042  Biso   1.000  C
  C156     1.0000 0.25709  0.68283  0.95042  Biso   1.000  C
  C157     1.0000 0.25709  0.81717  0.45042  Biso   1.000  C
  C158     1.0000 0.24291  0.18283  0.95042  Biso   1.000  C
  C159     1.0000 0.75709  0.68283  0.54958  Biso   1.000  C
  C160     1.0000 0.74291  0.31717  0.04958  Biso   1.000  C
  H97      1.0000 0.77560  0.21490  0.53020  Biso   1.000  H
  H98      1.0000 0.72440  0.78510  0.03020  Biso   1.000  H
  H99      1.0000 0.27560  0.28510  0.46980  Biso   1.000  H
  H100     1.0000 0.22440  0.71490  0.96980  Biso   1.000  H
  H101     1.0000 0.22440  0.78510  0.46980  Biso   1.000  H
  H102     1.0000 0.27560  0.21490  0.96980  Biso   1.000  H
  H103     1.0000 0.72440  0.71490  0.53020  Biso   1.000  H
  H104     1.0000 0.77560  0.28510  0.03020  Biso   1.000  H
  C161     1.0000 0.03948  0.40964  0.89724  Biso   1.000  C
  C162     1.0000 0.46052  0.59036  0.39724  Biso   1.000  C
  C163     1.0000 0.53948  0.09036  0.10276  Biso   1.000  C
  C164     1.0000 0.96052  0.90964  0.60276  Biso   1.000  C
  C165     1.0000 0.96052  0.59036  0.10276  Biso   1.000  C
  C166     1.0000 0.53948  0.40964  0.60276  Biso   1.000  C
  C167     1.0000 0.46052  0.90964  0.89724  Biso   1.000  C
  C168     1.0000 0.03948  0.09036  0.39724  Biso   1.000  C
  H105     1.0000 0.04040  0.43230  0.94330  Biso   1.000  H
  H106     1.0000 0.45960  0.56770  0.44330  Biso   1.000  H
  H107     1.0000 0.54040  0.06770  0.05670  Biso   1.000  H
  H108     1.0000 0.95960  0.93230  0.55670  Biso   1.000  H
  H109     1.0000 0.95960  0.56770  0.05670  Biso   1.000  H
  H110     1.0000 0.54040  0.43230  0.55670  Biso   1.000  H
  H111     1.0000 0.45960  0.93230  0.94330  Biso   1.000  H
  H112     1.0000 0.04040  0.06770  0.44330  Biso   1.000  H
  H113     1.0000 0.99960  0.42960  0.87190  Biso   1.000  H
  H114     1.0000 0.50040  0.57040  0.37190  Biso   1.000  H
  H115     1.0000 0.49960  0.07040  0.12810  Biso   1.000  H
  H116     1.0000 0.00040  0.92960  0.62810  Biso   1.000  H
  H117     1.0000 0.00040  0.57040  0.12810  Biso   1.000  H
  H118     1.0000 0.49960  0.42960  0.62810  Biso   1.000  H
  H119     1.0000 0.50040  0.92960  0.87190  Biso   1.000  H
  H120     1.0000 0.99960  0.07040  0.37190  Biso   1.000  H
  C169     1.0000 0.34715  0.40209  0.64082  Biso   1.000  C
  C170     1.0000 0.15285  0.59791  0.14082  Biso   1.000  C
  C171     1.0000 0.84715  0.09791  0.35918  Biso   1.000  C
  C172     1.0000 0.65285  0.90209  0.85918  Biso   1.000  C
  C173     1.0000 0.65285  0.59791  0.35918  Biso   1.000  C
  C174     1.0000 0.84715  0.40209  0.85918  Biso   1.000  C
  C175     1.0000 0.15285  0.90209  0.64082  Biso   1.000  C
  C176     1.0000 0.34715  0.09791  0.14082  Biso   1.000  C
  H121     1.0000 0.37470  0.37440  0.61030  Biso   1.000  H
  H122     1.0000 0.12530  0.62560  0.11030  Biso   1.000  H
  H123     1.0000 0.87470  0.12560  0.38970  Biso   1.000  H
  H124     1.0000 0.62530  0.87440  0.88970  Biso   1.000  H
  H125     1.0000 0.62530  0.62560  0.38970  Biso   1.000  H
  H126     1.0000 0.87470  0.37440  0.88970  Biso   1.000  H
  H127     1.0000 0.12530  0.87440  0.61030  Biso   1.000  H
  H128     1.0000 0.37470  0.12560  0.11030  Biso   1.000  H
  C177     1.0000 0.27126  0.62407  0.72885  Biso   1.000  C
  C178     1.0000 0.22874  0.37593  0.22885  Biso   1.000  C
  C179     1.0000 0.77126  0.87593  0.27115  Biso   1.000  C
  C180     1.0000 0.72874  0.12407  0.77115  Biso   1.000  C
  C181     1.0000 0.72874  0.37593  0.27115  Biso   1.000  C
  C182     1.0000 0.77126  0.62407  0.77115  Biso   1.000  C
  C183     1.0000 0.22874  0.12407  0.72885  Biso   1.000  C
  C184     1.0000 0.27126  0.87593  0.22885  Biso   1.000  C
  H129     1.0000 0.27730  0.67450  0.73170  Biso   1.000  H
  H130     1.0000 0.22270  0.32550  0.23170  Biso   1.000  H
  H131     1.0000 0.77730  0.82550  0.26830  Biso   1.000  H
  H132     1.0000 0.72270  0.17450  0.76830  Biso   1.000  H
  H133     1.0000 0.72270  0.32550  0.26830  Biso   1.000  H
  H134     1.0000 0.77730  0.67450  0.76830  Biso   1.000  H
  H135     1.0000 0.22270  0.17450  0.73170  Biso   1.000  H
  H136     1.0000 0.27730  0.82550  0.23170  Biso   1.000  H
  C185     1.0000 0.35344  0.47200  0.64325  Biso   1.000  C
  C186     1.0000 0.14656  0.52800  0.14325  Biso   1.000  C
  C187     1.0000 0.85344  0.02800  0.35675  Biso   1.000  C
  C188     1.0000 0.64656  0.97200  0.85675  Biso   1.000  C
  C189     1.0000 0.64656  0.52800  0.35675  Biso   1.000  C
  C190     1.0000 0.85344  0.47200  0.85675  Biso   1.000  C
  C191     1.0000 0.14656  0.97200  0.64325  Biso   1.000  C
  C192     1.0000 0.35344  0.02800  0.14325  Biso   1.000  C
  H137     1.0000 0.38740  0.49540  0.61620  Biso   1.000  H
  H138     1.0000 0.11260  0.50460  0.11620  Biso   1.000  H
  H139     1.0000 0.88740  0.00460  0.38380  Biso   1.000  H
  H140     1.0000 0.61260  0.99540  0.88380  Biso   1.000  H
  H141     1.0000 0.61260  0.50460  0.38380  Biso   1.000  H
  H142     1.0000 0.88740  0.49540  0.88380  Biso   1.000  H
  H143     1.0000 0.11260  0.99540  0.61620  Biso   1.000  H
  H144     1.0000 0.38740  0.00460  0.11620  Biso   1.000  H
  C193     1.0000 0.02904  0.33204  0.90584  Biso   1.000  C
  C194     1.0000 0.47096  0.66796  0.40584  Biso   1.000  C
  C195     1.0000 0.52904  0.16796  0.09416  Biso   1.000  C
  C196     1.0000 0.97096  0.83204  0.59416  Biso   1.000  C
  C197     1.0000 0.97096  0.66796  0.09416  Biso   1.000  C
  C198     1.0000 0.52904  0.33204  0.59416  Biso   1.000  C
  C199     1.0000 0.47096  0.83204  0.90584  Biso   1.000  C
  C200     1.0000 0.02904  0.16796  0.40584  Biso   1.000  C
  C201     1.0000 0.21622  0.59195  0.76425  Biso   1.000  C
  C202     1.0000 0.28378  0.40805  0.26425  Biso   1.000  C
  C203     1.0000 0.71622  0.90805  0.23575  Biso   1.000  C
  C204     1.0000 0.78378  0.09195  0.73575  Biso   1.000  C
  C205     1.0000 0.78378  0.40805  0.23575  Biso   1.000  C
  C206     1.0000 0.71622  0.59195  0.73575  Biso   1.000  C
  C207     1.0000 0.28378  0.09195  0.76425  Biso   1.000  C
  C208     1.0000 0.21622  0.90805  0.26425  Biso   1.000  C
  H145     1.0000 0.18400  0.62100  0.78820  Biso   1.000  H
  H146     1.0000 0.31600  0.37900  0.28820  Biso   1.000  H
  H147     1.0000 0.68400  0.87900  0.21180  Biso   1.000  H
  H148     1.0000 0.81600  0.12100  0.71180  Biso   1.000  H
  H149     1.0000 0.81600  0.37900  0.21180  Biso   1.000  H
  H150     1.0000 0.68400  0.62100  0.71180  Biso   1.000  H
  H151     1.0000 0.31600  0.12100  0.78820  Biso   1.000  H
  H152     1.0000 0.18400  0.87900  0.28820  Biso   1.000  H
  C209     1.0000 0.48868  0.06418  0.70680  Biso   1.000  C
  C210     1.0000 0.01132  0.93582  0.20680  Biso   1.000  C
  C211     1.0000 0.98868  0.43582  0.29320  Biso   1.000  C
  C212     1.0000 0.51132  0.56418  0.79320  Biso   1.000  C
  C213     1.0000 0.51132  0.93582  0.29320  Biso   1.000  C
  C214     1.0000 0.98868  0.06418  0.79320  Biso   1.000  C
  C215     1.0000 0.01132  0.56418  0.70680  Biso   1.000  C
  C216     1.0000 0.48868  0.43582  0.20680  Biso   1.000  C
  H153     1.0000 0.45030  0.09200  0.72100  Biso   1.000  H
  H154     1.0000 0.04970  0.90800  0.22100  Biso   1.000  H
  H155     1.0000 0.95030  0.40800  0.27900  Biso   1.000  H
  H156     1.0000 0.54970  0.59200  0.77900  Biso   1.000  H
  H157     1.0000 0.54970  0.90800  0.27900  Biso   1.000  H
  H158     1.0000 0.95030  0.09200  0.77900  Biso   1.000  H
  H159     1.0000 0.04970  0.59200  0.72100  Biso   1.000  H
  H160     1.0000 0.45030  0.40800  0.22100  Biso   1.000  H
  C217     1.0000 0.27562  0.36147  0.89367  Biso   1.000  C
  C218     1.0000 0.22438  0.63853  0.39367  Biso   1.000  C
  C219     1.0000 0.77562  0.13853  0.10633  Biso   1.000  C
  C220     1.0000 0.72438  0.86147  0.60633  Biso   1.000  C
  C221     1.0000 0.72438  0.63853  0.10633  Biso   1.000  C
  C222     1.0000 0.77562  0.36147  0.60633  Biso   1.000  C
  C223     1.0000 0.22438  0.86147  0.89367  Biso   1.000  C
  C224     1.0000 0.27562  0.13853  0.39367  Biso   1.000  C
  C225     1.0000 0.68399  0.20830  0.58231  Biso   1.000  C
  C226     1.0000 0.81601  0.79170  0.08231  Biso   1.000  C
  C227     1.0000 0.18399  0.29170  0.41769  Biso   1.000  C
  C228     1.0000 0.31601  0.70830  0.91769  Biso   1.000  C
  C229     1.0000 0.31601  0.79170  0.41769  Biso   1.000  C
  C230     1.0000 0.18399  0.20830  0.91769  Biso   1.000  C
  C231     1.0000 0.81601  0.70830  0.58231  Biso   1.000  C
  C232     1.0000 0.68399  0.29170  0.08231  Biso   1.000  C
  H161     1.0000 0.67710  0.25870  0.58360  Biso   1.000  H
  H162     1.0000 0.82290  0.74130  0.08360  Biso   1.000  H
  H163     1.0000 0.17710  0.24130  0.41640  Biso   1.000  H
  H164     1.0000 0.32290  0.75870  0.91640  Biso   1.000  H
  H165     1.0000 0.32290  0.74130  0.41640  Biso   1.000  H
  H166     1.0000 0.17710  0.25870  0.91640  Biso   1.000  H
  H167     1.0000 0.82290  0.75870  0.58360  Biso   1.000  H
  H168     1.0000 0.67710  0.24130  0.08360  Biso   1.000  H
  C233     1.0000 0.49100  0.99459  0.72344  Biso   1.000  C
  C234     1.0000 0.00900  0.00541  0.22344  Biso   1.000  C
  C235     1.0000 0.99100  0.50541  0.27656  Biso   1.000  C
  C236     1.0000 0.50900  0.49459  0.77656  Biso   1.000  C
  C237     1.0000 0.50900  0.00541  0.27656  Biso   1.000  C
  C238     1.0000 0.99100  0.99459  0.77656  Biso   1.000  C
  C239     1.0000 0.00900  0.49459  0.72344  Biso   1.000  C
  C240     1.0000 0.49100  0.50541  0.22344  Biso   1.000  C
  H169     1.0000 0.45540  0.97280  0.74980  Biso   1.000  H
  H170     1.0000 0.04460  0.02720  0.24980  Biso   1.000  H
  H171     1.0000 0.95540  0.52720  0.25020  Biso   1.000  H
  H172     1.0000 0.54460  0.47280  0.75020  Biso   1.000  H
  H173     1.0000 0.54460  0.02720  0.25020  Biso   1.000  H
  H174     1.0000 0.95540  0.97280  0.75020  Biso   1.000  H
  H175     1.0000 0.04460  0.47280  0.74980  Biso   1.000  H
  H176     1.0000 0.45540  0.52720  0.24980  Biso   1.000  H
  C241     1.0000 0.34451  0.35704  0.00410  Biso   1.000  C
  C242     1.0000 0.15549  0.64296  0.50410  Biso   1.000  C
  C243     1.0000 0.84451  0.14296  0.99590  Biso   1.000  C
  C244     1.0000 0.65549  0.85704  0.49590  Biso   1.000  C
  C245     1.0000 0.65549  0.64296  0.99590  Biso   1.000  C
  C246     1.0000 0.84451  0.35704  0.49590  Biso   1.000  C
  C247     1.0000 0.15549  0.85704  0.00410  Biso   1.000  C
  C248     1.0000 0.34451  0.14296  0.50410  Biso   1.000  C
  H177     1.0000 0.34990  0.36860  0.05140  Biso   1.000  H
  H178     1.0000 0.15010  0.63140  0.55140  Biso   1.000  H
  H179     1.0000 0.84990  0.13140  0.94860  Biso   1.000  H
  H180     1.0000 0.65010  0.86860  0.44860  Biso   1.000  H
  H181     1.0000 0.65010  0.63140  0.94860  Biso   1.000  H
  H182     1.0000 0.84990  0.36860  0.44860  Biso   1.000  H
  H183     1.0000 0.15010  0.86860  0.05140  Biso   1.000  H
  H184     1.0000 0.34990  0.13140  0.55140  Biso   1.000  H
  C249     1.0000 0.70389  0.06945  0.57715  Biso   1.000  C
  C250     1.0000 0.79611  0.93055  0.07715  Biso   1.000  C
  C251     1.0000 0.20389  0.43055  0.42285  Biso   1.000  C
  C252     1.0000 0.29611  0.56945  0.92285  Biso   1.000  C
  C253     1.0000 0.29611  0.93055  0.42285  Biso   1.000  C
  C254     1.0000 0.20389  0.06945  0.92285  Biso   1.000  C
  C255     1.0000 0.79611  0.56945  0.57715  Biso   1.000  C
  C256     1.0000 0.70389  0.43055  0.07715  Biso   1.000  C
  H185     1.0000 0.70960  0.01890  0.57590  Biso   1.000  H
  H186     1.0000 0.79040  0.98110  0.07590  Biso   1.000  H
  H187     1.0000 0.20960  0.48110  0.42410  Biso   1.000  H
  H188     1.0000 0.29040  0.51890  0.92410  Biso   1.000  H
  H189     1.0000 0.29040  0.98110  0.42410  Biso   1.000  H
  H190     1.0000 0.20960  0.01890  0.92410  Biso   1.000  H
  H191     1.0000 0.79040  0.51890  0.57590  Biso   1.000  H
  H192     1.0000 0.70960  0.48110  0.07590  Biso   1.000  H
  C257     1.0000 0.32912  0.32362  0.85962  Biso   1.000  C
  C258     1.0000 0.17088  0.67638  0.35962  Biso   1.000  C
  C259     1.0000 0.82912  0.17638  0.14038  Biso   1.000  C
  C260     1.0000 0.67088  0.82362  0.64038  Biso   1.000  C
  C261     1.0000 0.67088  0.67638  0.14038  Biso   1.000  C
  C262     1.0000 0.82912  0.32362  0.64038  Biso   1.000  C
  C263     1.0000 0.17088  0.82362  0.85962  Biso   1.000  C
  C264     1.0000 0.32912  0.17638  0.35962  Biso   1.000  C
  H193     1.0000 0.32540  0.31220  0.81210  Biso   1.000  H
  H194     1.0000 0.17460  0.68780  0.31210  Biso   1.000  H
  H195     1.0000 0.82540  0.18780  0.18790  Biso   1.000  H
  H196     1.0000 0.67460  0.81220  0.68790  Biso   1.000  H
  H197     1.0000 0.67460  0.68780  0.18790  Biso   1.000  H
  H198     1.0000 0.82540  0.31220  0.68790  Biso   1.000  H
  H199     1.0000 0.17460  0.81220  0.81210  Biso   1.000  H
  H200     1.0000 0.32540  0.18780  0.31210  Biso   1.000  H
  C265     1.0000 0.39459  0.32072  0.96995  Biso   1.000  C
  C266     1.0000 0.10541  0.67928  0.46995  Biso   1.000  C
  C267     1.0000 0.89459  0.17928  0.03005  Biso   1.000  C
  C268     1.0000 0.60541  0.82072  0.53005  Biso   1.000  C
  C269     1.0000 0.60541  0.67928  0.03005  Biso   1.000  C
  C270     1.0000 0.89459  0.32072  0.53005  Biso   1.000  C
  C271     1.0000 0.10541  0.82072  0.96995  Biso   1.000  C
  C272     1.0000 0.39459  0.17928  0.46995  Biso   1.000  C
  H201     1.0000 0.43510  0.30630  0.99370  Biso   1.000  H
  H202     1.0000 0.06490  0.69370  0.49370  Biso   1.000  H
  H203     1.0000 0.93510  0.19370  0.00630  Biso   1.000  H
  H204     1.0000 0.56490  0.80630  0.50630  Biso   1.000  H
  H205     1.0000 0.56490  0.69370  0.00630  Biso   1.000  H
  H206     1.0000 0.93510  0.30630  0.50630  Biso   1.000  H
  H207     1.0000 0.06490  0.80630  0.99370  Biso   1.000  H
  H208     1.0000 0.43510  0.19370  0.49370  Biso   1.000  H
  C273     1.0000 0.75215  0.11227  0.54618  Biso   1.000  C
  C274     1.0000 0.74785  0.88773  0.04618  Biso   1.000  C
  C275     1.0000 0.25215  0.38773  0.45382  Biso   1.000  C
  C276     1.0000 0.24785  0.61227  0.95382  Biso   1.000  C
  C277     1.0000 0.24785  0.88773  0.45382  Biso   1.000  C
  C278     1.0000 0.25215  0.11227  0.95382  Biso   1.000  C
  C279     1.0000 0.74785  0.61227  0.54618  Biso   1.000  C
  C280     1.0000 0.75215  0.38773  0.04618  Biso   1.000  C
  H209     1.0000 0.79080  0.09230  0.52310  Biso   1.000  H
  H210     1.0000 0.70920  0.90770  0.02310  Biso   1.000  H
  H211     1.0000 0.29080  0.40770  0.47690  Biso   1.000  H
  H212     1.0000 0.20920  0.59230  0.97690  Biso   1.000  H
  H213     1.0000 0.20920  0.90770  0.47690  Biso   1.000  H
  H214     1.0000 0.29080  0.09230  0.97690  Biso   1.000  H
  H215     1.0000 0.70920  0.59230  0.52310  Biso   1.000  H
  H216     1.0000 0.79080  0.40770  0.02310  Biso   1.000  H
  C281     1.0000 0.57271  0.26839  0.80079  Biso   1.000  C
  C282     1.0000 0.92729  0.73161  0.30079  Biso   1.000  C
  C283     1.0000 0.07271  0.23161  0.19921  Biso   1.000  C
  C284     1.0000 0.42729  0.76839  0.69921  Biso   1.000  C
  C285     1.0000 0.42729  0.73161  0.19921  Biso   1.000  C
  C286     1.0000 0.07271  0.26839  0.69921  Biso   1.000  C
  C287     1.0000 0.92729  0.76839  0.80079  Biso   1.000  C
  C288     1.0000 0.57271  0.23161  0.30079  Biso   1.000  C
  H217     1.0000 0.55730  0.30760  0.77370  Biso   1.000  H
  H218     1.0000 0.94270  0.69240  0.27370  Biso   1.000  H
  H219     1.0000 0.05730  0.19240  0.22630  Biso   1.000  H
  H220     1.0000 0.44270  0.80760  0.72630  Biso   1.000  H
  H221     1.0000 0.44270  0.69240  0.22630  Biso   1.000  H
  H222     1.0000 0.05730  0.30760  0.72630  Biso   1.000  H
  H223     1.0000 0.94270  0.80760  0.77370  Biso   1.000  H
  H224     1.0000 0.55730  0.19240  0.27370  Biso   1.000  H
  C289     1.0000 0.44510  0.09890  0.89660  Biso   1.000  C
  C290     1.0000 0.05490  0.90110  0.39660  Biso   1.000  C
  C291     1.0000 0.94510  0.40110  0.10340  Biso   1.000  C
  C292     1.0000 0.55490  0.59890  0.60340  Biso   1.000  C
  C293     1.0000 0.55490  0.90110  0.10340  Biso   1.000  C
  C294     1.0000 0.94510  0.09890  0.60340  Biso   1.000  C
  C295     1.0000 0.05490  0.59890  0.89660  Biso   1.000  C
  C296     1.0000 0.44510  0.40110  0.39660  Biso   1.000  C
  H225     1.0000 0.43130  0.14690  0.88160  Biso   1.000  H
  H226     1.0000 0.06870  0.85310  0.38160  Biso   1.000  H
  H227     1.0000 0.93130  0.35310  0.11840  Biso   1.000  H
  H228     1.0000 0.56870  0.64690  0.61840  Biso   1.000  H
  H229     1.0000 0.56870  0.85310  0.11840  Biso   1.000  H
  H230     1.0000 0.93130  0.14690  0.61840  Biso   1.000  H
  H231     1.0000 0.06870  0.64690  0.88160  Biso   1.000  H
  H232     1.0000 0.43130  0.35310  0.38160  Biso   1.000  H
  H233     1.0000 0.42270  0.06300  0.86740  Biso   1.000  H
  H234     1.0000 0.07730  0.93700  0.36740  Biso   1.000  H
  H235     1.0000 0.92270  0.43700  0.13260  Biso   1.000  H
  H236     1.0000 0.57730  0.56300  0.63260  Biso   1.000  H
  H237     1.0000 0.57730  0.93700  0.13260  Biso   1.000  H
  H238     1.0000 0.92270  0.06300  0.63260  Biso   1.000  H
  H239     1.0000 0.07730  0.56300  0.86740  Biso   1.000  H
  H240     1.0000 0.42270  0.43700  0.36740  Biso   1.000  H
  H241     1.0000 0.49520  0.09400  0.89280  Biso   1.000  H
  H242     1.0000 0.00480  0.90600  0.39280  Biso   1.000  H
  H243     1.0000 0.99520  0.40600  0.10720  Biso   1.000  H
  H244     1.0000 0.50480  0.59400  0.60720  Biso   1.000  H
  H245     1.0000 0.50480  0.90600  0.10720  Biso   1.000  H
  H246     1.0000 0.99520  0.09400  0.60720  Biso   1.000  H
  H247     1.0000 0.00480  0.59400  0.89280  Biso   1.000  H
  H248     1.0000 0.49520  0.40600  0.39280  Biso   1.000  H
  C297     1.0000 0.59090  0.35350  0.89410  Biso   1.000  C
  C298     1.0000 0.90910  0.64650  0.39410  Biso   1.000  C
  C299     1.0000 0.09090  0.14650  0.10590  Biso   1.000  C
  C300     1.0000 0.40910  0.85350  0.60590  Biso   1.000  C
  C301     1.0000 0.40910  0.64650  0.10590  Biso   1.000  C
  C302     1.0000 0.09090  0.35350  0.60590  Biso   1.000  C
  C303     1.0000 0.90910  0.85350  0.89410  Biso   1.000  C
  C304     1.0000 0.59090  0.14650  0.39410  Biso   1.000  C
  H249     1.0000 0.60470  0.35170  0.94270  Biso   1.000  H
  H250     1.0000 0.89530  0.64830  0.44270  Biso   1.000  H
  H251     1.0000 0.10470  0.14830  0.05730  Biso   1.000  H
  H252     1.0000 0.39530  0.85170  0.55730  Biso   1.000  H
  H253     1.0000 0.39530  0.64830  0.05730  Biso   1.000  H
  H254     1.0000 0.10470  0.35170  0.55730  Biso   1.000  H
  H255     1.0000 0.89530  0.85170  0.94270  Biso   1.000  H
  H256     1.0000 0.60470  0.14830  0.44270  Biso   1.000  H
  H257     1.0000 0.54490  0.37480  0.89040  Biso   1.000  H
  H258     1.0000 0.95510  0.62520  0.39040  Biso   1.000  H
  H259     1.0000 0.04490  0.12520  0.10960  Biso   1.000  H
  H260     1.0000 0.45510  0.87480  0.60960  Biso   1.000  H
  H261     1.0000 0.45510  0.62520  0.10960  Biso   1.000  H
  H262     1.0000 0.04490  0.37480  0.60960  Biso   1.000  H
  H263     1.0000 0.95510  0.87480  0.89040  Biso   1.000  H
  H264     1.0000 0.54490  0.12520  0.39040  Biso   1.000  H
  H265     1.0000 0.62400  0.38250  0.86820  Biso   1.000  H
  H266     1.0000 0.87600  0.61750  0.36820  Biso   1.000  H
  H267     1.0000 0.12400  0.11750  0.13180  Biso   1.000  H
  H268     1.0000 0.37600  0.88250  0.63180  Biso   1.000  H
  H269     1.0000 0.37600  0.61750  0.13180  Biso   1.000  H
  H270     1.0000 0.12400  0.38250  0.63180  Biso   1.000  H
  H271     1.0000 0.87600  0.88250  0.86820  Biso   1.000  H
  H272     1.0000 0.62400  0.11750  0.36820  Biso   1.000  H
  C305     1.0000 0.61230  0.23050  0.91490  Biso   1.000  C
  C306     1.0000 0.88770  0.76950  0.41490  Biso   1.000  C
  C307     1.0000 0.11230  0.26950  0.08510  Biso   1.000  C
  C308     1.0000 0.38770  0.73050  0.58510  Biso   1.000  C
  C309     1.0000 0.38770  0.76950  0.08510  Biso   1.000  C
  C310     1.0000 0.11230  0.23050  0.58510  Biso   1.000  C
  C311     1.0000 0.88770  0.73050  0.91490  Biso   1.000  C
  C312     1.0000 0.61230  0.26950  0.41490  Biso   1.000  C
  H273     1.0000 0.63210  0.18990  0.88980  Biso   1.000  H
  H274     1.0000 0.86790  0.81010  0.38980  Biso   1.000  H
  H275     1.0000 0.13210  0.31010  0.11020  Biso   1.000  H
  H276     1.0000 0.36790  0.68990  0.61020  Biso   1.000  H
  H277     1.0000 0.36790  0.81010  0.11020  Biso   1.000  H
  H278     1.0000 0.13210  0.18990  0.61020  Biso   1.000  H
  H279     1.0000 0.86790  0.68990  0.88980  Biso   1.000  H
  H280     1.0000 0.63210  0.31010  0.38980  Biso   1.000  H
  H281     1.0000 0.57300  0.21400  0.94240  Biso   1.000  H
  H282     1.0000 0.92700  0.78600  0.44240  Biso   1.000  H
  H283     1.0000 0.07300  0.28600  0.05760  Biso   1.000  H
  H284     1.0000 0.42700  0.71400  0.55760  Biso   1.000  H
  H285     1.0000 0.42700  0.78600  0.05760  Biso   1.000  H
  H286     1.0000 0.07300  0.21400  0.55760  Biso   1.000  H
  H287     1.0000 0.92700  0.71400  0.94240  Biso   1.000  H
  H288     1.0000 0.57300  0.28600  0.44240  Biso   1.000  H
  H289     1.0000 0.64720  0.25110  0.94550  Biso   1.000  H
  H290     1.0000 0.85280  0.74890  0.44550  Biso   1.000  H
  H291     1.0000 0.14720  0.24890  0.05450  Biso   1.000  H
  H292     1.0000 0.35280  0.75110  0.55450  Biso   1.000  H
  H293     1.0000 0.35280  0.74890  0.05450  Biso   1.000  H
  H294     1.0000 0.14720  0.25110  0.55450  Biso   1.000  H
  H295     1.0000 0.85280  0.75110  0.94550  Biso   1.000  H
  H296     1.0000 0.64720  0.24890  0.44550  Biso   1.000  H
