data_image0
_cell_length_a       32.349
_cell_length_b       20.892
_cell_length_c       21.162
_cell_angle_alpha    90
_cell_angle_beta     90
_cell_angle_gamma    90

_symmetry_space_group_name_H-M    "P 1"
_symmetry_int_tables_number       1

loop_
  _symmetry_equiv_pos_as_xyz
  'x, y, z'

loop_
  _atom_site_label
  _atom_site_occupancy
  _atom_site_fract_x
  _atom_site_fract_y
  _atom_site_fract_z
  _atom_site_thermal_displace_type
  _atom_site_B_iso_or_equiv
  _atom_site_type_symbol
  W1       1.0000 0.25791  0.57627  0.47421  Biso   1.000  W
  W2       1.0000 0.75791  0.07627  0.02579  Biso   1.000  W
  W3       1.0000 0.24209  0.07627  0.47421  Biso   1.000  W
  W4       1.0000 0.25791  0.42373  0.97421  Biso   1.000  W
  W5       1.0000 0.74209  0.42373  0.52579  Biso   1.000  W
  W6       1.0000 0.24209  0.92373  0.97421  Biso   1.000  W
  W7       1.0000 0.75791  0.92373  0.52579  Biso   1.000  W
  W8       1.0000 0.74209  0.57627  0.02579  Biso   1.000  W
  W9       1.0000 0.50000  0.17816  0.75000  Biso   1.000  W
  W10      1.0000 0.00000  0.67816  0.75000  Biso   1.000  W
  W11      1.0000 0.50000  0.82184  0.25000  Biso   1.000  W
  W12      1.0000 0.00000  0.32184  0.25000  Biso   1.000  W
  Cu1      1.0000 0.26953  0.72052  0.27219  Biso   1.000  Cu
  Cu2      1.0000 0.76953  0.22052  0.22781  Biso   1.000  Cu
  Cu3      1.0000 0.23047  0.22052  0.27219  Biso   1.000  Cu
  Cu4      1.0000 0.26953  0.27948  0.77219  Biso   1.000  Cu
  Cu5      1.0000 0.73047  0.27948  0.72781  Biso   1.000  Cu
  Cu6      1.0000 0.23047  0.77948  0.77219  Biso   1.000  Cu
  Cu7      1.0000 0.76953  0.77948  0.72781  Biso   1.000  Cu
  Cu8      1.0000 0.73047  0.72052  0.22781  Biso   1.000  Cu
  Cu9      1.0000 0.26126  0.76130  0.64430  Biso   1.000  Cu
  Cu10     1.0000 0.76126  0.26130  0.85570  Biso   1.000  Cu
  Cu11     1.0000 0.23874  0.26130  0.64430  Biso   1.000  Cu
  Cu12     1.0000 0.26126  0.23870  0.14430  Biso   1.000  Cu
  Cu13     1.0000 0.73874  0.23870  0.35570  Biso   1.000  Cu
  Cu14     1.0000 0.23874  0.73870  0.14430  Biso   1.000  Cu
  Cu15     1.0000 0.76126  0.73870  0.35570  Biso   1.000  Cu
  Cu16     1.0000 0.73874  0.76130  0.85570  Biso   1.000  Cu
  Cu17     1.0000 0.34867  0.44265  0.63274  Biso   1.000  Cu
  Cu18     1.0000 0.84867  0.94265  0.86726  Biso   1.000  Cu
  Cu19     1.0000 0.15133  0.94265  0.63274  Biso   1.000  Cu
  Cu20     1.0000 0.34867  0.55735  0.13274  Biso   1.000  Cu
  Cu21     1.0000 0.65133  0.55735  0.36726  Biso   1.000  Cu
  Cu22     1.0000 0.15133  0.05735  0.13274  Biso   1.000  Cu
  Cu23     1.0000 0.84867  0.05735  0.36726  Biso   1.000  Cu
  Cu24     1.0000 0.65133  0.44265  0.86726  Biso   1.000  Cu
  Cu25     1.0000 0.39623  0.32413  0.62904  Biso   1.000  Cu
  Cu26     1.0000 0.89623  0.82413  0.87096  Biso   1.000  Cu
  Cu27     1.0000 0.10377  0.82413  0.62904  Biso   1.000  Cu
  Cu28     1.0000 0.39623  0.67587  0.12904  Biso   1.000  Cu
  Cu29     1.0000 0.60377  0.67587  0.37096  Biso   1.000  Cu
  Cu30     1.0000 0.10377  0.17587  0.12904  Biso   1.000  Cu
  Cu31     1.0000 0.89623  0.17587  0.37096  Biso   1.000  Cu
  Cu32     1.0000 0.60377  0.32413  0.87096  Biso   1.000  Cu
  Cu33     1.0000 0.47991  0.02960  0.94578  Biso   1.000  Cu
  Cu34     1.0000 0.97991  0.52960  0.55422  Biso   1.000  Cu
  Cu35     1.0000 0.02009  0.52960  0.94578  Biso   1.000  Cu
  Cu36     1.0000 0.47991  0.97040  0.44578  Biso   1.000  Cu
  Cu37     1.0000 0.52009  0.97040  0.05422  Biso   1.000  Cu
  Cu38     1.0000 0.02009  0.47040  0.44578  Biso   1.000  Cu
  Cu39     1.0000 0.97991  0.47040  0.05422  Biso   1.000  Cu
  Cu40     1.0000 0.52009  0.02960  0.55422  Biso   1.000  Cu
  O1       1.0000 0.28096  0.77530  0.20010  Biso   1.000  O
  O2       1.0000 0.78096  0.27530  0.29990  Biso   1.000  O
  O3       1.0000 0.21904  0.27530  0.20010  Biso   1.000  O
  O4       1.0000 0.28096  0.22470  0.70010  Biso   1.000  O
  O5       1.0000 0.71904  0.22470  0.79990  Biso   1.000  O
  O6       1.0000 0.21904  0.72470  0.70010  Biso   1.000  O
  O7       1.0000 0.78096  0.72470  0.79990  Biso   1.000  O
  O8       1.0000 0.71904  0.77530  0.29990  Biso   1.000  O
  O9       1.0000 0.21250  0.78550  0.30700  Biso   1.000  O
  O10      1.0000 0.71250  0.28550  0.19300  Biso   1.000  O
  O11      1.0000 0.28750  0.28550  0.30700  Biso   1.000  O
  O12      1.0000 0.21250  0.21450  0.80700  Biso   1.000  O
  O13      1.0000 0.78750  0.21450  0.69300  Biso   1.000  O
  O14      1.0000 0.28750  0.71450  0.80700  Biso   1.000  O
  O15      1.0000 0.71250  0.71450  0.69300  Biso   1.000  O
  O16      1.0000 0.78750  0.78550  0.19300  Biso   1.000  O
  H1       1.0000 0.19440  0.76230  0.32500  Biso   1.000  H
  H2       1.0000 0.69440  0.26230  0.17500  Biso   1.000  H
  H3       1.0000 0.30560  0.26230  0.32500  Biso   1.000  H
  H4       1.0000 0.19440  0.23770  0.82500  Biso   1.000  H
  H5       1.0000 0.80560  0.23770  0.67500  Biso   1.000  H
  H6       1.0000 0.30560  0.73770  0.82500  Biso   1.000  H
  H7       1.0000 0.69440  0.73770  0.67500  Biso   1.000  H
  H8       1.0000 0.80560  0.76230  0.17500  Biso   1.000  H
  O17      1.0000 0.33470  0.67840  0.27660  Biso   1.000  O
  O18      1.0000 0.83470  0.17840  0.22340  Biso   1.000  O
  O19      1.0000 0.16530  0.17840  0.27660  Biso   1.000  O
  O20      1.0000 0.33470  0.32160  0.77660  Biso   1.000  O
  O21      1.0000 0.66530  0.32160  0.72340  Biso   1.000  O
  O22      1.0000 0.16530  0.82160  0.77660  Biso   1.000  O
  O23      1.0000 0.83470  0.82160  0.72340  Biso   1.000  O
  O24      1.0000 0.66530  0.67840  0.22340  Biso   1.000  O
  H9       1.0000 0.34330  0.67010  0.23950  Biso   1.000  H
  H10      1.0000 0.84330  0.17010  0.26050  Biso   1.000  H
  H11      1.0000 0.15670  0.17010  0.23950  Biso   1.000  H
  H12      1.0000 0.34330  0.32990  0.73950  Biso   1.000  H
  H13      1.0000 0.65670  0.32990  0.76050  Biso   1.000  H
  H14      1.0000 0.15670  0.82990  0.73950  Biso   1.000  H
  H15      1.0000 0.84330  0.82990  0.76050  Biso   1.000  H
  H16      1.0000 0.65670  0.67010  0.26050  Biso   1.000  H
  O25      1.0000 0.24154  0.67111  0.20750  Biso   1.000  O
  O26      1.0000 0.74154  0.17111  0.29250  Biso   1.000  O
  O27      1.0000 0.25846  0.17111  0.20750  Biso   1.000  O
  O28      1.0000 0.24154  0.32889  0.70750  Biso   1.000  O
  O29      1.0000 0.75846  0.32889  0.79250  Biso   1.000  O
  O30      1.0000 0.25846  0.82889  0.70750  Biso   1.000  O
  O31      1.0000 0.74154  0.82889  0.79250  Biso   1.000  O
  O32      1.0000 0.75846  0.67111  0.29250  Biso   1.000  O
  O33      1.0000 0.27498  0.68090  0.06830  Biso   1.000  O
  O34      1.0000 0.77498  0.18090  0.43170  Biso   1.000  O
  O35      1.0000 0.22502  0.18090  0.06830  Biso   1.000  O
  O36      1.0000 0.27498  0.31910  0.56830  Biso   1.000  O
  O37      1.0000 0.72502  0.31910  0.93170  Biso   1.000  O
  O38      1.0000 0.22502  0.81910  0.56830  Biso   1.000  O
  O39      1.0000 0.77498  0.81910  0.93170  Biso   1.000  O
  O40      1.0000 0.72502  0.68090  0.43170  Biso   1.000  O
  H17      1.0000 0.29630  0.66320  0.08420  Biso   1.000  H
  H18      1.0000 0.79630  0.16320  0.41580  Biso   1.000  H
  H19      1.0000 0.20370  0.16320  0.08420  Biso   1.000  H
  H20      1.0000 0.29630  0.33680  0.58420  Biso   1.000  H
  H21      1.0000 0.70370  0.33680  0.91580  Biso   1.000  H
  H22      1.0000 0.20370  0.83680  0.58420  Biso   1.000  H
  H23      1.0000 0.79630  0.83680  0.91580  Biso   1.000  H
  H24      1.0000 0.70370  0.66320  0.41580  Biso   1.000  H
  O41      1.0000 0.17974  0.79470  0.18390  Biso   1.000  O
  O42      1.0000 0.67974  0.29470  0.31610  Biso   1.000  O
  O43      1.0000 0.32026  0.29470  0.18390  Biso   1.000  O
  O44      1.0000 0.17974  0.20530  0.68390  Biso   1.000  O
  O45      1.0000 0.82026  0.20530  0.81610  Biso   1.000  O
  O46      1.0000 0.32026  0.70530  0.68390  Biso   1.000  O
  O47      1.0000 0.67974  0.70530  0.81610  Biso   1.000  O
  O48      1.0000 0.82026  0.79470  0.31610  Biso   1.000  O
  H25      1.0000 0.18060  0.79600  0.22400  Biso   1.000  H
  H26      1.0000 0.68060  0.29600  0.27600  Biso   1.000  H
  H27      1.0000 0.31940  0.29600  0.22400  Biso   1.000  H
  H28      1.0000 0.18060  0.20400  0.72400  Biso   1.000  H
  H29      1.0000 0.81940  0.20400  0.77600  Biso   1.000  H
  H30      1.0000 0.31940  0.70400  0.72400  Biso   1.000  H
  H31      1.0000 0.68060  0.70400  0.77600  Biso   1.000  H
  H32      1.0000 0.81940  0.79600  0.27600  Biso   1.000  H
  O49      1.0000 0.37782  0.38550  0.69060  Biso   1.000  O
  O50      1.0000 0.87782  0.88550  0.80940  Biso   1.000  O
  O51      1.0000 0.12218  0.88550  0.69060  Biso   1.000  O
  O52      1.0000 0.37782  0.61450  0.19060  Biso   1.000  O
  O53      1.0000 0.62218  0.61450  0.30940  Biso   1.000  O
  O54      1.0000 0.12218  0.11450  0.19060  Biso   1.000  O
  O55      1.0000 0.87782  0.11450  0.30940  Biso   1.000  O
  O56      1.0000 0.62218  0.38550  0.80940  Biso   1.000  O
  O57      1.0000 0.28593  0.43620  0.68680  Biso   1.000  O
  O58      1.0000 0.78593  0.93620  0.81320  Biso   1.000  O
  O59      1.0000 0.21407  0.93620  0.68680  Biso   1.000  O
  O60      1.0000 0.28593  0.56380  0.18680  Biso   1.000  O
  O61      1.0000 0.71407  0.56380  0.31320  Biso   1.000  O
  O62      1.0000 0.21407  0.06380  0.18680  Biso   1.000  O
  O63      1.0000 0.78593  0.06380  0.31320  Biso   1.000  O
  O64      1.0000 0.71407  0.43620  0.81320  Biso   1.000  O
  H33      1.0000 0.28140  0.39800  0.69880  Biso   1.000  H
  H34      1.0000 0.78140  0.89800  0.80120  Biso   1.000  H
  H35      1.0000 0.21860  0.89800  0.69880  Biso   1.000  H
  H36      1.0000 0.28140  0.60200  0.19880  Biso   1.000  H
  H37      1.0000 0.71860  0.60200  0.30120  Biso   1.000  H
  H38      1.0000 0.21860  0.10200  0.19880  Biso   1.000  H
  H39      1.0000 0.78140  0.10200  0.30120  Biso   1.000  H
  H40      1.0000 0.71860  0.39800  0.80120  Biso   1.000  H
  O65      1.0000 0.40473  0.50570  0.59240  Biso   1.000  O
  O66      1.0000 0.90473  0.00570  0.90760  Biso   1.000  O
  O67      1.0000 0.09527  0.00570  0.59240  Biso   1.000  O
  O68      1.0000 0.40473  0.49430  0.09240  Biso   1.000  O
  O69      1.0000 0.59527  0.49430  0.40760  Biso   1.000  O
  O70      1.0000 0.09527  0.99430  0.09240  Biso   1.000  O
  O71      1.0000 0.90473  0.99430  0.40760  Biso   1.000  O
  O72      1.0000 0.59527  0.50570  0.90760  Biso   1.000  O
  H41      1.0000 0.42760  0.47780  0.58150  Biso   1.000  H
  H42      1.0000 0.92760  0.97780  0.91850  Biso   1.000  H
  H43      1.0000 0.07240  0.97780  0.58150  Biso   1.000  H
  H44      1.0000 0.42760  0.52220  0.08150  Biso   1.000  H
  H45      1.0000 0.57240  0.52220  0.41850  Biso   1.000  H
  H46      1.0000 0.07240  0.02220  0.08150  Biso   1.000  H
  H47      1.0000 0.92760  0.02220  0.41850  Biso   1.000  H
  H48      1.0000 0.57240  0.47780  0.91850  Biso   1.000  H
  O73      1.0000 0.35162  0.36690  0.58150  Biso   1.000  O
  O74      1.0000 0.85162  0.86690  0.91850  Biso   1.000  O
  O75      1.0000 0.14838  0.86690  0.58150  Biso   1.000  O
  O76      1.0000 0.35162  0.63310  0.08150  Biso   1.000  O
  O77      1.0000 0.64838  0.63310  0.41850  Biso   1.000  O
  O78      1.0000 0.14838  0.13310  0.08150  Biso   1.000  O
  O79      1.0000 0.85162  0.13310  0.41850  Biso   1.000  O
  O80      1.0000 0.64838  0.36690  0.91850  Biso   1.000  O
  O81      1.0000 0.45841  0.38570  0.57370  Biso   1.000  O
  O82      1.0000 0.95841  0.88570  0.92630  Biso   1.000  O
  O83      1.0000 0.04159  0.88570  0.57370  Biso   1.000  O
  O84      1.0000 0.45841  0.61430  0.07370  Biso   1.000  O
  O85      1.0000 0.54159  0.61430  0.42630  Biso   1.000  O
  O86      1.0000 0.04159  0.11430  0.07370  Biso   1.000  O
  O87      1.0000 0.95841  0.11430  0.42630  Biso   1.000  O
  O88      1.0000 0.54159  0.38570  0.92630  Biso   1.000  O
  H49      1.0000 0.44190  0.37320  0.59080  Biso   1.000  H
  H50      1.0000 0.94190  0.87320  0.90920  Biso   1.000  H
  H51      1.0000 0.05810  0.87320  0.59080  Biso   1.000  H
  H52      1.0000 0.44190  0.62680  0.09080  Biso   1.000  H
  H53      1.0000 0.55810  0.62680  0.40920  Biso   1.000  H
  H54      1.0000 0.05810  0.12680  0.09080  Biso   1.000  H
  H55      1.0000 0.94190  0.12680  0.40920  Biso   1.000  H
  H56      1.0000 0.55810  0.37320  0.90920  Biso   1.000  H
  O89      1.0000 0.35632  0.23670  0.64830  Biso   1.000  O
  O90      1.0000 0.85632  0.73670  0.85170  Biso   1.000  O
  O91      1.0000 0.14368  0.73670  0.64830  Biso   1.000  O
  O92      1.0000 0.35632  0.76330  0.14830  Biso   1.000  O
  O93      1.0000 0.64368  0.76330  0.35170  Biso   1.000  O
  O94      1.0000 0.14368  0.26330  0.14830  Biso   1.000  O
  O95      1.0000 0.85632  0.26330  0.35170  Biso   1.000  O
  O96      1.0000 0.64368  0.23670  0.85170  Biso   1.000  O
  H57      1.0000 0.33140  0.24790  0.65490  Biso   1.000  H
  H58      1.0000 0.83140  0.74790  0.84510  Biso   1.000  H
  H59      1.0000 0.16860  0.74790  0.65490  Biso   1.000  H
  H60      1.0000 0.33140  0.75210  0.15490  Biso   1.000  H
  H61      1.0000 0.66860  0.75210  0.34510  Biso   1.000  H
  H62      1.0000 0.16860  0.25210  0.15490  Biso   1.000  H
  H63      1.0000 0.83140  0.25210  0.34510  Biso   1.000  H
  H64      1.0000 0.66860  0.24790  0.84510  Biso   1.000  H
  O97      1.0000 0.46400  0.92820  0.86220  Biso   1.000  O
  O98      1.0000 0.96400  0.42820  0.63780  Biso   1.000  O
  O99      1.0000 0.03600  0.42820  0.86220  Biso   1.000  O
  O100     1.0000 0.46400  0.07180  0.36220  Biso   1.000  O
  O101     1.0000 0.53600  0.07180  0.13780  Biso   1.000  O
  O102     1.0000 0.03600  0.57180  0.36220  Biso   1.000  O
  O103     1.0000 0.96400  0.57180  0.13780  Biso   1.000  O
  O104     1.0000 0.53600  0.92820  0.63780  Biso   1.000  O
  H65      1.0000 0.47270  0.95560  0.88720  Biso   1.000  H
  H66      1.0000 0.97270  0.45560  0.61280  Biso   1.000  H
  H67      1.0000 0.02730  0.45560  0.88720  Biso   1.000  H
  H68      1.0000 0.47270  0.04440  0.38720  Biso   1.000  H
  H69      1.0000 0.52730  0.04440  0.11280  Biso   1.000  H
  H70      1.0000 0.02730  0.54440  0.38720  Biso   1.000  H
  H71      1.0000 0.97270  0.54440  0.11280  Biso   1.000  H
  H72      1.0000 0.52730  0.95560  0.61280  Biso   1.000  H
  O105     1.0000 0.45745  0.13290  0.97940  Biso   1.000  O
  O106     1.0000 0.95745  0.63290  0.52060  Biso   1.000  O
  O107     1.0000 0.04255  0.63290  0.97940  Biso   1.000  O
  O108     1.0000 0.45745  0.86710  0.47940  Biso   1.000  O
  O109     1.0000 0.54255  0.86710  0.02060  Biso   1.000  O
  O110     1.0000 0.04255  0.36710  0.47940  Biso   1.000  O
  O111     1.0000 0.95745  0.36710  0.02060  Biso   1.000  O
  O112     1.0000 0.54255  0.13290  0.52060  Biso   1.000  O
  H73      1.0000 0.46760  0.16090  0.95470  Biso   1.000  H
  H74      1.0000 0.96760  0.66090  0.54530  Biso   1.000  H
  H75      1.0000 0.03240  0.66090  0.95470  Biso   1.000  H
  H76      1.0000 0.46760  0.83910  0.45470  Biso   1.000  H
  H77      1.0000 0.53240  0.83910  0.04530  Biso   1.000  H
  H78      1.0000 0.03240  0.33910  0.45470  Biso   1.000  H
  H79      1.0000 0.96760  0.33910  0.04530  Biso   1.000  H
  H80      1.0000 0.53240  0.16090  0.54530  Biso   1.000  H
  O113     1.0000 0.46647  0.99430  0.03370  Biso   1.000  O
  O114     1.0000 0.96647  0.49430  0.46630  Biso   1.000  O
  O115     1.0000 0.03353  0.49430  0.03370  Biso   1.000  O
  O116     1.0000 0.46647  0.00570  0.53370  Biso   1.000  O
  O117     1.0000 0.53353  0.00570  0.96630  Biso   1.000  O
  O118     1.0000 0.03353  0.50570  0.53370  Biso   1.000  O
  O119     1.0000 0.96647  0.50570  0.96630  Biso   1.000  O
  O120     1.0000 0.53353  0.99430  0.46630  Biso   1.000  O
  N1       1.0000 0.25755  0.66150  0.34190  Biso   1.000  N
  N2       1.0000 0.75755  0.16150  0.15810  Biso   1.000  N
  N3       1.0000 0.24245  0.16150  0.34190  Biso   1.000  N
  N4       1.0000 0.25755  0.33850  0.84190  Biso   1.000  N
  N5       1.0000 0.74245  0.33850  0.65810  Biso   1.000  N
  N6       1.0000 0.24245  0.83850  0.84190  Biso   1.000  N
  N7       1.0000 0.75755  0.83850  0.65810  Biso   1.000  N
  N8       1.0000 0.74245  0.66150  0.15810  Biso   1.000  N
  N9       1.0000 0.25881  0.69180  0.58100  Biso   1.000  N
  N10      1.0000 0.75881  0.19180  0.91900  Biso   1.000  N
  N11      1.0000 0.24119  0.19180  0.58100  Biso   1.000  N
  N12      1.0000 0.25881  0.30820  0.08100  Biso   1.000  N
  N13      1.0000 0.74119  0.30820  0.41900  Biso   1.000  N
  N14      1.0000 0.24119  0.80820  0.08100  Biso   1.000  N
  N15      1.0000 0.75881  0.80820  0.41900  Biso   1.000  N
  N16      1.0000 0.74119  0.69180  0.91900  Biso   1.000  N
  N17      1.0000 0.31638  0.49380  0.57400  Biso   1.000  N
  N18      1.0000 0.81638  0.99380  0.92600  Biso   1.000  N
  N19      1.0000 0.18362  0.99380  0.57400  Biso   1.000  N
  N20      1.0000 0.31638  0.50620  0.07400  Biso   1.000  N
  N21      1.0000 0.68362  0.50620  0.42600  Biso   1.000  N
  N22      1.0000 0.18362  0.00620  0.07400  Biso   1.000  N
  N23      1.0000 0.81638  0.00620  0.42600  Biso   1.000  N
  N24      1.0000 0.68362  0.49380  0.92600  Biso   1.000  N
  N25      1.0000 0.20270  0.46480  0.40240  Biso   1.000  N
  N26      1.0000 0.70270  0.96480  0.09760  Biso   1.000  N
  N27      1.0000 0.29730  0.96480  0.40240  Biso   1.000  N
  N28      1.0000 0.20270  0.53520  0.90240  Biso   1.000  N
  N29      1.0000 0.79730  0.53520  0.59760  Biso   1.000  N
  N30      1.0000 0.29730  0.03520  0.90240  Biso   1.000  N
  N31      1.0000 0.70270  0.03520  0.59760  Biso   1.000  N
  N32      1.0000 0.79730  0.46480  0.09760  Biso   1.000  N
  N33      1.0000 0.32130  0.48490  0.38990  Biso   1.000  N
  N34      1.0000 0.82130  0.98490  0.11010  Biso   1.000  N
  N35      1.0000 0.17870  0.98490  0.38990  Biso   1.000  N
  N36      1.0000 0.32130  0.51510  0.88990  Biso   1.000  N
  N37      1.0000 0.67870  0.51510  0.61010  Biso   1.000  N
  N38      1.0000 0.17870  0.01510  0.88990  Biso   1.000  N
  N39      1.0000 0.82130  0.01510  0.61010  Biso   1.000  N
  N40      1.0000 0.67870  0.48490  0.11010  Biso   1.000  N
  N41      1.0000 0.34879  0.65100  0.47380  Biso   1.000  N
  N42      1.0000 0.84879  0.15100  0.02620  Biso   1.000  N
  N43      1.0000 0.15121  0.15100  0.47380  Biso   1.000  N
  N44      1.0000 0.34879  0.34900  0.97380  Biso   1.000  N
  N45      1.0000 0.65121  0.34900  0.52620  Biso   1.000  N
  N46      1.0000 0.15121  0.84900  0.97380  Biso   1.000  N
  N47      1.0000 0.84879  0.84900  0.52620  Biso   1.000  N
  N48      1.0000 0.65121  0.65100  0.02620  Biso   1.000  N
  N49      1.0000 0.16971  0.64540  0.44900  Biso   1.000  N
  N50      1.0000 0.66971  0.14540  0.05100  Biso   1.000  N
  N51      1.0000 0.33029  0.14540  0.44900  Biso   1.000  N
  N52      1.0000 0.16971  0.35460  0.94900  Biso   1.000  N
  N53      1.0000 0.83029  0.35460  0.55100  Biso   1.000  N
  N54      1.0000 0.33029  0.85460  0.94900  Biso   1.000  N
  N55      1.0000 0.66971  0.85460  0.55100  Biso   1.000  N
  N56      1.0000 0.83029  0.64540  0.05100  Biso   1.000  N
  N57      1.0000 0.19662  0.52430  0.58570  Biso   1.000  N
  N58      1.0000 0.69662  0.02430  0.91430  Biso   1.000  N
  N59      1.0000 0.30338  0.02430  0.58570  Biso   1.000  N
  N60      1.0000 0.19662  0.47570  0.08570  Biso   1.000  N
  N61      1.0000 0.80338  0.47570  0.41430  Biso   1.000  N
  N62      1.0000 0.30338  0.97570  0.08570  Biso   1.000  N
  N63      1.0000 0.69662  0.97570  0.41430  Biso   1.000  N
  N64      1.0000 0.80338  0.52430  0.91430  Biso   1.000  N
  N65      1.0000 0.43969  0.28430  0.68020  Biso   1.000  N
  N66      1.0000 0.93969  0.78430  0.81980  Biso   1.000  N
  N67      1.0000 0.06031  0.78430  0.68020  Biso   1.000  N
  N68      1.0000 0.43969  0.71570  0.18020  Biso   1.000  N
  N69      1.0000 0.56031  0.71570  0.31980  Biso   1.000  N
  N70      1.0000 0.06031  0.21570  0.18020  Biso   1.000  N
  N71      1.0000 0.93969  0.21570  0.31980  Biso   1.000  N
  N72      1.0000 0.56031  0.28430  0.81980  Biso   1.000  N
  N73      1.0000 0.49853  0.07620  0.86510  Biso   1.000  N
  N74      1.0000 0.99853  0.57620  0.63490  Biso   1.000  N
  N75      1.0000 0.00147  0.57620  0.86510  Biso   1.000  N
  N76      1.0000 0.49853  0.92380  0.36510  Biso   1.000  N
  N77      1.0000 0.50147  0.92380  0.13490  Biso   1.000  N
  N78      1.0000 0.00147  0.42380  0.36510  Biso   1.000  N
  N79      1.0000 0.99853  0.42380  0.13490  Biso   1.000  N
  N80      1.0000 0.50147  0.07620  0.63490  Biso   1.000  N
  N81      1.0000 0.45136  0.24180  0.87130  Biso   1.000  N
  N82      1.0000 0.95136  0.74180  0.62870  Biso   1.000  N
  N83      1.0000 0.04864  0.74180  0.87130  Biso   1.000  N
  N84      1.0000 0.45136  0.75820  0.37130  Biso   1.000  N
  N85      1.0000 0.54864  0.75820  0.12870  Biso   1.000  N
  N86      1.0000 0.04864  0.25820  0.37130  Biso   1.000  N
  N87      1.0000 0.95136  0.25820  0.12870  Biso   1.000  N
  N88      1.0000 0.54864  0.24180  0.62870  Biso   1.000  N
  N89      1.0000 0.40617  0.10860  0.74010  Biso   1.000  N
  N90      1.0000 0.90617  0.60860  0.75990  Biso   1.000  N
  N91      1.0000 0.09383  0.60860  0.74010  Biso   1.000  N
  N92      1.0000 0.40617  0.89140  0.24010  Biso   1.000  N
  N93      1.0000 0.59383  0.89140  0.25990  Biso   1.000  N
  N94      1.0000 0.09383  0.39140  0.24010  Biso   1.000  N
  N95      1.0000 0.90617  0.39140  0.25990  Biso   1.000  N
  N96      1.0000 0.59383  0.10860  0.75990  Biso   1.000  N
  N97      1.0000 0.29943  0.79010  0.32240  Biso   1.000  N
  N98      1.0000 0.79943  0.29010  0.17760  Biso   1.000  N
  N99      1.0000 0.20057  0.29010  0.32240  Biso   1.000  N
  N100     1.0000 0.29943  0.20990  0.82240  Biso   1.000  N
  N101     1.0000 0.70057  0.20990  0.67760  Biso   1.000  N
  N102     1.0000 0.20057  0.70990  0.82240  Biso   1.000  N
  N103     1.0000 0.79943  0.70990  0.67760  Biso   1.000  N
  N104     1.0000 0.70057  0.79010  0.17760  Biso   1.000  N
  N105     1.0000 0.19182  0.68710  0.10850  Biso   1.000  N
  N106     1.0000 0.69182  0.18710  0.39150  Biso   1.000  N
  N107     1.0000 0.30818  0.18710  0.10850  Biso   1.000  N
  N108     1.0000 0.19182  0.31290  0.60850  Biso   1.000  N
  N109     1.0000 0.80818  0.31290  0.89150  Biso   1.000  N
  N110     1.0000 0.30818  0.81290  0.60850  Biso   1.000  N
  N111     1.0000 0.69182  0.81290  0.89150  Biso   1.000  N
  N112     1.0000 0.80818  0.68710  0.39150  Biso   1.000  N
  N113     1.0000 0.35865  0.51130  0.70010  Biso   1.000  N
  N114     1.0000 0.85865  0.01130  0.79990  Biso   1.000  N
  N115     1.0000 0.14135  0.01130  0.70010  Biso   1.000  N
  N116     1.0000 0.35865  0.48870  0.20010  Biso   1.000  N
  N117     1.0000 0.64135  0.48870  0.29990  Biso   1.000  N
  N118     1.0000 0.14135  0.98870  0.20010  Biso   1.000  N
  N119     1.0000 0.85865  0.98870  0.29990  Biso   1.000  N
  N120     1.0000 0.64135  0.51130  0.79990  Biso   1.000  N
  N121     1.0000 0.40737  0.27370  0.54840  Biso   1.000  N
  N122     1.0000 0.90737  0.77370  0.95160  Biso   1.000  N
  N123     1.0000 0.09263  0.77370  0.54840  Biso   1.000  N
  N124     1.0000 0.40737  0.72630  0.04840  Biso   1.000  N
  N125     1.0000 0.59263  0.72630  0.45160  Biso   1.000  N
  N126     1.0000 0.09263  0.22630  0.04840  Biso   1.000  N
  N127     1.0000 0.90737  0.22630  0.45160  Biso   1.000  N
  N128     1.0000 0.59263  0.27370  0.95160  Biso   1.000  N
  N129     1.0000 0.41765  0.02940  0.93290  Biso   1.000  N
  N130     1.0000 0.91765  0.52940  0.56710  Biso   1.000  N
  N131     1.0000 0.08235  0.52940  0.93290  Biso   1.000  N
  N132     1.0000 0.41765  0.97060  0.43290  Biso   1.000  N
  N133     1.0000 0.58235  0.97060  0.06710  Biso   1.000  N
  N134     1.0000 0.08235  0.47060  0.43290  Biso   1.000  N
  N135     1.0000 0.91765  0.47060  0.06710  Biso   1.000  N
  N136     1.0000 0.58235  0.02940  0.56710  Biso   1.000  N
  C1       1.0000 0.25770  0.63150  0.38530  Biso   1.000  C
  C2       1.0000 0.75770  0.13150  0.11470  Biso   1.000  C
  C3       1.0000 0.24230  0.13150  0.38530  Biso   1.000  C
  C4       1.0000 0.25770  0.36850  0.88530  Biso   1.000  C
  C5       1.0000 0.74230  0.36850  0.61470  Biso   1.000  C
  C6       1.0000 0.24230  0.86850  0.88530  Biso   1.000  C
  C7       1.0000 0.75770  0.86850  0.61470  Biso   1.000  C
  C8       1.0000 0.74230  0.63150  0.11470  Biso   1.000  C
  C9       1.0000 0.25760  0.65080  0.54260  Biso   1.000  C
  C10      1.0000 0.75760  0.15080  0.95740  Biso   1.000  C
  C11      1.0000 0.24240  0.15080  0.54260  Biso   1.000  C
  C12      1.0000 0.25760  0.34920  0.04260  Biso   1.000  C
  C13      1.0000 0.74240  0.34920  0.45740  Biso   1.000  C
  C14      1.0000 0.24240  0.84920  0.04260  Biso   1.000  C
  C15      1.0000 0.75760  0.84920  0.45740  Biso   1.000  C
  C16      1.0000 0.74240  0.65080  0.95740  Biso   1.000  C
  C17      1.0000 0.29555  0.52220  0.54000  Biso   1.000  C
  C18      1.0000 0.79555  0.02220  0.96000  Biso   1.000  C
  C19      1.0000 0.20445  0.02220  0.54000  Biso   1.000  C
  C20      1.0000 0.29555  0.47780  0.04000  Biso   1.000  C
  C21      1.0000 0.70445  0.47780  0.46000  Biso   1.000  C
  C22      1.0000 0.20445  0.97780  0.04000  Biso   1.000  C
  C23      1.0000 0.79555  0.97780  0.46000  Biso   1.000  C
  C24      1.0000 0.70445  0.52220  0.96000  Biso   1.000  C
  C25      1.0000 0.22046  0.50540  0.42580  Biso   1.000  C
  C26      1.0000 0.72046  0.00540  0.07420  Biso   1.000  C
  C27      1.0000 0.27954  0.00540  0.42580  Biso   1.000  C
  C28      1.0000 0.22046  0.49460  0.92580  Biso   1.000  C
  C29      1.0000 0.77954  0.49460  0.57420  Biso   1.000  C
  C30      1.0000 0.27954  0.99460  0.92580  Biso   1.000  C
  C31      1.0000 0.72046  0.99460  0.57420  Biso   1.000  C
  C32      1.0000 0.77954  0.50540  0.07420  Biso   1.000  C
  C33      1.0000 0.29792  0.51970  0.41720  Biso   1.000  C
  C34      1.0000 0.79792  0.01970  0.08280  Biso   1.000  C
  C35      1.0000 0.20208  0.01970  0.41720  Biso   1.000  C
  C36      1.0000 0.29792  0.48030  0.91720  Biso   1.000  C
  C37      1.0000 0.70208  0.48030  0.58280  Biso   1.000  C
  C38      1.0000 0.20208  0.98030  0.91720  Biso   1.000  C
  C39      1.0000 0.79792  0.98030  0.58280  Biso   1.000  C
  C40      1.0000 0.70208  0.51970  0.08280  Biso   1.000  C
  C41      1.0000 0.31690  0.62490  0.47120  Biso   1.000  C
  C42      1.0000 0.81690  0.12490  0.02880  Biso   1.000  C
  C43      1.0000 0.18310  0.12490  0.47120  Biso   1.000  C
  C44      1.0000 0.31690  0.37510  0.97120  Biso   1.000  C
  C45      1.0000 0.68310  0.37510  0.52880  Biso   1.000  C
  C46      1.0000 0.18310  0.87510  0.97120  Biso   1.000  C
  C47      1.0000 0.81690  0.87510  0.52880  Biso   1.000  C
  C48      1.0000 0.68310  0.62490  0.02880  Biso   1.000  C
  C49      1.0000 0.20020  0.62050  0.45880  Biso   1.000  C
  C50      1.0000 0.70020  0.12050  0.04120  Biso   1.000  C
  C51      1.0000 0.29980  0.12050  0.45880  Biso   1.000  C
  C52      1.0000 0.20020  0.37950  0.95880  Biso   1.000  C
  C53      1.0000 0.79980  0.37950  0.54120  Biso   1.000  C
  C54      1.0000 0.29980  0.87950  0.95880  Biso   1.000  C
  C55      1.0000 0.70020  0.87950  0.54120  Biso   1.000  C
  C56      1.0000 0.79980  0.62050  0.04120  Biso   1.000  C
  C57      1.0000 0.21650  0.54260  0.54690  Biso   1.000  C
  C58      1.0000 0.71650  0.04260  0.95310  Biso   1.000  C
  C59      1.0000 0.28350  0.04260  0.54690  Biso   1.000  C
  C60      1.0000 0.21650  0.45740  0.04690  Biso   1.000  C
  C61      1.0000 0.78350  0.45740  0.45310  Biso   1.000  C
  C62      1.0000 0.28350  0.95740  0.04690  Biso   1.000  C
  C63      1.0000 0.71650  0.95740  0.45310  Biso   1.000  C
  C64      1.0000 0.78350  0.54260  0.95310  Biso   1.000  C
  C65      1.0000 0.46270  0.24540  0.70650  Biso   1.000  C
  C66      1.0000 0.96270  0.74540  0.79350  Biso   1.000  C
  C67      1.0000 0.03730  0.74540  0.70650  Biso   1.000  C
  C68      1.0000 0.46270  0.75460  0.20650  Biso   1.000  C
  C69      1.0000 0.53730  0.75460  0.29350  Biso   1.000  C
  C70      1.0000 0.03730  0.25460  0.20650  Biso   1.000  C
  C71      1.0000 0.96270  0.25460  0.29350  Biso   1.000  C
  C72      1.0000 0.53730  0.24540  0.79350  Biso   1.000  C
  C73      1.0000 0.50059  0.10840  0.81890  Biso   1.000  C
  C74      1.0000 0.00059  0.60840  0.68110  Biso   1.000  C
  C75      1.0000 0.99941  0.60840  0.81890  Biso   1.000  C
  C76      1.0000 0.50059  0.89160  0.31890  Biso   1.000  C
  C77      1.0000 0.49941  0.89160  0.18110  Biso   1.000  C
  C78      1.0000 0.99941  0.39160  0.31890  Biso   1.000  C
  C79      1.0000 0.00059  0.39160  0.18110  Biso   1.000  C
  C80      1.0000 0.49941  0.10840  0.68110  Biso   1.000  C
  C81      1.0000 0.46680  0.22010  0.82480  Biso   1.000  C
  C82      1.0000 0.96680  0.72010  0.67520  Biso   1.000  C
  C83      1.0000 0.03320  0.72010  0.82480  Biso   1.000  C
  C84      1.0000 0.46680  0.77990  0.32480  Biso   1.000  C
  C85      1.0000 0.53320  0.77990  0.17520  Biso   1.000  C
  C86      1.0000 0.03320  0.27990  0.32480  Biso   1.000  C
  C87      1.0000 0.96680  0.27990  0.17520  Biso   1.000  C
  C88      1.0000 0.53320  0.22010  0.67520  Biso   1.000  C
  C89      1.0000 0.43870  0.13470  0.74520  Biso   1.000  C
  C90      1.0000 0.93870  0.63470  0.75480  Biso   1.000  C
  C91      1.0000 0.06130  0.63470  0.74520  Biso   1.000  C
  C92      1.0000 0.43870  0.86530  0.24520  Biso   1.000  C
  C93      1.0000 0.56130  0.86530  0.25480  Biso   1.000  C
  C94      1.0000 0.06130  0.36530  0.24520  Biso   1.000  C
  C95      1.0000 0.93870  0.36530  0.25480  Biso   1.000  C
  C96      1.0000 0.56130  0.13470  0.75480  Biso   1.000  C
  C97      1.0000 0.26850  0.81260  0.37560  Biso   1.000  C
  C98      1.0000 0.76850  0.31260  0.12440  Biso   1.000  C
  C99      1.0000 0.23150  0.31260  0.37560  Biso   1.000  C
  C100     1.0000 0.26850  0.18740  0.87560  Biso   1.000  C
  C101     1.0000 0.73150  0.18740  0.62440  Biso   1.000  C
  C102     1.0000 0.23150  0.68740  0.87560  Biso   1.000  C
  C103     1.0000 0.76850  0.68740  0.62440  Biso   1.000  C
  C104     1.0000 0.73150  0.81260  0.12440  Biso   1.000  C
  H81      1.0000 0.28090  0.84790  0.39860  Biso   1.000  H
  H82      1.0000 0.78090  0.34790  0.10140  Biso   1.000  H
  H83      1.0000 0.21910  0.34790  0.39860  Biso   1.000  H
  H84      1.0000 0.28090  0.15210  0.89860  Biso   1.000  H
  H85      1.0000 0.71910  0.15210  0.60140  Biso   1.000  H
  H86      1.0000 0.21910  0.65210  0.89860  Biso   1.000  H
  H87      1.0000 0.78090  0.65210  0.60140  Biso   1.000  H
  H88      1.0000 0.71910  0.84790  0.10140  Biso   1.000  H
  H89      1.0000 0.26440  0.77770  0.40520  Biso   1.000  H
  H90      1.0000 0.76440  0.27770  0.09480  Biso   1.000  H
  H91      1.0000 0.23560  0.27770  0.40520  Biso   1.000  H
  H92      1.0000 0.26440  0.22230  0.90520  Biso   1.000  H
  H93      1.0000 0.73560  0.22230  0.59480  Biso   1.000  H
  H94      1.0000 0.23560  0.72230  0.90520  Biso   1.000  H
  H95      1.0000 0.76440  0.72230  0.59480  Biso   1.000  H
  H96      1.0000 0.73560  0.77770  0.09480  Biso   1.000  H
  C105     1.0000 0.22850  0.83270  0.35130  Biso   1.000  C
  C106     1.0000 0.72850  0.33270  0.14870  Biso   1.000  C
  C107     1.0000 0.27150  0.33270  0.35130  Biso   1.000  C
  C108     1.0000 0.22850  0.16730  0.85130  Biso   1.000  C
  C109     1.0000 0.77150  0.16730  0.64870  Biso   1.000  C
  C110     1.0000 0.27150  0.66730  0.85130  Biso   1.000  C
  C111     1.0000 0.72850  0.66730  0.64870  Biso   1.000  C
  C112     1.0000 0.77150  0.83270  0.14870  Biso   1.000  C
  H97      1.0000 0.20930  0.83780  0.38610  Biso   1.000  H
  H98      1.0000 0.70930  0.33780  0.11390  Biso   1.000  H
  H99      1.0000 0.29070  0.33780  0.38610  Biso   1.000  H
  H100     1.0000 0.20930  0.16220  0.88610  Biso   1.000  H
  H101     1.0000 0.79070  0.16220  0.61390  Biso   1.000  H
  H102     1.0000 0.29070  0.66220  0.88610  Biso   1.000  H
  H103     1.0000 0.70930  0.66220  0.61390  Biso   1.000  H
  H104     1.0000 0.79070  0.83780  0.11390  Biso   1.000  H
  H105     1.0000 0.23130  0.87370  0.33030  Biso   1.000  H
  H106     1.0000 0.73130  0.37370  0.16970  Biso   1.000  H
  H107     1.0000 0.26870  0.37370  0.33030  Biso   1.000  H
  H108     1.0000 0.23130  0.12630  0.83030  Biso   1.000  H
  H109     1.0000 0.76870  0.12630  0.66970  Biso   1.000  H
  H110     1.0000 0.26870  0.62630  0.83030  Biso   1.000  H
  H111     1.0000 0.73130  0.62630  0.66970  Biso   1.000  H
  H112     1.0000 0.76870  0.87370  0.16970  Biso   1.000  H
  C113     1.0000 0.33490  0.76400  0.34980  Biso   1.000  C
  C114     1.0000 0.83490  0.26400  0.15020  Biso   1.000  C
  C115     1.0000 0.16510  0.26400  0.34980  Biso   1.000  C
  C116     1.0000 0.33490  0.23600  0.84980  Biso   1.000  C
  C117     1.0000 0.66510  0.23600  0.65020  Biso   1.000  C
  C118     1.0000 0.16510  0.73600  0.84980  Biso   1.000  C
  C119     1.0000 0.83490  0.73600  0.65020  Biso   1.000  C
  C120     1.0000 0.66510  0.76400  0.15020  Biso   1.000  C
  H113     1.0000 0.35190  0.79840  0.36640  Biso   1.000  H
  H114     1.0000 0.85190  0.29840  0.13360  Biso   1.000  H
  H115     1.0000 0.14810  0.29840  0.36640  Biso   1.000  H
  H116     1.0000 0.35190  0.20160  0.86640  Biso   1.000  H
  H117     1.0000 0.64810  0.20160  0.63360  Biso   1.000  H
  H118     1.0000 0.14810  0.70160  0.86640  Biso   1.000  H
  H119     1.0000 0.85190  0.70160  0.63360  Biso   1.000  H
  H120     1.0000 0.64810  0.79840  0.13360  Biso   1.000  H
  H121     1.0000 0.32690  0.73690  0.38490  Biso   1.000  H
  H122     1.0000 0.82690  0.23690  0.11510  Biso   1.000  H
  H123     1.0000 0.17310  0.23690  0.38490  Biso   1.000  H
  H124     1.0000 0.32690  0.26310  0.88490  Biso   1.000  H
  H125     1.0000 0.67310  0.26310  0.61510  Biso   1.000  H
  H126     1.0000 0.17310  0.76310  0.88490  Biso   1.000  H
  H127     1.0000 0.82690  0.76310  0.61510  Biso   1.000  H
  H128     1.0000 0.67310  0.73690  0.11510  Biso   1.000  H
  C121     1.0000 0.35910  0.72670  0.30550  Biso   1.000  C
  C122     1.0000 0.85910  0.22670  0.19450  Biso   1.000  C
  C123     1.0000 0.14090  0.22670  0.30550  Biso   1.000  C
  C124     1.0000 0.35910  0.27330  0.80550  Biso   1.000  C
  C125     1.0000 0.64090  0.27330  0.69450  Biso   1.000  C
  C126     1.0000 0.14090  0.77330  0.80550  Biso   1.000  C
  C127     1.0000 0.85910  0.77330  0.69450  Biso   1.000  C
  C128     1.0000 0.64090  0.72670  0.19450  Biso   1.000  C
  H129     1.0000 0.38210  0.70700  0.32750  Biso   1.000  H
  H130     1.0000 0.88210  0.20700  0.17250  Biso   1.000  H
  H131     1.0000 0.11790  0.20700  0.32750  Biso   1.000  H
  H132     1.0000 0.38210  0.29300  0.82750  Biso   1.000  H
  H133     1.0000 0.61790  0.29300  0.67250  Biso   1.000  H
  H134     1.0000 0.11790  0.79300  0.82750  Biso   1.000  H
  H135     1.0000 0.88210  0.79300  0.67250  Biso   1.000  H
  H136     1.0000 0.61790  0.70700  0.17250  Biso   1.000  H
  H137     1.0000 0.37030  0.75470  0.27320  Biso   1.000  H
  H138     1.0000 0.87030  0.25470  0.22680  Biso   1.000  H
  H139     1.0000 0.12970  0.25470  0.27320  Biso   1.000  H
  H140     1.0000 0.37030  0.24530  0.77320  Biso   1.000  H
  H141     1.0000 0.62970  0.24530  0.72680  Biso   1.000  H
  H142     1.0000 0.12970  0.74530  0.77320  Biso   1.000  H
  H143     1.0000 0.87030  0.74530  0.72680  Biso   1.000  H
  H144     1.0000 0.62970  0.75470  0.22680  Biso   1.000  H
  C129     1.0000 0.30810  0.84460  0.27980  Biso   1.000  C
  C130     1.0000 0.80810  0.34460  0.22020  Biso   1.000  C
  C131     1.0000 0.19190  0.34460  0.27980  Biso   1.000  C
  C132     1.0000 0.30810  0.15540  0.77980  Biso   1.000  C
  C133     1.0000 0.69190  0.15540  0.72020  Biso   1.000  C
  C134     1.0000 0.19190  0.65540  0.77980  Biso   1.000  C
  C135     1.0000 0.80810  0.65540  0.72020  Biso   1.000  C
  C136     1.0000 0.69190  0.84460  0.22020  Biso   1.000  C
  H145     1.0000 0.30240  0.88470  0.30120  Biso   1.000  H
  H146     1.0000 0.80240  0.38470  0.19880  Biso   1.000  H
  H147     1.0000 0.19760  0.38470  0.30120  Biso   1.000  H
  H148     1.0000 0.30240  0.11530  0.80120  Biso   1.000  H
  H149     1.0000 0.69760  0.11530  0.69880  Biso   1.000  H
  H150     1.0000 0.19760  0.61530  0.80120  Biso   1.000  H
  H151     1.0000 0.80240  0.61530  0.69880  Biso   1.000  H
  H152     1.0000 0.69760  0.88470  0.19880  Biso   1.000  H
  H153     1.0000 0.33700  0.84440  0.26750  Biso   1.000  H
  H154     1.0000 0.83700  0.34440  0.23250  Biso   1.000  H
  H155     1.0000 0.16300  0.34440  0.26750  Biso   1.000  H
  H156     1.0000 0.33700  0.15560  0.76750  Biso   1.000  H
  H157     1.0000 0.66300  0.15560  0.73250  Biso   1.000  H
  H158     1.0000 0.16300  0.65560  0.76750  Biso   1.000  H
  H159     1.0000 0.83700  0.65560  0.73250  Biso   1.000  H
  H160     1.0000 0.66300  0.84440  0.23250  Biso   1.000  H
  C137     1.0000 0.28030  0.83800  0.22060  Biso   1.000  C
  C138     1.0000 0.78030  0.33800  0.27940  Biso   1.000  C
  C139     1.0000 0.21970  0.33800  0.22060  Biso   1.000  C
  C140     1.0000 0.28030  0.16200  0.72060  Biso   1.000  C
  C141     1.0000 0.71970  0.16200  0.77940  Biso   1.000  C
  C142     1.0000 0.21970  0.66200  0.72060  Biso   1.000  C
  C143     1.0000 0.78030  0.66200  0.77940  Biso   1.000  C
  C144     1.0000 0.71970  0.83800  0.27940  Biso   1.000  C
  H161     1.0000 0.29030  0.86600  0.18740  Biso   1.000  H
  H162     1.0000 0.79030  0.36600  0.31260  Biso   1.000  H
  H163     1.0000 0.20970  0.36600  0.18740  Biso   1.000  H
  H164     1.0000 0.29030  0.13400  0.68740  Biso   1.000  H
  H165     1.0000 0.70970  0.13400  0.81260  Biso   1.000  H
  H166     1.0000 0.20970  0.63400  0.68740  Biso   1.000  H
  H167     1.0000 0.79030  0.63400  0.81260  Biso   1.000  H
  H168     1.0000 0.70970  0.86600  0.31260  Biso   1.000  H
  H169     1.0000 0.25230  0.85050  0.23090  Biso   1.000  H
  H170     1.0000 0.75230  0.35050  0.26910  Biso   1.000  H
  H171     1.0000 0.24770  0.35050  0.23090  Biso   1.000  H
  H172     1.0000 0.25230  0.14950  0.73090  Biso   1.000  H
  H173     1.0000 0.74770  0.14950  0.76910  Biso   1.000  H
  H174     1.0000 0.24770  0.64950  0.73090  Biso   1.000  H
  H175     1.0000 0.75230  0.64950  0.76910  Biso   1.000  H
  H176     1.0000 0.74770  0.85050  0.26910  Biso   1.000  H
  C145     1.0000 0.18250  0.63320  0.15100  Biso   1.000  C
  C146     1.0000 0.68250  0.13320  0.34900  Biso   1.000  C
  C147     1.0000 0.31750  0.13320  0.15100  Biso   1.000  C
  C148     1.0000 0.18250  0.36680  0.65100  Biso   1.000  C
  C149     1.0000 0.81750  0.36680  0.84900  Biso   1.000  C
  C150     1.0000 0.31750  0.86680  0.65100  Biso   1.000  C
  C151     1.0000 0.68250  0.86680  0.84900  Biso   1.000  C
  C152     1.0000 0.81750  0.63320  0.34900  Biso   1.000  C
  H177     1.0000 0.15280  0.62790  0.15490  Biso   1.000  H
  H178     1.0000 0.65280  0.12790  0.34510  Biso   1.000  H
  H179     1.0000 0.34720  0.12790  0.15490  Biso   1.000  H
  H180     1.0000 0.15280  0.37210  0.65490  Biso   1.000  H
  H181     1.0000 0.84720  0.37210  0.84510  Biso   1.000  H
  H182     1.0000 0.34720  0.87210  0.65490  Biso   1.000  H
  H183     1.0000 0.65280  0.87210  0.84510  Biso   1.000  H
  H184     1.0000 0.84720  0.62790  0.34510  Biso   1.000  H
  H185     1.0000 0.19400  0.59390  0.13390  Biso   1.000  H
  H186     1.0000 0.69400  0.09390  0.36610  Biso   1.000  H
  H187     1.0000 0.30600  0.09390  0.13390  Biso   1.000  H
  H188     1.0000 0.19400  0.40610  0.63390  Biso   1.000  H
  H189     1.0000 0.80600  0.40610  0.86610  Biso   1.000  H
  H190     1.0000 0.30600  0.90610  0.63390  Biso   1.000  H
  H191     1.0000 0.69400  0.90610  0.86610  Biso   1.000  H
  H192     1.0000 0.80600  0.59390  0.36610  Biso   1.000  H
  C153     1.0000 0.20180  0.64720  0.21700  Biso   1.000  C
  C154     1.0000 0.70180  0.14720  0.28300  Biso   1.000  C
  C155     1.0000 0.29820  0.14720  0.21700  Biso   1.000  C
  C156     1.0000 0.20180  0.35280  0.71700  Biso   1.000  C
  C157     1.0000 0.79820  0.35280  0.78300  Biso   1.000  C
  C158     1.0000 0.29820  0.85280  0.71700  Biso   1.000  C
  C159     1.0000 0.70180  0.85280  0.78300  Biso   1.000  C
  C160     1.0000 0.79820  0.64720  0.28300  Biso   1.000  C
  H193     1.0000 0.20290  0.60820  0.24190  Biso   1.000  H
  H194     1.0000 0.70290  0.10820  0.25810  Biso   1.000  H
  H195     1.0000 0.29710  0.10820  0.24190  Biso   1.000  H
  H196     1.0000 0.20290  0.39180  0.74190  Biso   1.000  H
  H197     1.0000 0.79710  0.39180  0.75810  Biso   1.000  H
  H198     1.0000 0.29710  0.89180  0.74190  Biso   1.000  H
  H199     1.0000 0.70290  0.89180  0.75810  Biso   1.000  H
  H200     1.0000 0.79710  0.60820  0.25810  Biso   1.000  H
  H201     1.0000 0.18510  0.67830  0.23960  Biso   1.000  H
  H202     1.0000 0.68510  0.17830  0.26040  Biso   1.000  H
  H203     1.0000 0.31490  0.17830  0.23960  Biso   1.000  H
  H204     1.0000 0.18510  0.32170  0.73960  Biso   1.000  H
  H205     1.0000 0.81490  0.32170  0.76040  Biso   1.000  H
  H206     1.0000 0.31490  0.82170  0.73960  Biso   1.000  H
  H207     1.0000 0.68510  0.82170  0.76040  Biso   1.000  H
  H208     1.0000 0.81490  0.67830  0.26040  Biso   1.000  H
  C161     1.0000 0.20430  0.66130  0.04540  Biso   1.000  C
  C162     1.0000 0.70430  0.16130  0.45460  Biso   1.000  C
  C163     1.0000 0.29570  0.16130  0.04540  Biso   1.000  C
  C164     1.0000 0.20430  0.33870  0.54540  Biso   1.000  C
  C165     1.0000 0.79570  0.33870  0.95460  Biso   1.000  C
  C166     1.0000 0.29570  0.83870  0.54540  Biso   1.000  C
  C167     1.0000 0.70430  0.83870  0.95460  Biso   1.000  C
  C168     1.0000 0.79570  0.66130  0.45460  Biso   1.000  C
  H209     1.0000 0.20290  0.69530  0.01420  Biso   1.000  H
  H210     1.0000 0.70290  0.19530  0.48580  Biso   1.000  H
  H211     1.0000 0.29710  0.19530  0.01420  Biso   1.000  H
  H212     1.0000 0.20290  0.30470  0.51420  Biso   1.000  H
  H213     1.0000 0.79710  0.30470  0.98580  Biso   1.000  H
  H214     1.0000 0.29710  0.80470  0.51420  Biso   1.000  H
  H215     1.0000 0.70290  0.80470  0.98580  Biso   1.000  H
  H216     1.0000 0.79710  0.69530  0.48580  Biso   1.000  H
  H217     1.0000 0.18500  0.62800  0.03280  Biso   1.000  H
  H218     1.0000 0.68500  0.12800  0.46720  Biso   1.000  H
  H219     1.0000 0.31500  0.12800  0.03280  Biso   1.000  H
  H220     1.0000 0.18500  0.37200  0.53280  Biso   1.000  H
  H221     1.0000 0.81500  0.37200  0.96720  Biso   1.000  H
  H222     1.0000 0.31500  0.87200  0.53280  Biso   1.000  H
  H223     1.0000 0.68500  0.87200  0.96720  Biso   1.000  H
  H224     1.0000 0.81500  0.62800  0.46720  Biso   1.000  H
  C169     1.0000 0.24650  0.63480  0.04680  Biso   1.000  C
  C170     1.0000 0.74650  0.13480  0.45320  Biso   1.000  C
  C171     1.0000 0.25350  0.13480  0.04680  Biso   1.000  C
  C172     1.0000 0.24650  0.36520  0.54680  Biso   1.000  C
  C173     1.0000 0.75350  0.36520  0.95320  Biso   1.000  C
  C174     1.0000 0.25350  0.86520  0.54680  Biso   1.000  C
  C175     1.0000 0.74650  0.86520  0.95320  Biso   1.000  C
  C176     1.0000 0.75350  0.63480  0.45320  Biso   1.000  C
  H225     1.0000 0.25420  0.62080  0.00470  Biso   1.000  H
  H226     1.0000 0.75420  0.12080  0.49530  Biso   1.000  H
  H227     1.0000 0.24580  0.12080  0.00470  Biso   1.000  H
  H228     1.0000 0.25420  0.37920  0.50470  Biso   1.000  H
  H229     1.0000 0.74580  0.37920  0.99530  Biso   1.000  H
  H230     1.0000 0.24580  0.87920  0.50470  Biso   1.000  H
  H231     1.0000 0.75420  0.87920  0.99530  Biso   1.000  H
  H232     1.0000 0.74580  0.62080  0.49530  Biso   1.000  H
  H233     1.0000 0.24720  0.59790  0.07450  Biso   1.000  H
  H234     1.0000 0.74720  0.09790  0.42550  Biso   1.000  H
  H235     1.0000 0.25280  0.09790  0.07450  Biso   1.000  H
  H236     1.0000 0.24720  0.40210  0.57450  Biso   1.000  H
  H237     1.0000 0.75280  0.40210  0.92550  Biso   1.000  H
  H238     1.0000 0.25280  0.90210  0.57450  Biso   1.000  H
  H239     1.0000 0.74720  0.90210  0.92550  Biso   1.000  H
  H240     1.0000 0.75280  0.59790  0.42550  Biso   1.000  H
  C177     1.0000 0.15380  0.72860  0.10290  Biso   1.000  C
  C178     1.0000 0.65380  0.22860  0.39710  Biso   1.000  C
  C179     1.0000 0.34620  0.22860  0.10290  Biso   1.000  C
  C180     1.0000 0.15380  0.27140  0.60290  Biso   1.000  C
  C181     1.0000 0.84620  0.27140  0.89710  Biso   1.000  C
  C182     1.0000 0.34620  0.77140  0.60290  Biso   1.000  C
  C183     1.0000 0.65380  0.77140  0.89710  Biso   1.000  C
  C184     1.0000 0.84620  0.72860  0.39710  Biso   1.000  C
  H241     1.0000 0.15790  0.75980  0.06950  Biso   1.000  H
  H242     1.0000 0.65790  0.25980  0.43050  Biso   1.000  H
  H243     1.0000 0.34210  0.25980  0.06950  Biso   1.000  H
  H244     1.0000 0.15790  0.24020  0.56950  Biso   1.000  H
  H245     1.0000 0.84210  0.24020  0.93050  Biso   1.000  H
  H246     1.0000 0.34210  0.74020  0.56950  Biso   1.000  H
  H247     1.0000 0.65790  0.74020  0.93050  Biso   1.000  H
  H248     1.0000 0.84210  0.75980  0.43050  Biso   1.000  H
  H249     1.0000 0.13030  0.70220  0.09150  Biso   1.000  H
  H250     1.0000 0.63030  0.20220  0.40850  Biso   1.000  H
  H251     1.0000 0.36970  0.20220  0.09150  Biso   1.000  H
  H252     1.0000 0.13030  0.29780  0.59150  Biso   1.000  H
  H253     1.0000 0.86970  0.29780  0.90850  Biso   1.000  H
  H254     1.0000 0.36970  0.79780  0.59150  Biso   1.000  H
  H255     1.0000 0.63030  0.79780  0.90850  Biso   1.000  H
  H256     1.0000 0.86970  0.70220  0.40850  Biso   1.000  H
  C185     1.0000 0.14450  0.76340  0.16440  Biso   1.000  C
  C186     1.0000 0.64450  0.26340  0.33560  Biso   1.000  C
  C187     1.0000 0.35550  0.26340  0.16440  Biso   1.000  C
  C188     1.0000 0.14450  0.23660  0.66440  Biso   1.000  C
  C189     1.0000 0.85550  0.23660  0.83560  Biso   1.000  C
  C190     1.0000 0.35550  0.73660  0.66440  Biso   1.000  C
  C191     1.0000 0.64450  0.73660  0.83560  Biso   1.000  C
  C192     1.0000 0.85550  0.76340  0.33560  Biso   1.000  C
  H257     1.0000 0.13590  0.73290  0.19640  Biso   1.000  H
  H258     1.0000 0.63590  0.23290  0.30360  Biso   1.000  H
  H259     1.0000 0.36410  0.23290  0.19640  Biso   1.000  H
  H260     1.0000 0.13590  0.26710  0.69640  Biso   1.000  H
  H261     1.0000 0.86410  0.26710  0.80360  Biso   1.000  H
  H262     1.0000 0.36410  0.76710  0.69640  Biso   1.000  H
  H263     1.0000 0.63590  0.76710  0.80360  Biso   1.000  H
  H264     1.0000 0.86410  0.73290  0.30360  Biso   1.000  H
  H265     1.0000 0.12230  0.79390  0.15810  Biso   1.000  H
  H266     1.0000 0.62230  0.29390  0.34190  Biso   1.000  H
  H267     1.0000 0.37770  0.29390  0.15810  Biso   1.000  H
  H268     1.0000 0.12230  0.20610  0.65810  Biso   1.000  H
  H269     1.0000 0.87770  0.20610  0.84190  Biso   1.000  H
  H270     1.0000 0.37770  0.70610  0.65810  Biso   1.000  H
  H271     1.0000 0.62230  0.70610  0.84190  Biso   1.000  H
  H272     1.0000 0.87770  0.79390  0.34190  Biso   1.000  H
  C193     1.0000 0.38340  0.48230  0.75120  Biso   1.000  C
  C194     1.0000 0.88340  0.98230  0.74880  Biso   1.000  C
  C195     1.0000 0.11660  0.98230  0.75120  Biso   1.000  C
  C196     1.0000 0.38340  0.51770  0.25120  Biso   1.000  C
  C197     1.0000 0.61660  0.51770  0.24880  Biso   1.000  C
  C198     1.0000 0.11660  0.01770  0.25120  Biso   1.000  C
  C199     1.0000 0.88340  0.01770  0.24880  Biso   1.000  C
  C200     1.0000 0.61660  0.48230  0.74880  Biso   1.000  C
  H273     1.0000 0.40400  0.51270  0.76580  Biso   1.000  H
  H274     1.0000 0.90400  0.01270  0.73420  Biso   1.000  H
  H275     1.0000 0.09600  0.01270  0.76580  Biso   1.000  H
  H276     1.0000 0.40400  0.48730  0.26580  Biso   1.000  H
  H277     1.0000 0.59600  0.48730  0.23420  Biso   1.000  H
  H278     1.0000 0.09600  0.98730  0.26580  Biso   1.000  H
  H279     1.0000 0.90400  0.98730  0.23420  Biso   1.000  H
  H280     1.0000 0.59600  0.51270  0.73420  Biso   1.000  H
  H281     1.0000 0.36560  0.47170  0.78660  Biso   1.000  H
  H282     1.0000 0.86560  0.97170  0.71340  Biso   1.000  H
  H283     1.0000 0.13440  0.97170  0.78660  Biso   1.000  H
  H284     1.0000 0.36560  0.52830  0.28660  Biso   1.000  H
  H285     1.0000 0.63440  0.52830  0.21340  Biso   1.000  H
  H286     1.0000 0.13440  0.02830  0.28660  Biso   1.000  H
  H287     1.0000 0.86560  0.02830  0.21340  Biso   1.000  H
  H288     1.0000 0.63440  0.47170  0.71340  Biso   1.000  H
  C201     1.0000 0.40400  0.42390  0.72780  Biso   1.000  C
  C202     1.0000 0.90400  0.92390  0.77220  Biso   1.000  C
  C203     1.0000 0.09600  0.92390  0.72780  Biso   1.000  C
  C204     1.0000 0.40400  0.57610  0.22780  Biso   1.000  C
  C205     1.0000 0.59600  0.57610  0.27220  Biso   1.000  C
  C206     1.0000 0.09600  0.07610  0.22780  Biso   1.000  C
  C207     1.0000 0.90400  0.07610  0.27220  Biso   1.000  C
  C208     1.0000 0.59600  0.42390  0.77220  Biso   1.000  C
  H289     1.0000 0.41370  0.39900  0.76360  Biso   1.000  H
  H290     1.0000 0.91370  0.89900  0.73640  Biso   1.000  H
  H291     1.0000 0.08630  0.89900  0.76360  Biso   1.000  H
  H292     1.0000 0.41370  0.60100  0.26360  Biso   1.000  H
  H293     1.0000 0.58630  0.60100  0.23640  Biso   1.000  H
  H294     1.0000 0.08630  0.10100  0.26360  Biso   1.000  H
  H295     1.0000 0.91370  0.10100  0.23640  Biso   1.000  H
  H296     1.0000 0.58630  0.39900  0.73640  Biso   1.000  H
  H297     1.0000 0.42800  0.43600  0.70300  Biso   1.000  H
  H298     1.0000 0.92800  0.93600  0.79700  Biso   1.000  H
  H299     1.0000 0.07200  0.93600  0.70300  Biso   1.000  H
  H300     1.0000 0.42800  0.56400  0.20300  Biso   1.000  H
  H301     1.0000 0.57200  0.56400  0.29700  Biso   1.000  H
  H302     1.0000 0.07200  0.06400  0.20300  Biso   1.000  H
  H303     1.0000 0.92800  0.06400  0.29700  Biso   1.000  H
  H304     1.0000 0.57200  0.43600  0.79700  Biso   1.000  H
  C209     1.0000 0.37710  0.56580  0.66600  Biso   1.000  C
  C210     1.0000 0.87710  0.06580  0.83400  Biso   1.000  C
  C211     1.0000 0.12290  0.06580  0.66600  Biso   1.000  C
  C212     1.0000 0.37710  0.43420  0.16600  Biso   1.000  C
  C213     1.0000 0.62290  0.43420  0.33400  Biso   1.000  C
  C214     1.0000 0.12290  0.93420  0.16600  Biso   1.000  C
  C215     1.0000 0.87710  0.93420  0.33400  Biso   1.000  C
  C216     1.0000 0.62290  0.56580  0.83400  Biso   1.000  C
  H305     1.0000 0.35820  0.57930  0.63300  Biso   1.000  H
  H306     1.0000 0.85820  0.07930  0.86700  Biso   1.000  H
  H307     1.0000 0.14180  0.07930  0.63300  Biso   1.000  H
  H308     1.0000 0.35820  0.42070  0.13300  Biso   1.000  H
  H309     1.0000 0.64180  0.42070  0.36700  Biso   1.000  H
  H310     1.0000 0.14180  0.92070  0.13300  Biso   1.000  H
  H311     1.0000 0.85820  0.92070  0.36700  Biso   1.000  H
  H312     1.0000 0.64180  0.57930  0.86700  Biso   1.000  H
  H313     1.0000 0.38020  0.60130  0.69520  Biso   1.000  H
  H314     1.0000 0.88020  0.10130  0.80480  Biso   1.000  H
  H315     1.0000 0.11980  0.10130  0.69520  Biso   1.000  H
  H316     1.0000 0.38020  0.39870  0.19520  Biso   1.000  H
  H317     1.0000 0.61980  0.39870  0.30480  Biso   1.000  H
  H318     1.0000 0.11980  0.89870  0.19520  Biso   1.000  H
  H319     1.0000 0.88020  0.89870  0.30480  Biso   1.000  H
  H320     1.0000 0.61980  0.60130  0.80480  Biso   1.000  H
  C217     1.0000 0.41820  0.55150  0.63710  Biso   1.000  C
  C218     1.0000 0.91820  0.05150  0.86290  Biso   1.000  C
  C219     1.0000 0.08180  0.05150  0.63710  Biso   1.000  C
  C220     1.0000 0.41820  0.44850  0.13710  Biso   1.000  C
  C221     1.0000 0.58180  0.44850  0.36290  Biso   1.000  C
  C222     1.0000 0.08180  0.94850  0.13710  Biso   1.000  C
  C223     1.0000 0.91820  0.94850  0.36290  Biso   1.000  C
  C224     1.0000 0.58180  0.55150  0.86290  Biso   1.000  C
  H321     1.0000 0.43750  0.53350  0.66740  Biso   1.000  H
  H322     1.0000 0.93750  0.03350  0.83260  Biso   1.000  H
  H323     1.0000 0.06250  0.03350  0.66740  Biso   1.000  H
  H324     1.0000 0.43750  0.46650  0.16740  Biso   1.000  H
  H325     1.0000 0.56250  0.46650  0.33260  Biso   1.000  H
  H326     1.0000 0.06250  0.96650  0.16740  Biso   1.000  H
  H327     1.0000 0.93750  0.96650  0.33260  Biso   1.000  H
  H328     1.0000 0.56250  0.53350  0.83260  Biso   1.000  H
  H329     1.0000 0.43040  0.58880  0.61710  Biso   1.000  H
  H330     1.0000 0.93040  0.08880  0.88290  Biso   1.000  H
  H331     1.0000 0.06960  0.08880  0.61710  Biso   1.000  H
  H332     1.0000 0.43040  0.41120  0.11710  Biso   1.000  H
  H333     1.0000 0.56960  0.41120  0.38290  Biso   1.000  H
  H334     1.0000 0.06960  0.91120  0.11710  Biso   1.000  H
  H335     1.0000 0.93040  0.91120  0.38290  Biso   1.000  H
  H336     1.0000 0.56960  0.58880  0.88290  Biso   1.000  H
  C225     1.0000 0.31570  0.52990  0.72150  Biso   1.000  C
  C226     1.0000 0.81570  0.02990  0.77850  Biso   1.000  C
  C227     1.0000 0.18430  0.02990  0.72150  Biso   1.000  C
  C228     1.0000 0.31570  0.47010  0.22150  Biso   1.000  C
  C229     1.0000 0.68430  0.47010  0.27850  Biso   1.000  C
  C230     1.0000 0.18430  0.97010  0.22150  Biso   1.000  C
  C231     1.0000 0.81570  0.97010  0.27850  Biso   1.000  C
  C232     1.0000 0.68430  0.52990  0.77850  Biso   1.000  C
  H337     1.0000 0.30290  0.55540  0.68860  Biso   1.000  H
  H338     1.0000 0.80290  0.05540  0.81140  Biso   1.000  H
  H339     1.0000 0.19710  0.05540  0.68860  Biso   1.000  H
  H340     1.0000 0.30290  0.44460  0.18860  Biso   1.000  H
  H341     1.0000 0.69710  0.44460  0.31140  Biso   1.000  H
  H342     1.0000 0.19710  0.94460  0.18860  Biso   1.000  H
  H343     1.0000 0.80290  0.94460  0.31140  Biso   1.000  H
  H344     1.0000 0.69710  0.55540  0.81140  Biso   1.000  H
  H345     1.0000 0.31810  0.55670  0.75880  Biso   1.000  H
  H346     1.0000 0.81810  0.05670  0.74120  Biso   1.000  H
  H347     1.0000 0.18190  0.05670  0.75880  Biso   1.000  H
  H348     1.0000 0.31810  0.44330  0.25880  Biso   1.000  H
  H349     1.0000 0.68190  0.44330  0.24120  Biso   1.000  H
  H350     1.0000 0.18190  0.94330  0.25880  Biso   1.000  H
  H351     1.0000 0.81810  0.94330  0.24120  Biso   1.000  H
  H352     1.0000 0.68190  0.55670  0.74120  Biso   1.000  H
  C233     1.0000 0.28900  0.47630  0.73600  Biso   1.000  C
  C234     1.0000 0.78900  0.97630  0.76400  Biso   1.000  C
  C235     1.0000 0.21100  0.97630  0.73600  Biso   1.000  C
  C236     1.0000 0.28900  0.52370  0.23600  Biso   1.000  C
  C237     1.0000 0.71100  0.52370  0.26400  Biso   1.000  C
  C238     1.0000 0.21100  0.02370  0.23600  Biso   1.000  C
  C239     1.0000 0.78900  0.02370  0.26400  Biso   1.000  C
  C240     1.0000 0.71100  0.47630  0.76400  Biso   1.000  C
  H353     1.0000 0.26170  0.49200  0.74710  Biso   1.000  H
  H354     1.0000 0.76170  0.99200  0.75290  Biso   1.000  H
  H355     1.0000 0.23830  0.99200  0.74710  Biso   1.000  H
  H356     1.0000 0.26170  0.50800  0.24710  Biso   1.000  H
  H357     1.0000 0.73830  0.50800  0.25290  Biso   1.000  H
  H358     1.0000 0.23830  0.00800  0.24710  Biso   1.000  H
  H359     1.0000 0.76170  0.00800  0.25290  Biso   1.000  H
  H360     1.0000 0.73830  0.49200  0.75290  Biso   1.000  H
  H361     1.0000 0.29990  0.45340  0.77220  Biso   1.000  H
  H362     1.0000 0.79990  0.95340  0.72780  Biso   1.000  H
  H363     1.0000 0.20010  0.95340  0.77220  Biso   1.000  H
  H364     1.0000 0.29990  0.54660  0.27220  Biso   1.000  H
  H365     1.0000 0.70010  0.54660  0.22780  Biso   1.000  H
  H366     1.0000 0.20010  0.04660  0.27220  Biso   1.000  H
  H367     1.0000 0.79990  0.04660  0.22780  Biso   1.000  H
  H368     1.0000 0.70010  0.45340  0.72780  Biso   1.000  H
  C241     1.0000 0.37770  0.30150  0.49970  Biso   1.000  C
  C242     1.0000 0.87770  0.80150  0.00030  Biso   1.000  C
  C243     1.0000 0.12230  0.80150  0.49970  Biso   1.000  C
  C244     1.0000 0.37770  0.69850  0.99970  Biso   1.000  C
  C245     1.0000 0.62230  0.69850  0.50030  Biso   1.000  C
  C246     1.0000 0.12230  0.19850  0.99970  Biso   1.000  C
  C247     1.0000 0.87770  0.19850  0.50030  Biso   1.000  C
  C248     1.0000 0.62230  0.30150  0.00030  Biso   1.000  C
  H369     1.0000 0.35390  0.27360  0.49610  Biso   1.000  H
  H370     1.0000 0.85390  0.77360  0.00390  Biso   1.000  H
  H371     1.0000 0.14610  0.77360  0.49610  Biso   1.000  H
  H372     1.0000 0.35390  0.72640  0.99610  Biso   1.000  H
  H373     1.0000 0.64610  0.72640  0.50390  Biso   1.000  H
  H374     1.0000 0.14610  0.22640  0.99610  Biso   1.000  H
  H375     1.0000 0.85390  0.22640  0.50390  Biso   1.000  H
  H376     1.0000 0.64610  0.27360  0.00390  Biso   1.000  H
  H377     1.0000 0.39140  0.30250  0.45890  Biso   1.000  H
  H378     1.0000 0.89140  0.80250  0.04110  Biso   1.000  H
  H379     1.0000 0.10860  0.80250  0.45890  Biso   1.000  H
  H380     1.0000 0.39140  0.69750  0.95890  Biso   1.000  H
  H381     1.0000 0.60860  0.69750  0.54110  Biso   1.000  H
  H382     1.0000 0.10860  0.19750  0.95890  Biso   1.000  H
  H383     1.0000 0.89140  0.19750  0.54110  Biso   1.000  H
  H384     1.0000 0.60860  0.30250  0.04110  Biso   1.000  H
  C249     1.0000 0.36400  0.36530  0.51550  Biso   1.000  C
  C250     1.0000 0.86400  0.86530  0.98450  Biso   1.000  C
  C251     1.0000 0.13600  0.86530  0.51550  Biso   1.000  C
  C252     1.0000 0.36400  0.63470  0.01550  Biso   1.000  C
  C253     1.0000 0.63600  0.63470  0.48450  Biso   1.000  C
  C254     1.0000 0.13600  0.13470  0.01550  Biso   1.000  C
  C255     1.0000 0.86400  0.13470  0.48450  Biso   1.000  C
  C256     1.0000 0.63600  0.36530  0.98450  Biso   1.000  C
  H385     1.0000 0.38610  0.39570  0.50830  Biso   1.000  H
  H386     1.0000 0.88610  0.89570  0.99170  Biso   1.000  H
  H387     1.0000 0.11390  0.89570  0.50830  Biso   1.000  H
  H388     1.0000 0.38610  0.60430  0.00830  Biso   1.000  H
  H389     1.0000 0.61390  0.60430  0.49170  Biso   1.000  H
  H390     1.0000 0.11390  0.10430  0.00830  Biso   1.000  H
  H391     1.0000 0.88610  0.10430  0.49170  Biso   1.000  H
  H392     1.0000 0.61390  0.39570  0.99170  Biso   1.000  H
  H393     1.0000 0.34080  0.37710  0.48890  Biso   1.000  H
  H394     1.0000 0.84080  0.87710  0.01110  Biso   1.000  H
  H395     1.0000 0.15920  0.87710  0.48890  Biso   1.000  H
  H396     1.0000 0.34080  0.62290  0.98890  Biso   1.000  H
  H397     1.0000 0.65920  0.62290  0.51110  Biso   1.000  H
  H398     1.0000 0.15920  0.12290  0.98890  Biso   1.000  H
  H399     1.0000 0.84080  0.12290  0.51110  Biso   1.000  H
  H400     1.0000 0.65920  0.37710  0.01110  Biso   1.000  H
  C257     1.0000 0.45000  0.28240  0.53150  Biso   1.000  C
  C258     1.0000 0.95000  0.78240  0.96850  Biso   1.000  C
  C259     1.0000 0.05000  0.78240  0.53150  Biso   1.000  C
  C260     1.0000 0.45000  0.71760  0.03150  Biso   1.000  C
  C261     1.0000 0.55000  0.71760  0.46850  Biso   1.000  C
  C262     1.0000 0.05000  0.21760  0.03150  Biso   1.000  C
  C263     1.0000 0.95000  0.21760  0.46850  Biso   1.000  C
  C264     1.0000 0.55000  0.28240  0.96850  Biso   1.000  C
  H401     1.0000 0.46690  0.26760  0.56650  Biso   1.000  H
  H402     1.0000 0.96690  0.76760  0.93350  Biso   1.000  H
  H403     1.0000 0.03310  0.76760  0.56650  Biso   1.000  H
  H404     1.0000 0.46690  0.73240  0.06650  Biso   1.000  H
  H405     1.0000 0.53310  0.73240  0.43350  Biso   1.000  H
  H406     1.0000 0.03310  0.23240  0.06650  Biso   1.000  H
  H407     1.0000 0.96690  0.23240  0.43350  Biso   1.000  H
  H408     1.0000 0.53310  0.26760  0.93350  Biso   1.000  H
  H409     1.0000 0.45590  0.25490  0.49570  Biso   1.000  H
  H410     1.0000 0.95590  0.75490  0.00430  Biso   1.000  H
  H411     1.0000 0.04410  0.75490  0.49570  Biso   1.000  H
  H412     1.0000 0.45590  0.74510  0.99570  Biso   1.000  H
  H413     1.0000 0.54410  0.74510  0.50430  Biso   1.000  H
  H414     1.0000 0.04410  0.24510  0.99570  Biso   1.000  H
  H415     1.0000 0.95590  0.24510  0.50430  Biso   1.000  H
  H416     1.0000 0.54410  0.25490  0.00430  Biso   1.000  H
  C265     1.0000 0.46410  0.35170  0.51430  Biso   1.000  C
  C266     1.0000 0.96410  0.85170  0.98570  Biso   1.000  C
  C267     1.0000 0.03590  0.85170  0.51430  Biso   1.000  C
  C268     1.0000 0.46410  0.64830  0.01430  Biso   1.000  C
  C269     1.0000 0.53590  0.64830  0.48570  Biso   1.000  C
  C270     1.0000 0.03590  0.14830  0.01430  Biso   1.000  C
  C271     1.0000 0.96410  0.14830  0.48570  Biso   1.000  C
  C272     1.0000 0.53590  0.35170  0.98570  Biso   1.000  C
  H417     1.0000 0.44700  0.36980  0.48110  Biso   1.000  H
  H418     1.0000 0.94700  0.86980  0.01890  Biso   1.000  H
  H419     1.0000 0.05300  0.86980  0.48110  Biso   1.000  H
  H420     1.0000 0.44700  0.63020  0.98110  Biso   1.000  H
  H421     1.0000 0.55300  0.63020  0.51890  Biso   1.000  H
  H422     1.0000 0.05300  0.13020  0.98110  Biso   1.000  H
  H423     1.0000 0.94700  0.13020  0.51890  Biso   1.000  H
  H424     1.0000 0.55300  0.36980  0.01890  Biso   1.000  H
  H425     1.0000 0.49280  0.35250  0.50100  Biso   1.000  H
  H426     1.0000 0.99280  0.85250  0.99900  Biso   1.000  H
  H427     1.0000 0.00720  0.85250  0.50100  Biso   1.000  H
  H428     1.0000 0.49280  0.64750  0.00100  Biso   1.000  H
  H429     1.0000 0.50720  0.64750  0.49900  Biso   1.000  H
  H430     1.0000 0.00720  0.14750  0.00100  Biso   1.000  H
  H431     1.0000 0.99280  0.14750  0.49900  Biso   1.000  H
  H432     1.0000 0.50720  0.35250  0.99900  Biso   1.000  H
  C273     1.0000 0.39930  0.20580  0.56310  Biso   1.000  C
  C274     1.0000 0.89930  0.70580  0.93690  Biso   1.000  C
  C275     1.0000 0.10070  0.70580  0.56310  Biso   1.000  C
  C276     1.0000 0.39930  0.79420  0.06310  Biso   1.000  C
  C277     1.0000 0.60070  0.79420  0.43690  Biso   1.000  C
  C278     1.0000 0.10070  0.29420  0.06310  Biso   1.000  C
  C279     1.0000 0.89930  0.29420  0.43690  Biso   1.000  C
  C280     1.0000 0.60070  0.20580  0.93690  Biso   1.000  C
  H433     1.0000 0.39890  0.18120  0.52430  Biso   1.000  H
  H434     1.0000 0.89890  0.68120  0.97570  Biso   1.000  H
  H435     1.0000 0.10110  0.68120  0.52430  Biso   1.000  H
  H436     1.0000 0.39890  0.81880  0.02430  Biso   1.000  H
  H437     1.0000 0.60110  0.81880  0.47570  Biso   1.000  H
  H438     1.0000 0.10110  0.31880  0.02430  Biso   1.000  H
  H439     1.0000 0.89890  0.31880  0.47570  Biso   1.000  H
  H440     1.0000 0.60110  0.18120  0.97570  Biso   1.000  H
  H441     1.0000 0.42130  0.18930  0.58960  Biso   1.000  H
  H442     1.0000 0.92130  0.68930  0.91040  Biso   1.000  H
  H443     1.0000 0.07870  0.68930  0.58960  Biso   1.000  H
  H444     1.0000 0.42130  0.81070  0.08960  Biso   1.000  H
  H445     1.0000 0.57870  0.81070  0.41040  Biso   1.000  H
  H446     1.0000 0.07870  0.31070  0.08960  Biso   1.000  H
  H447     1.0000 0.92130  0.31070  0.41040  Biso   1.000  H
  H448     1.0000 0.57870  0.18930  0.91040  Biso   1.000  H
  C281     1.0000 0.35920  0.19870  0.59620  Biso   1.000  C
  C282     1.0000 0.85920  0.69870  0.90380  Biso   1.000  C
  C283     1.0000 0.14080  0.69870  0.59620  Biso   1.000  C
  C284     1.0000 0.35920  0.80130  0.09620  Biso   1.000  C
  C285     1.0000 0.64080  0.80130  0.40380  Biso   1.000  C
  C286     1.0000 0.14080  0.30130  0.09620  Biso   1.000  C
  C287     1.0000 0.85920  0.30130  0.40380  Biso   1.000  C
  C288     1.0000 0.64080  0.19870  0.90380  Biso   1.000  C
  H449     1.0000 0.35570  0.15440  0.60880  Biso   1.000  H
  H450     1.0000 0.85570  0.65440  0.89120  Biso   1.000  H
  H451     1.0000 0.14430  0.65440  0.60880  Biso   1.000  H
  H452     1.0000 0.35570  0.84560  0.10880  Biso   1.000  H
  H453     1.0000 0.64430  0.84560  0.39120  Biso   1.000  H
  H454     1.0000 0.14430  0.34560  0.10880  Biso   1.000  H
  H455     1.0000 0.85570  0.34560  0.39120  Biso   1.000  H
  H456     1.0000 0.64430  0.15440  0.89120  Biso   1.000  H
  H457     1.0000 0.33700  0.20930  0.56730  Biso   1.000  H
  H458     1.0000 0.83700  0.70930  0.93270  Biso   1.000  H
  H459     1.0000 0.16300  0.70930  0.56730  Biso   1.000  H
  H460     1.0000 0.33700  0.79070  0.06730  Biso   1.000  H
  H461     1.0000 0.66300  0.79070  0.43270  Biso   1.000  H
  H462     1.0000 0.16300  0.29070  0.06730  Biso   1.000  H
  H463     1.0000 0.83700  0.29070  0.43270  Biso   1.000  H
  H464     1.0000 0.66300  0.20930  0.93270  Biso   1.000  H
  C289     1.0000 0.42043  0.93520  0.85770  Biso   1.000  C
  C290     1.0000 0.92043  0.43520  0.64230  Biso   1.000  C
  C291     1.0000 0.07957  0.43520  0.85770  Biso   1.000  C
  C292     1.0000 0.42043  0.06480  0.35770  Biso   1.000  C
  C293     1.0000 0.57957  0.06480  0.14230  Biso   1.000  C
  C294     1.0000 0.07957  0.56480  0.35770  Biso   1.000  C
  C295     1.0000 0.92043  0.56480  0.14230  Biso   1.000  C
  C296     1.0000 0.57957  0.93520  0.64230  Biso   1.000  C
  H465     1.0000 0.41220  0.92200  0.81570  Biso   1.000  H
  H466     1.0000 0.91220  0.42200  0.68430  Biso   1.000  H
  H467     1.0000 0.08780  0.42200  0.81570  Biso   1.000  H
  H468     1.0000 0.41220  0.07800  0.31570  Biso   1.000  H
  H469     1.0000 0.58780  0.07800  0.18430  Biso   1.000  H
  H470     1.0000 0.08780  0.57800  0.31570  Biso   1.000  H
  H471     1.0000 0.91220  0.57800  0.18430  Biso   1.000  H
  H472     1.0000 0.58780  0.92200  0.68430  Biso   1.000  H
  H473     1.0000 0.40790  0.90560  0.88730  Biso   1.000  H
  H474     1.0000 0.90790  0.40560  0.61270  Biso   1.000  H
  H475     1.0000 0.09210  0.40560  0.88730  Biso   1.000  H
  H476     1.0000 0.40790  0.09440  0.38730  Biso   1.000  H
  H477     1.0000 0.59210  0.09440  0.11270  Biso   1.000  H
  H478     1.0000 0.09210  0.59440  0.38730  Biso   1.000  H
  H479     1.0000 0.90790  0.59440  0.11270  Biso   1.000  H
  H480     1.0000 0.59210  0.90560  0.61270  Biso   1.000  H
  C297     1.0000 0.40290  0.99770  0.86920  Biso   1.000  C
  C298     1.0000 0.90290  0.49770  0.63080  Biso   1.000  C
  C299     1.0000 0.09710  0.49770  0.86920  Biso   1.000  C
  C300     1.0000 0.40290  0.00230  0.36920  Biso   1.000  C
  C301     1.0000 0.59710  0.00230  0.13080  Biso   1.000  C
  C302     1.0000 0.09710  0.50230  0.36920  Biso   1.000  C
  C303     1.0000 0.90290  0.50230  0.13080  Biso   1.000  C
  C304     1.0000 0.59710  0.99770  0.63080  Biso   1.000  C
  H481     1.0000 0.41030  0.02580  0.83440  Biso   1.000  H
  H482     1.0000 0.91030  0.52580  0.66560  Biso   1.000  H
  H483     1.0000 0.08970  0.52580  0.83440  Biso   1.000  H
  H484     1.0000 0.41030  0.97420  0.33440  Biso   1.000  H
  H485     1.0000 0.58970  0.97420  0.16560  Biso   1.000  H
  H486     1.0000 0.08970  0.47420  0.33440  Biso   1.000  H
  H487     1.0000 0.91030  0.47420  0.16560  Biso   1.000  H
  H488     1.0000 0.58970  0.02580  0.66560  Biso   1.000  H
  H489     1.0000 0.37300  0.99410  0.86990  Biso   1.000  H
  H490     1.0000 0.87300  0.49410  0.63010  Biso   1.000  H
  H491     1.0000 0.12700  0.49410  0.86990  Biso   1.000  H
  H492     1.0000 0.37300  0.00590  0.36990  Biso   1.000  H
  H493     1.0000 0.62700  0.00590  0.13010  Biso   1.000  H
  H494     1.0000 0.12700  0.50590  0.36990  Biso   1.000  H
  H495     1.0000 0.87300  0.50590  0.13010  Biso   1.000  H
  H496     1.0000 0.62700  0.99410  0.63010  Biso   1.000  H
  C305     1.0000 0.41293  0.13370  0.97190  Biso   1.000  C
  C306     1.0000 0.91293  0.63370  0.52810  Biso   1.000  C
  C307     1.0000 0.08707  0.63370  0.97190  Biso   1.000  C
  C308     1.0000 0.41293  0.86630  0.47190  Biso   1.000  C
  C309     1.0000 0.58707  0.86630  0.02810  Biso   1.000  C
  C310     1.0000 0.08707  0.36630  0.47190  Biso   1.000  C
  C311     1.0000 0.91293  0.36630  0.02810  Biso   1.000  C
  C312     1.0000 0.58707  0.13370  0.52810  Biso   1.000  C
  H497     1.0000 0.40430  0.17690  0.96170  Biso   1.000  H
  H498     1.0000 0.90430  0.67690  0.53830  Biso   1.000  H
  H499     1.0000 0.09570  0.67690  0.96170  Biso   1.000  H
  H500     1.0000 0.40430  0.82310  0.46170  Biso   1.000  H
  H501     1.0000 0.59570  0.82310  0.03830  Biso   1.000  H
  H502     1.0000 0.09570  0.32310  0.46170  Biso   1.000  H
  H503     1.0000 0.90430  0.32310  0.03830  Biso   1.000  H
  H504     1.0000 0.59570  0.17690  0.53830  Biso   1.000  H
  H505     1.0000 0.40030  0.12220  0.01190  Biso   1.000  H
  H506     1.0000 0.90030  0.62220  0.48810  Biso   1.000  H
  H507     1.0000 0.09970  0.62220  0.01190  Biso   1.000  H
  H508     1.0000 0.40030  0.87780  0.51190  Biso   1.000  H
  H509     1.0000 0.59970  0.87780  0.98810  Biso   1.000  H
  H510     1.0000 0.09970  0.37780  0.51190  Biso   1.000  H
  H511     1.0000 0.90030  0.37780  0.98810  Biso   1.000  H
  H512     1.0000 0.59970  0.12220  0.48810  Biso   1.000  H
  C313     1.0000 0.39790  0.09110  0.92370  Biso   1.000  C
  C314     1.0000 0.89790  0.59110  0.57630  Biso   1.000  C
  C315     1.0000 0.10210  0.59110  0.92370  Biso   1.000  C
  C316     1.0000 0.39790  0.90890  0.42370  Biso   1.000  C
  C317     1.0000 0.60210  0.90890  0.07630  Biso   1.000  C
  C318     1.0000 0.10210  0.40890  0.42370  Biso   1.000  C
  C319     1.0000 0.89790  0.40890  0.07630  Biso   1.000  C
  C320     1.0000 0.60210  0.09110  0.57630  Biso   1.000  C
  H513     1.0000 0.36810  0.08670  0.92700  Biso   1.000  H
  H514     1.0000 0.86810  0.58670  0.57300  Biso   1.000  H
  H515     1.0000 0.13190  0.58670  0.92700  Biso   1.000  H
  H516     1.0000 0.36810  0.91330  0.42700  Biso   1.000  H
  H517     1.0000 0.63190  0.91330  0.07300  Biso   1.000  H
  H518     1.0000 0.13190  0.41330  0.42700  Biso   1.000  H
  H519     1.0000 0.86810  0.41330  0.07300  Biso   1.000  H
  H520     1.0000 0.63190  0.08670  0.57300  Biso   1.000  H
  H521     1.0000 0.40450  0.10780  0.88220  Biso   1.000  H
  H522     1.0000 0.90450  0.60780  0.61780  Biso   1.000  H
  H523     1.0000 0.09550  0.60780  0.88220  Biso   1.000  H
  H524     1.0000 0.40450  0.89220  0.38220  Biso   1.000  H
  H525     1.0000 0.59550  0.89220  0.11780  Biso   1.000  H
  H526     1.0000 0.09550  0.39220  0.38220  Biso   1.000  H
  H527     1.0000 0.90450  0.39220  0.11780  Biso   1.000  H
  H528     1.0000 0.59550  0.10780  0.61780  Biso   1.000  H
  C321     1.0000 0.39840  0.99110  0.98610  Biso   1.000  C
  C322     1.0000 0.89840  0.49110  0.51390  Biso   1.000  C
  C323     1.0000 0.10160  0.49110  0.98610  Biso   1.000  C
  C324     1.0000 0.39840  0.00890  0.48610  Biso   1.000  C
  C325     1.0000 0.60160  0.00890  0.01390  Biso   1.000  C
  C326     1.0000 0.10160  0.50890  0.48610  Biso   1.000  C
  C327     1.0000 0.89840  0.50890  0.01390  Biso   1.000  C
  C328     1.0000 0.60160  0.99110  0.51390  Biso   1.000  C
  H529     1.0000 0.38130  0.95740  0.96870  Biso   1.000  H
  H530     1.0000 0.88130  0.45740  0.53130  Biso   1.000  H
  H531     1.0000 0.11870  0.45740  0.96870  Biso   1.000  H
  H532     1.0000 0.38130  0.04260  0.46870  Biso   1.000  H
  H533     1.0000 0.61870  0.04260  0.03130  Biso   1.000  H
  H534     1.0000 0.11870  0.54260  0.46870  Biso   1.000  H
  H535     1.0000 0.88130  0.54260  0.03130  Biso   1.000  H
  H536     1.0000 0.61870  0.95740  0.53130  Biso   1.000  H
  H537     1.0000 0.38090  0.01880  0.01150  Biso   1.000  H
  H538     1.0000 0.88090  0.51880  0.48850  Biso   1.000  H
  H539     1.0000 0.11910  0.51880  0.01150  Biso   1.000  H
  H540     1.0000 0.38090  0.98120  0.51150  Biso   1.000  H
  H541     1.0000 0.61910  0.98120  0.98850  Biso   1.000  H
  H542     1.0000 0.11910  0.48120  0.51150  Biso   1.000  H
  H543     1.0000 0.88090  0.48120  0.98850  Biso   1.000  H
  H544     1.0000 0.61910  0.01880  0.48850  Biso   1.000  H
  C329     1.0000 0.43142  0.96260  0.02650  Biso   1.000  C
  C330     1.0000 0.93142  0.46260  0.47350  Biso   1.000  C
  C331     1.0000 0.06858  0.46260  0.02650  Biso   1.000  C
  C332     1.0000 0.43142  0.03740  0.52650  Biso   1.000  C
  C333     1.0000 0.56858  0.03740  0.97350  Biso   1.000  C
  C334     1.0000 0.06858  0.53740  0.52650  Biso   1.000  C
  C335     1.0000 0.93142  0.53740  0.97350  Biso   1.000  C
  C336     1.0000 0.56858  0.96260  0.47350  Biso   1.000  C
  H545     1.0000 0.43810  0.92080  0.00930  Biso   1.000  H
  H546     1.0000 0.93810  0.42080  0.49070  Biso   1.000  H
  H547     1.0000 0.06190  0.42080  0.00930  Biso   1.000  H
  H548     1.0000 0.43810  0.07920  0.50930  Biso   1.000  H
  H549     1.0000 0.56190  0.07920  0.99070  Biso   1.000  H
  H550     1.0000 0.06190  0.57920  0.50930  Biso   1.000  H
  H551     1.0000 0.93810  0.57920  0.99070  Biso   1.000  H
  H552     1.0000 0.56190  0.92080  0.49070  Biso   1.000  H
  H553     1.0000 0.41980  0.95570  0.06820  Biso   1.000  H
  H554     1.0000 0.91980  0.45570  0.43180  Biso   1.000  H
  H555     1.0000 0.08020  0.45570  0.06820  Biso   1.000  H
  H556     1.0000 0.41980  0.04430  0.56820  Biso   1.000  H
  H557     1.0000 0.58020  0.04430  0.93180  Biso   1.000  H
  H558     1.0000 0.08020  0.54430  0.56820  Biso   1.000  H
  H559     1.0000 0.91980  0.54430  0.93180  Biso   1.000  H
  H560     1.0000 0.58020  0.95570  0.43180  Biso   1.000  H
  O121     1.0000 0.35940  0.77400  0.85140  Biso   1.000  O
  O122     1.0000 0.85940  0.27400  0.64860  Biso   1.000  O
  O123     1.0000 0.14060  0.27400  0.85140  Biso   1.000  O
  O124     1.0000 0.35940  0.22600  0.35140  Biso   1.000  O
  O125     1.0000 0.64060  0.22600  0.14860  Biso   1.000  O
  O126     1.0000 0.14060  0.72600  0.35140  Biso   1.000  O
  O127     1.0000 0.85940  0.72600  0.14860  Biso   1.000  O
  O128     1.0000 0.64060  0.77400  0.64860  Biso   1.000  O
  H561     1.0000 0.34860  0.79240  0.88320  Biso   1.000  H
  H562     1.0000 0.84860  0.29240  0.61680  Biso   1.000  H
  H563     1.0000 0.15140  0.29240  0.88320  Biso   1.000  H
  H564     1.0000 0.34860  0.20760  0.38320  Biso   1.000  H
  H565     1.0000 0.65140  0.20760  0.11680  Biso   1.000  H
  H566     1.0000 0.15140  0.70760  0.38320  Biso   1.000  H
  H567     1.0000 0.84860  0.70760  0.11680  Biso   1.000  H
  H568     1.0000 0.65140  0.79240  0.61680  Biso   1.000  H
  H569     1.0000 0.38170  0.79320  0.84140  Biso   1.000  H
  H570     1.0000 0.88170  0.29320  0.65860  Biso   1.000  H
  H571     1.0000 0.11830  0.29320  0.84140  Biso   1.000  H
  H572     1.0000 0.38170  0.20680  0.34140  Biso   1.000  H
  H573     1.0000 0.61830  0.20680  0.15860  Biso   1.000  H
  H574     1.0000 0.11830  0.70680  0.34140  Biso   1.000  H
  H575     1.0000 0.88170  0.70680  0.15860  Biso   1.000  H
  H576     1.0000 0.61830  0.79320  0.65860  Biso   1.000  H
  O129     1.0000 0.42852  0.69814  0.49640  Biso   1.000  O
  O130     1.0000 0.92852  0.19814  0.00360  Biso   1.000  O
  O131     1.0000 0.07148  0.19814  0.49640  Biso   1.000  O
  O132     1.0000 0.42852  0.30186  0.99640  Biso   1.000  O
  O133     1.0000 0.57148  0.30186  0.50360  Biso   1.000  O
  O134     1.0000 0.07148  0.80186  0.99640  Biso   1.000  O
  O135     1.0000 0.92852  0.80186  0.50360  Biso   1.000  O
  O136     1.0000 0.57148  0.69814  0.00360  Biso   1.000  O
  H577     1.0000 0.40250  0.70380  0.49420  Biso   1.000  H
  H578     1.0000 0.90250  0.20380  0.00580  Biso   1.000  H
  H579     1.0000 0.09750  0.20380  0.49420  Biso   1.000  H
  H580     1.0000 0.40250  0.29620  0.99420  Biso   1.000  H
  H581     1.0000 0.59750  0.29620  0.50580  Biso   1.000  H
  H582     1.0000 0.09750  0.79620  0.99420  Biso   1.000  H
  H583     1.0000 0.90250  0.79620  0.50580  Biso   1.000  H
  H584     1.0000 0.59750  0.70380  0.00580  Biso   1.000  H
  H585     1.0000 0.43870  0.69840  0.45940  Biso   1.000  H
  H586     1.0000 0.93870  0.19840  0.04060  Biso   1.000  H
  H587     1.0000 0.06130  0.19840  0.45940  Biso   1.000  H
  H588     1.0000 0.43870  0.30160  0.95940  Biso   1.000  H
  H589     1.0000 0.56130  0.30160  0.54060  Biso   1.000  H
  H590     1.0000 0.06130  0.80160  0.95940  Biso   1.000  H
  H591     1.0000 0.93870  0.80160  0.54060  Biso   1.000  H
  H592     1.0000 0.56130  0.69840  0.04060  Biso   1.000  H
  O137     1.0000 0.36631  0.00360  0.68890  Biso   1.000  O
  O138     1.0000 0.86631  0.50360  0.81110  Biso   1.000  O
  O139     1.0000 0.13369  0.50360  0.68890  Biso   1.000  O
  O140     1.0000 0.36631  0.99640  0.18890  Biso   1.000  O
  O141     1.0000 0.63369  0.99640  0.31110  Biso   1.000  O
  O142     1.0000 0.13369  0.49640  0.18890  Biso   1.000  O
  O143     1.0000 0.86631  0.49640  0.31110  Biso   1.000  O
  O144     1.0000 0.63369  0.00360  0.81110  Biso   1.000  O
  H593     1.0000 0.36820  0.00560  0.64880  Biso   1.000  H
  H594     1.0000 0.86820  0.50560  0.85120  Biso   1.000  H
  H595     1.0000 0.13180  0.50560  0.64880  Biso   1.000  H
  H596     1.0000 0.36820  0.99440  0.14880  Biso   1.000  H
  H597     1.0000 0.63180  0.99440  0.35120  Biso   1.000  H
  H598     1.0000 0.13180  0.49440  0.14880  Biso   1.000  H
  H599     1.0000 0.86820  0.49440  0.35120  Biso   1.000  H
  H600     1.0000 0.63180  0.00560  0.85120  Biso   1.000  H
  H601     1.0000 0.37850  0.03570  0.70520  Biso   1.000  H
  H602     1.0000 0.87850  0.53570  0.79480  Biso   1.000  H
  H603     1.0000 0.12150  0.53570  0.70520  Biso   1.000  H
  H604     1.0000 0.37850  0.96430  0.20520  Biso   1.000  H
  H605     1.0000 0.62150  0.96430  0.29480  Biso   1.000  H
  H606     1.0000 0.12150  0.46430  0.20520  Biso   1.000  H
  H607     1.0000 0.87850  0.46430  0.29480  Biso   1.000  H
  H608     1.0000 0.62150  0.03570  0.79480  Biso   1.000  H
