data_image0
_cell_length_a       25.64
_cell_length_b       25.64
_cell_length_c       13.326
_cell_angle_alpha    90
_cell_angle_beta     90
_cell_angle_gamma    120

_symmetry_space_group_name_H-M    "P 1"
_symmetry_int_tables_number       1

loop_
  _symmetry_equiv_pos_as_xyz
  'x, y, z'

loop_
  _atom_site_label
  _atom_site_occupancy
  _atom_site_fract_x
  _atom_site_fract_y
  _atom_site_fract_z
  _atom_site_thermal_displace_type
  _atom_site_B_iso_or_equiv
  _atom_site_type_symbol
  Cu1      1.0000 0.56770  0.03860  0.26860  Biso   1.000  Cu
  Cu2      1.0000 0.90103  0.70527  0.93527  Biso   1.000  Cu
  Cu3      1.0000 0.23437  0.37193  0.60193  Biso   1.000  Cu
  Cu4      1.0000 0.96140  0.52910  0.26860  Biso   1.000  Cu
  Cu5      1.0000 0.47090  0.43230  0.26860  Biso   1.000  Cu
  Cu6      1.0000 0.29473  0.19577  0.93527  Biso   1.000  Cu
  Cu7      1.0000 0.80423  0.09897  0.93527  Biso   1.000  Cu
  Cu8      1.0000 0.62807  0.86243  0.60193  Biso   1.000  Cu
  Cu9      1.0000 0.13757  0.76563  0.60193  Biso   1.000  Cu
  Cu10     1.0000 0.43230  0.96140  0.73140  Biso   1.000  Cu
  Cu11     1.0000 0.76563  0.62807  0.39807  Biso   1.000  Cu
  Cu12     1.0000 0.09897  0.29473  0.06473  Biso   1.000  Cu
  Cu13     1.0000 0.03860  0.47090  0.73140  Biso   1.000  Cu
  Cu14     1.0000 0.52910  0.56770  0.73140  Biso   1.000  Cu
  Cu15     1.0000 0.37193  0.13757  0.39807  Biso   1.000  Cu
  Cu16     1.0000 0.86243  0.23437  0.39807  Biso   1.000  Cu
  Cu17     1.0000 0.70527  0.80423  0.06473  Biso   1.000  Cu
  Cu18     1.0000 0.19577  0.90103  0.06473  Biso   1.000  Cu
  O1       1.0000 0.59590  0.09180  0.41940  Biso   1.000  O
  O2       1.0000 0.92923  0.75847  0.08607  Biso   1.000  O
  O3       1.0000 0.26257  0.42513  0.75273  Biso   1.000  O
  O4       1.0000 0.90820  0.50410  0.41940  Biso   1.000  O
  O5       1.0000 0.49590  0.40410  0.41940  Biso   1.000  O
  O6       1.0000 0.24153  0.17077  0.08607  Biso   1.000  O
  O7       1.0000 0.82923  0.07077  0.08607  Biso   1.000  O
  O8       1.0000 0.57487  0.83743  0.75273  Biso   1.000  O
  O9       1.0000 0.16257  0.73743  0.75273  Biso   1.000  O
  O10      1.0000 0.40410  0.90820  0.58060  Biso   1.000  O
  O11      1.0000 0.73743  0.57487  0.24727  Biso   1.000  O
  O12      1.0000 0.07077  0.24153  0.91393  Biso   1.000  O
  O13      1.0000 0.09180  0.49590  0.58060  Biso   1.000  O
  O14      1.0000 0.50410  0.59590  0.58060  Biso   1.000  O
  O15      1.0000 0.42513  0.16257  0.24727  Biso   1.000  O
  O16      1.0000 0.83743  0.26257  0.24727  Biso   1.000  O
  O17      1.0000 0.75847  0.82923  0.91393  Biso   1.000  O
  O18      1.0000 0.17077  0.92923  0.91393  Biso   1.000  O
  O19      1.0000 0.40650  0.01220  0.67410  Biso   1.000  O
  O20      1.0000 0.73983  0.67887  0.34077  Biso   1.000  O
  O21      1.0000 0.07317  0.34553  0.00743  Biso   1.000  O
  O22      1.0000 0.98780  0.39430  0.67410  Biso   1.000  O
  O23      1.0000 0.60570  0.59350  0.67410  Biso   1.000  O
  O24      1.0000 0.32113  0.06097  0.34077  Biso   1.000  O
  O25      1.0000 0.93903  0.26017  0.34077  Biso   1.000  O
  O26      1.0000 0.65447  0.72763  0.00743  Biso   1.000  O
  O27      1.0000 0.27237  0.92683  0.00743  Biso   1.000  O
  O28      1.0000 0.59350  0.98780  0.32590  Biso   1.000  O
  O29      1.0000 0.92683  0.65447  0.99257  Biso   1.000  O
  O30      1.0000 0.26017  0.32113  0.65923  Biso   1.000  O
  O31      1.0000 0.01220  0.60570  0.32590  Biso   1.000  O
  O32      1.0000 0.39430  0.40650  0.32590  Biso   1.000  O
  O33      1.0000 0.34553  0.27237  0.99257  Biso   1.000  O
  O34      1.0000 0.72763  0.07317  0.99257  Biso   1.000  O
  O35      1.0000 0.67887  0.93903  0.65923  Biso   1.000  O
  O36      1.0000 0.06097  0.73983  0.65923  Biso   1.000  O
  O37      1.0000 0.46820  0.91700  0.79400  Biso   1.000  O
  O38      1.0000 0.80153  0.58367  0.46067  Biso   1.000  O
  O39      1.0000 0.13487  0.25033  0.12733  Biso   1.000  O
  O40      1.0000 0.08300  0.55120  0.79400  Biso   1.000  O
  O41      1.0000 0.44880  0.53180  0.79400  Biso   1.000  O
  O42      1.0000 0.41633  0.21787  0.46067  Biso   1.000  O
  O43      1.0000 0.78213  0.19847  0.46067  Biso   1.000  O
  O44      1.0000 0.74967  0.88453  0.12733  Biso   1.000  O
  O45      1.0000 0.11547  0.86513  0.12733  Biso   1.000  O
  O46      1.0000 0.53180  0.08300  0.20600  Biso   1.000  O
  O47      1.0000 0.86513  0.74967  0.87267  Biso   1.000  O
  O48      1.0000 0.19847  0.41633  0.53933  Biso   1.000  O
  O49      1.0000 0.91700  0.44880  0.20600  Biso   1.000  O
  O50      1.0000 0.55120  0.46820  0.20600  Biso   1.000  O
  O51      1.0000 0.25033  0.11547  0.87267  Biso   1.000  O
  O52      1.0000 0.88453  0.13487  0.87267  Biso   1.000  O
  O53      1.0000 0.58367  0.78213  0.53933  Biso   1.000  O
  O54      1.0000 0.21787  0.80153  0.53933  Biso   1.000  O
  O55      1.0000 0.55580  0.92110  0.82890  Biso   1.000  O
  O56      1.0000 0.88913  0.58777  0.49557  Biso   1.000  O
  O57      1.0000 0.22247  0.25443  0.16223  Biso   1.000  O
  O58      1.0000 0.07890  0.63470  0.82890  Biso   1.000  O
  O59      1.0000 0.36530  0.44420  0.82890  Biso   1.000  O
  O60      1.0000 0.41223  0.30137  0.49557  Biso   1.000  O
  O61      1.0000 0.69863  0.11087  0.49557  Biso   1.000  O
  O62      1.0000 0.74557  0.96803  0.16223  Biso   1.000  O
  O63      1.0000 0.03197  0.77753  0.16223  Biso   1.000  O
  O64      1.0000 0.44420  0.07890  0.17110  Biso   1.000  O
  O65      1.0000 0.77753  0.74557  0.83777  Biso   1.000  O
  O66      1.0000 0.11087  0.41223  0.50443  Biso   1.000  O
  O67      1.0000 0.92110  0.36530  0.17110  Biso   1.000  O
  O68      1.0000 0.63470  0.55580  0.17110  Biso   1.000  O
  O69      1.0000 0.25443  0.03197  0.83777  Biso   1.000  O
  O70      1.0000 0.96803  0.22247  0.83777  Biso   1.000  O
  O71      1.0000 0.58777  0.69863  0.50443  Biso   1.000  O
  O72      1.0000 0.30137  0.88913  0.50443  Biso   1.000  O
  N1       1.0000 0.42190  0.10841  0.46980  Biso   1.000  N
  N2       1.0000 0.75523  0.77508  0.13647  Biso   1.000  N
  N3       1.0000 0.08857  0.44174  0.80313  Biso   1.000  N
  N4       1.0000 0.89159  0.31349  0.46980  Biso   1.000  N
  N5       1.0000 0.68651  0.57810  0.46980  Biso   1.000  N
  N6       1.0000 0.22492  0.98016  0.13647  Biso   1.000  N
  N7       1.0000 0.01984  0.24477  0.13647  Biso   1.000  N
  N8       1.0000 0.55826  0.64682  0.80313  Biso   1.000  N
  N9       1.0000 0.35318  0.91143  0.80313  Biso   1.000  N
  N10      1.0000 0.57810  0.89159  0.53020  Biso   1.000  N
  N11      1.0000 0.91143  0.55826  0.19687  Biso   1.000  N
  N12      1.0000 0.24477  0.22492  0.86353  Biso   1.000  N
  N13      1.0000 0.10841  0.68651  0.53020  Biso   1.000  N
  N14      1.0000 0.31349  0.42190  0.53020  Biso   1.000  N
  N15      1.0000 0.44174  0.35318  0.19687  Biso   1.000  N
  N16      1.0000 0.64682  0.08857  0.19687  Biso   1.000  N
  N17      1.0000 0.77508  0.01984  0.86353  Biso   1.000  N
  N18      1.0000 0.98016  0.75523  0.86353  Biso   1.000  N
  N19      1.0000 0.51550  0.01580  0.69290  Biso   1.000  N
  N20      1.0000 0.84883  0.68247  0.35957  Biso   1.000  N
  N21      1.0000 0.18217  0.34913  0.02623  Biso   1.000  N
  N22      1.0000 0.98420  0.49970  0.69290  Biso   1.000  N
  N23      1.0000 0.50030  0.48450  0.69290  Biso   1.000  N
  N24      1.0000 0.31753  0.16637  0.35957  Biso   1.000  N
  N25      1.0000 0.83363  0.15117  0.35957  Biso   1.000  N
  N26      1.0000 0.65087  0.83303  0.02623  Biso   1.000  N
  N27      1.0000 0.16697  0.81783  0.02623  Biso   1.000  N
  N28      1.0000 0.48450  0.98420  0.30710  Biso   1.000  N
  N29      1.0000 0.81783  0.65087  0.97377  Biso   1.000  N
  N30      1.0000 0.15117  0.31753  0.64043  Biso   1.000  N
  N31      1.0000 0.01580  0.50030  0.30710  Biso   1.000  N
  N32      1.0000 0.49970  0.51550  0.30710  Biso   1.000  N
  N33      1.0000 0.34913  0.16697  0.97377  Biso   1.000  N
  N34      1.0000 0.83303  0.18217  0.97377  Biso   1.000  N
  N35      1.0000 0.68247  0.83363  0.64043  Biso   1.000  N
  N36      1.0000 0.16637  0.84883  0.64043  Biso   1.000  N
  C1       1.0000 0.43180  0.04930  0.59840  Biso   1.000  C
  C2       1.0000 0.76513  0.71597  0.26507  Biso   1.000  C
  C3       1.0000 0.09847  0.38263  0.93173  Biso   1.000  C
  C4       1.0000 0.95070  0.38250  0.59840  Biso   1.000  C
  C5       1.0000 0.61750  0.56820  0.59840  Biso   1.000  C
  C6       1.0000 0.28403  0.04917  0.26507  Biso   1.000  C
  C7       1.0000 0.95083  0.23487  0.26507  Biso   1.000  C
  C8       1.0000 0.61737  0.71583  0.93173  Biso   1.000  C
  C9       1.0000 0.28417  0.90153  0.93173  Biso   1.000  C
  C10      1.0000 0.56820  0.95070  0.40160  Biso   1.000  C
  C11      1.0000 0.90153  0.61737  0.06827  Biso   1.000  C
  C12      1.0000 0.23487  0.28403  0.73493  Biso   1.000  C
  C13      1.0000 0.04930  0.61750  0.40160  Biso   1.000  C
  C14      1.0000 0.38250  0.43180  0.40160  Biso   1.000  C
  C15      1.0000 0.38263  0.28417  0.06827  Biso   1.000  C
  C16      1.0000 0.71583  0.09847  0.06827  Biso   1.000  C
  C17      1.0000 0.71597  0.95083  0.73493  Biso   1.000  C
  C18      1.0000 0.04917  0.76513  0.73493  Biso   1.000  C
  C19      1.0000 0.39870  0.06991  0.54710  Biso   1.000  C
  C20      1.0000 0.73203  0.73658  0.21377  Biso   1.000  C
  C21      1.0000 0.06537  0.40324  0.88043  Biso   1.000  C
  C22      1.0000 0.93009  0.32879  0.54710  Biso   1.000  C
  C23      1.0000 0.67121  0.60130  0.54710  Biso   1.000  C
  C24      1.0000 0.26342  0.99546  0.21377  Biso   1.000  C
  C25      1.0000 0.00454  0.26797  0.21377  Biso   1.000  C
  C26      1.0000 0.59676  0.66212  0.88043  Biso   1.000  C
  C27      1.0000 0.33788  0.93463  0.88043  Biso   1.000  C
  C28      1.0000 0.60130  0.93009  0.45290  Biso   1.000  C
  C29      1.0000 0.93463  0.59676  0.11957  Biso   1.000  C
  C30      1.0000 0.26797  0.26342  0.78623  Biso   1.000  C
  C31      1.0000 0.06991  0.67121  0.45290  Biso   1.000  C
  C32      1.0000 0.32879  0.39870  0.45290  Biso   1.000  C
  C33      1.0000 0.40324  0.33788  0.11957  Biso   1.000  C
  C34      1.0000 0.66212  0.06537  0.11957  Biso   1.000  C
  C35      1.0000 0.73658  0.00454  0.78623  Biso   1.000  C
  C36      1.0000 0.99546  0.73203  0.78623  Biso   1.000  C
  C37      1.0000 0.33760  0.05211  0.57880  Biso   1.000  C
  C38      1.0000 0.67093  0.71878  0.24547  Biso   1.000  C
  C39      1.0000 0.00427  0.38544  0.91213  Biso   1.000  C
  C40      1.0000 0.94789  0.28549  0.57880  Biso   1.000  C
  C41      1.0000 0.71451  0.66240  0.57880  Biso   1.000  C
  C42      1.0000 0.28122  0.95216  0.24547  Biso   1.000  C
  C43      1.0000 0.04784  0.32907  0.24547  Biso   1.000  C
  C44      1.0000 0.61456  0.61882  0.91213  Biso   1.000  C
  C45      1.0000 0.38118  0.99573  0.91213  Biso   1.000  C
  C46      1.0000 0.66240  0.94789  0.42120  Biso   1.000  C
  C47      1.0000 0.99573  0.61456  0.08787  Biso   1.000  C
  C48      1.0000 0.32907  0.28122  0.75453  Biso   1.000  C
  C49      1.0000 0.05211  0.71451  0.42120  Biso   1.000  C
  C50      1.0000 0.28549  0.33760  0.42120  Biso   1.000  C
  C51      1.0000 0.38544  0.38118  0.08787  Biso   1.000  C
  C52      1.0000 0.61882  0.00427  0.08787  Biso   1.000  C
  C53      1.0000 0.71878  0.04784  0.75453  Biso   1.000  C
  C54      1.0000 0.95216  0.67093  0.75453  Biso   1.000  C
  C55      1.0000 0.47880  0.12731  0.43940  Biso   1.000  C
  C56      1.0000 0.81213  0.79398  0.10607  Biso   1.000  C
  C57      1.0000 0.14547  0.46064  0.77273  Biso   1.000  C
  C58      1.0000 0.87269  0.35149  0.43940  Biso   1.000  C
  C59      1.0000 0.64851  0.52120  0.43940  Biso   1.000  C
  C60      1.0000 0.20602  0.01816  0.10607  Biso   1.000  C
  C61      1.0000 0.98184  0.18787  0.10607  Biso   1.000  C
  C62      1.0000 0.53936  0.68482  0.77273  Biso   1.000  C
  C63      1.0000 0.31518  0.85453  0.77273  Biso   1.000  C
  C64      1.0000 0.52120  0.87269  0.56060  Biso   1.000  C
  C65      1.0000 0.85453  0.53936  0.22727  Biso   1.000  C
  C66      1.0000 0.18787  0.20602  0.89393  Biso   1.000  C
  C67      1.0000 0.12731  0.64851  0.56060  Biso   1.000  C
  C68      1.0000 0.35149  0.47880  0.56060  Biso   1.000  C
  C69      1.0000 0.46064  0.31518  0.22727  Biso   1.000  C
  C70      1.0000 0.68482  0.14547  0.22727  Biso   1.000  C
  C71      1.0000 0.79398  0.98184  0.89393  Biso   1.000  C
  C72      1.0000 0.01816  0.81213  0.89393  Biso   1.000  C
  C73      1.0000 0.51461  0.11011  0.48150  Biso   1.000  C
  C74      1.0000 0.84794  0.77678  0.14817  Biso   1.000  C
  C75      1.0000 0.18128  0.44344  0.81483  Biso   1.000  C
  C76      1.0000 0.88989  0.40450  0.48150  Biso   1.000  C
  C77      1.0000 0.59550  0.48539  0.48150  Biso   1.000  C
  C78      1.0000 0.22322  0.07117  0.14817  Biso   1.000  C
  C79      1.0000 0.92883  0.15206  0.14817  Biso   1.000  C
  C80      1.0000 0.55656  0.73783  0.81483  Biso   1.000  C
  C81      1.0000 0.26217  0.81872  0.81483  Biso   1.000  C
  C82      1.0000 0.48539  0.88989  0.51850  Biso   1.000  C
  C83      1.0000 0.81872  0.55656  0.18517  Biso   1.000  C
  C84      1.0000 0.15206  0.22322  0.85183  Biso   1.000  C
  C85      1.0000 0.11011  0.59550  0.51850  Biso   1.000  C
  C86      1.0000 0.40450  0.51461  0.51850  Biso   1.000  C
  C87      1.0000 0.44344  0.26217  0.18517  Biso   1.000  C
  C88      1.0000 0.73783  0.18128  0.18517  Biso   1.000  C
  C89      1.0000 0.77678  0.92883  0.85183  Biso   1.000  C
  C90      1.0000 0.07117  0.84794  0.85183  Biso   1.000  C
  C91      1.0000 0.58230  0.13610  0.44780  Biso   1.000  C
  C92      1.0000 0.91563  0.80277  0.11447  Biso   1.000  C
  C93      1.0000 0.24897  0.46943  0.78113  Biso   1.000  C
  C94      1.0000 0.86390  0.44620  0.44780  Biso   1.000  C
  C95      1.0000 0.55380  0.41770  0.44780  Biso   1.000  C
  C96      1.0000 0.19723  0.11287  0.11447  Biso   1.000  C
  C97      1.0000 0.88713  0.08437  0.11447  Biso   1.000  C
  C98      1.0000 0.53057  0.77953  0.78113  Biso   1.000  C
  C99      1.0000 0.22047  0.75103  0.78113  Biso   1.000  C
  C100     1.0000 0.41770  0.86390  0.55220  Biso   1.000  C
  C101     1.0000 0.75103  0.53057  0.21887  Biso   1.000  C
  C102     1.0000 0.08437  0.19723  0.88553  Biso   1.000  C
  C103     1.0000 0.13610  0.55380  0.55220  Biso   1.000  C
  C104     1.0000 0.44620  0.58230  0.55220  Biso   1.000  C
  C105     1.0000 0.46943  0.22047  0.21887  Biso   1.000  C
  C106     1.0000 0.77953  0.24897  0.21887  Biso   1.000  C
  C107     1.0000 0.80277  0.88713  0.88553  Biso   1.000  C
  C108     1.0000 0.11287  0.91563  0.88553  Biso   1.000  C
  C109     1.0000 0.49330  0.06870  0.56640  Biso   1.000  C
  C110     1.0000 0.82663  0.73537  0.23307  Biso   1.000  C
  C111     1.0000 0.15997  0.40203  0.89973  Biso   1.000  C
  C112     1.0000 0.93130  0.42460  0.56640  Biso   1.000  C
  C113     1.0000 0.57540  0.50670  0.56640  Biso   1.000  C
  C114     1.0000 0.26463  0.09127  0.23307  Biso   1.000  C
  C115     1.0000 0.90873  0.17337  0.23307  Biso   1.000  C
  C116     1.0000 0.59797  0.75793  0.89973  Biso   1.000  C
  C117     1.0000 0.24207  0.84003  0.89973  Biso   1.000  C
  C118     1.0000 0.50670  0.93130  0.43360  Biso   1.000  C
  C119     1.0000 0.84003  0.59797  0.10027  Biso   1.000  C
  C120     1.0000 0.17337  0.26463  0.76693  Biso   1.000  C
  C121     1.0000 0.06870  0.57540  0.43360  Biso   1.000  C
  C122     1.0000 0.42460  0.49330  0.43360  Biso   1.000  C
  C123     1.0000 0.40203  0.24207  0.10027  Biso   1.000  C
  C124     1.0000 0.75793  0.15997  0.10027  Biso   1.000  C
  C125     1.0000 0.73537  0.90873  0.76693  Biso   1.000  C
  C126     1.0000 0.09127  0.82663  0.76693  Biso   1.000  C
  C127     1.0000 0.53320  0.05480  0.61600  Biso   1.000  C
  C128     1.0000 0.86653  0.72147  0.28267  Biso   1.000  C
  C129     1.0000 0.19987  0.38813  0.94933  Biso   1.000  C
  C130     1.0000 0.94520  0.47840  0.61600  Biso   1.000  C
  C131     1.0000 0.52160  0.46680  0.61600  Biso   1.000  C
  C132     1.0000 0.27853  0.14507  0.28267  Biso   1.000  C
  C133     1.0000 0.85493  0.13347  0.28267  Biso   1.000  C
  C134     1.0000 0.61187  0.81173  0.94933  Biso   1.000  C
  C135     1.0000 0.18827  0.80013  0.94933  Biso   1.000  C
  C136     1.0000 0.46680  0.94520  0.38400  Biso   1.000  C
  C137     1.0000 0.80013  0.61187  0.05067  Biso   1.000  C
  C138     1.0000 0.13347  0.27853  0.71733  Biso   1.000  C
  C139     1.0000 0.05480  0.52160  0.38400  Biso   1.000  C
  C140     1.0000 0.47840  0.53320  0.38400  Biso   1.000  C
  C141     1.0000 0.38813  0.18827  0.05067  Biso   1.000  C
  C142     1.0000 0.81173  0.19987  0.05067  Biso   1.000  C
  C143     1.0000 0.72147  0.85493  0.71733  Biso   1.000  C
  C144     1.0000 0.14507  0.86653  0.71733  Biso   1.000  C
  C145     1.0000 0.55920  0.00590  0.74600  Biso   1.000  C
  C146     1.0000 0.89253  0.67257  0.41267  Biso   1.000  C
  C147     1.0000 0.22587  0.33923  0.07933  Biso   1.000  C
  C148     1.0000 0.99410  0.55330  0.74600  Biso   1.000  C
  C149     1.0000 0.44670  0.44080  0.74600  Biso   1.000  C
  C150     1.0000 0.32743  0.21997  0.41267  Biso   1.000  C
  C151     1.0000 0.78003  0.10747  0.41267  Biso   1.000  C
  C152     1.0000 0.66077  0.88663  0.07933  Biso   1.000  C
  C153     1.0000 0.11337  0.77413  0.07933  Biso   1.000  C
  C154     1.0000 0.44080  0.99410  0.25400  Biso   1.000  C
  C155     1.0000 0.77413  0.66077  0.92067  Biso   1.000  C
  C156     1.0000 0.10747  0.32743  0.58733  Biso   1.000  C
  C157     1.0000 0.00590  0.44670  0.25400  Biso   1.000  C
  C158     1.0000 0.55330  0.55920  0.25400  Biso   1.000  C
  C159     1.0000 0.33923  0.11337  0.92067  Biso   1.000  C
  C160     1.0000 0.88663  0.22587  0.92067  Biso   1.000  C
  C161     1.0000 0.67257  0.78003  0.58733  Biso   1.000  C
  C162     1.0000 0.21997  0.89253  0.58733  Biso   1.000  C
  C163     1.0000 0.52740  0.94260  0.79320  Biso   1.000  C
  C164     1.0000 0.86073  0.60927  0.45987  Biso   1.000  C
  C165     1.0000 0.19407  0.27593  0.12653  Biso   1.000  C
  C166     1.0000 0.05740  0.58480  0.79320  Biso   1.000  C
  C167     1.0000 0.41520  0.47260  0.79320  Biso   1.000  C
  C168     1.0000 0.39073  0.25147  0.45987  Biso   1.000  C
  C169     1.0000 0.74853  0.13927  0.45987  Biso   1.000  C
  C170     1.0000 0.72407  0.91813  0.12653  Biso   1.000  C
  C171     1.0000 0.08187  0.80593  0.12653  Biso   1.000  C
  C172     1.0000 0.47260  0.05740  0.20680  Biso   1.000  C
  C173     1.0000 0.80593  0.72407  0.87347  Biso   1.000  C
  C174     1.0000 0.13927  0.39073  0.54013  Biso   1.000  C
  C175     1.0000 0.94260  0.41520  0.20680  Biso   1.000  C
  C176     1.0000 0.58480  0.52740  0.20680  Biso   1.000  C
  C177     1.0000 0.27593  0.08187  0.87347  Biso   1.000  C
  C178     1.0000 0.91813  0.19407  0.87347  Biso   1.000  C
  C179     1.0000 0.60927  0.74853  0.54013  Biso   1.000  C
  C180     1.0000 0.25147  0.86073  0.54013  Biso   1.000  C
  C181     1.0000 0.59420  0.05360  0.82300  Biso   1.000  C
  C182     1.0000 0.92753  0.72027  0.48967  Biso   1.000  C
  C183     1.0000 0.26087  0.38693  0.15633  Biso   1.000  C
  C184     1.0000 0.94640  0.54060  0.82300  Biso   1.000  C
  C185     1.0000 0.45940  0.40580  0.82300  Biso   1.000  C
  C186     1.0000 0.27973  0.20727  0.48967  Biso   1.000  C
  C187     1.0000 0.79273  0.07247  0.48967  Biso   1.000  C
  C188     1.0000 0.61307  0.87393  0.15633  Biso   1.000  C
  C189     1.0000 0.12607  0.73913  0.15633  Biso   1.000  C
  C190     1.0000 0.40580  0.94640  0.17700  Biso   1.000  C
  C191     1.0000 0.73913  0.61307  0.84367  Biso   1.000  C
  C192     1.0000 0.07247  0.27973  0.51033  Biso   1.000  C
  C193     1.0000 0.05360  0.45940  0.17700  Biso   1.000  C
  C194     1.0000 0.54060  0.59420  0.17700  Biso   1.000  C
  C195     1.0000 0.38693  0.12607  0.84367  Biso   1.000  C
  C196     1.0000 0.87393  0.26087  0.84367  Biso   1.000  C
  C197     1.0000 0.72027  0.79273  0.51033  Biso   1.000  C
  C198     1.0000 0.20727  0.92753  0.51033  Biso   1.000  C
  C199     1.0000 0.63520  0.11740  0.78110  Biso   1.000  C
  C200     1.0000 0.96853  0.78407  0.44777  Biso   1.000  C
  C201     1.0000 0.30187  0.45073  0.11443  Biso   1.000  C
  C202     1.0000 0.88260  0.51780  0.78110  Biso   1.000  C
  C203     1.0000 0.48220  0.36480  0.78110  Biso   1.000  C
  C204     1.0000 0.21593  0.18447  0.44777  Biso   1.000  C
  C205     1.0000 0.81553  0.03147  0.44777  Biso   1.000  C
  C206     1.0000 0.54927  0.85113  0.11443  Biso   1.000  C
  C207     1.0000 0.14887  0.69813  0.11443  Biso   1.000  C
  C208     1.0000 0.36480  0.88260  0.21890  Biso   1.000  C
  C209     1.0000 0.69813  0.54927  0.88557  Biso   1.000  C
  C210     1.0000 0.03147  0.21593  0.55223  Biso   1.000  C
  C211     1.0000 0.11740  0.48220  0.21890  Biso   1.000  C
  C212     1.0000 0.51780  0.63520  0.21890  Biso   1.000  C
  C213     1.0000 0.45073  0.14887  0.88557  Biso   1.000  C
  C214     1.0000 0.85113  0.30187  0.88557  Biso   1.000  C
  C215     1.0000 0.78407  0.81553  0.55223  Biso   1.000  C
  C216     1.0000 0.18447  0.96853  0.55223  Biso   1.000  C
  C217     1.0000 0.54950  0.05760  0.89790  Biso   1.000  C
  C218     1.0000 0.88283  0.72427  0.56457  Biso   1.000  C
  C219     1.0000 0.21617  0.39093  0.23123  Biso   1.000  C
  C220     1.0000 0.94240  0.49190  0.89790  Biso   1.000  C
  C221     1.0000 0.50810  0.45050  0.89790  Biso   1.000  C
  C222     1.0000 0.27573  0.15857  0.56457  Biso   1.000  C
  C223     1.0000 0.84143  0.11717  0.56457  Biso   1.000  C
  C224     1.0000 0.60907  0.82523  0.23123  Biso   1.000  C
  C225     1.0000 0.17477  0.78383  0.23123  Biso   1.000  C
  C226     1.0000 0.45050  0.94240  0.10210  Biso   1.000  C
  C227     1.0000 0.78383  0.60907  0.76877  Biso   1.000  C
  C228     1.0000 0.11717  0.27573  0.43543  Biso   1.000  C
  C229     1.0000 0.05760  0.50810  0.10210  Biso   1.000  C
  C230     1.0000 0.49190  0.54950  0.10210  Biso   1.000  C
  C231     1.0000 0.39093  0.17477  0.76877  Biso   1.000  C
  C232     1.0000 0.82523  0.21617  0.76877  Biso   1.000  C
  C233     1.0000 0.72427  0.84143  0.43543  Biso   1.000  C
  C234     1.0000 0.15857  0.88283  0.43543  Biso   1.000  C
  H1       1.0000 0.34100  0.06801  0.65200  Biso   1.000  H
  H2       1.0000 0.67433  0.73468  0.31867  Biso   1.000  H
  H3       1.0000 0.00767  0.40134  0.98533  Biso   1.000  H
  H4       1.0000 0.93199  0.27299  0.65200  Biso   1.000  H
  H5       1.0000 0.72701  0.65900  0.65200  Biso   1.000  H
  H6       1.0000 0.26532  0.93966  0.31867  Biso   1.000  H
  H7       1.0000 0.06034  0.32567  0.31867  Biso   1.000  H
  H8       1.0000 0.59866  0.60632  0.98533  Biso   1.000  H
  H9       1.0000 0.39368  0.99233  0.98533  Biso   1.000  H
  H10      1.0000 0.65900  0.93199  0.34800  Biso   1.000  H
  H11      1.0000 0.99233  0.59866  0.01467  Biso   1.000  H
  H12      1.0000 0.32567  0.26532  0.68133  Biso   1.000  H
  H13      1.0000 0.06801  0.72701  0.34800  Biso   1.000  H
  H14      1.0000 0.27299  0.34100  0.34800  Biso   1.000  H
  H15      1.0000 0.40134  0.39368  0.01467  Biso   1.000  H
  H16      1.0000 0.60632  0.00767  0.01467  Biso   1.000  H
  H17      1.0000 0.73468  0.06034  0.68133  Biso   1.000  H
  H18      1.0000 0.93966  0.67433  0.68133  Biso   1.000  H
  H19      1.0000 0.31300  0.00701  0.57900  Biso   1.000  H
  H20      1.0000 0.64633  0.67368  0.24567  Biso   1.000  H
  H21      1.0000 0.97967  0.34034  0.91233  Biso   1.000  H
  H22      1.0000 0.99299  0.30599  0.57900  Biso   1.000  H
  H23      1.0000 0.69401  0.68700  0.57900  Biso   1.000  H
  H24      1.0000 0.32632  0.97266  0.24567  Biso   1.000  H
  H25      1.0000 0.02734  0.35367  0.24567  Biso   1.000  H
  H26      1.0000 0.65966  0.63932  0.91233  Biso   1.000  H
  H27      1.0000 0.36068  0.02033  0.91233  Biso   1.000  H
  H28      1.0000 0.68700  0.99299  0.42100  Biso   1.000  H
  H29      1.0000 0.02033  0.65966  0.08767  Biso   1.000  H
  H30      1.0000 0.35367  0.32632  0.75433  Biso   1.000  H
  H31      1.0000 0.00701  0.69401  0.42100  Biso   1.000  H
  H32      1.0000 0.30599  0.31300  0.42100  Biso   1.000  H
  H33      1.0000 0.34034  0.36068  0.08767  Biso   1.000  H
  H34      1.0000 0.63932  0.97967  0.08767  Biso   1.000  H
  H35      1.0000 0.67368  0.02734  0.75433  Biso   1.000  H
  H36      1.0000 0.97266  0.64633  0.75433  Biso   1.000  H
  H37      1.0000 0.31200  0.06801  0.54300  Biso   1.000  H
  H38      1.0000 0.64533  0.73468  0.20967  Biso   1.000  H
  H39      1.0000 0.97867  0.40134  0.87633  Biso   1.000  H
  H40      1.0000 0.93199  0.24399  0.54300  Biso   1.000  H
  H41      1.0000 0.75601  0.68800  0.54300  Biso   1.000  H
  H42      1.0000 0.26532  0.91066  0.20967  Biso   1.000  H
  H43      1.0000 0.08934  0.35467  0.20967  Biso   1.000  H
  H44      1.0000 0.59866  0.57732  0.87633  Biso   1.000  H
  H45      1.0000 0.42268  0.02133  0.87633  Biso   1.000  H
  H46      1.0000 0.68800  0.93199  0.45700  Biso   1.000  H
  H47      1.0000 0.02133  0.59866  0.12367  Biso   1.000  H
  H48      1.0000 0.35467  0.26532  0.79033  Biso   1.000  H
  H49      1.0000 0.06801  0.75601  0.45700  Biso   1.000  H
  H50      1.0000 0.24399  0.31200  0.45700  Biso   1.000  H
  H51      1.0000 0.40134  0.42268  0.12367  Biso   1.000  H
  H52      1.0000 0.57732  0.97867  0.12367  Biso   1.000  H
  H53      1.0000 0.73468  0.08934  0.79033  Biso   1.000  H
  H54      1.0000 0.91066  0.64533  0.79033  Biso   1.000  H
  H55      1.0000 0.49600  0.15701  0.37500  Biso   1.000  H
  H56      1.0000 0.82933  0.82368  0.04167  Biso   1.000  H
  H57      1.0000 0.16267  0.49034  0.70833  Biso   1.000  H
  H58      1.0000 0.84299  0.33899  0.37500  Biso   1.000  H
  H59      1.0000 0.66101  0.50400  0.37500  Biso   1.000  H
  H60      1.0000 0.17632  0.00566  0.04167  Biso   1.000  H
  H61      1.0000 0.99434  0.17067  0.04167  Biso   1.000  H
  H62      1.0000 0.50966  0.67232  0.70833  Biso   1.000  H
  H63      1.0000 0.32768  0.83733  0.70833  Biso   1.000  H
  H64      1.0000 0.50400  0.84299  0.62500  Biso   1.000  H
  H65      1.0000 0.83733  0.50966  0.29167  Biso   1.000  H
  H66      1.0000 0.17067  0.17632  0.95833  Biso   1.000  H
  H67      1.0000 0.15701  0.66101  0.62500  Biso   1.000  H
  H68      1.0000 0.33899  0.49600  0.62500  Biso   1.000  H
  H69      1.0000 0.49034  0.32768  0.29167  Biso   1.000  H
  H70      1.0000 0.67232  0.16267  0.29167  Biso   1.000  H
  H71      1.0000 0.82368  0.99434  0.95833  Biso   1.000  H
  H72      1.0000 0.00566  0.82933  0.95833  Biso   1.000  H
  H73      1.0000 0.60900  0.16200  0.50700  Biso   1.000  H
  H74      1.0000 0.94233  0.82867  0.17367  Biso   1.000  H
  H75      1.0000 0.27567  0.49533  0.84033  Biso   1.000  H
  H76      1.0000 0.83800  0.44700  0.50700  Biso   1.000  H
  H77      1.0000 0.55300  0.39100  0.50700  Biso   1.000  H
  H78      1.0000 0.17133  0.11367  0.17367  Biso   1.000  H
  H79      1.0000 0.88633  0.05767  0.17367  Biso   1.000  H
  H80      1.0000 0.50467  0.78033  0.84033  Biso   1.000  H
  H81      1.0000 0.21967  0.72433  0.84033  Biso   1.000  H
  H82      1.0000 0.39100  0.83800  0.49300  Biso   1.000  H
  H83      1.0000 0.72433  0.50467  0.15967  Biso   1.000  H
  H84      1.0000 0.05767  0.17133  0.82633  Biso   1.000  H
  H85      1.0000 0.16200  0.55300  0.49300  Biso   1.000  H
  H86      1.0000 0.44700  0.60900  0.49300  Biso   1.000  H
  H87      1.0000 0.49533  0.21967  0.15967  Biso   1.000  H
  H88      1.0000 0.78033  0.27567  0.15967  Biso   1.000  H
  H89      1.0000 0.82867  0.88633  0.82633  Biso   1.000  H
  H90      1.0000 0.11367  0.94233  0.82633  Biso   1.000  H
  H91      1.0000 0.59000  0.16700  0.39000  Biso   1.000  H
  H92      1.0000 0.92333  0.83367  0.05667  Biso   1.000  H
  H93      1.0000 0.25667  0.50033  0.72333  Biso   1.000  H
  H94      1.0000 0.83300  0.42300  0.39000  Biso   1.000  H
  H95      1.0000 0.57700  0.41000  0.39000  Biso   1.000  H
  H96      1.0000 0.16633  0.08967  0.05667  Biso   1.000  H
  H97      1.0000 0.91033  0.07667  0.05667  Biso   1.000  H
  H98      1.0000 0.49967  0.75633  0.72333  Biso   1.000  H
  H99      1.0000 0.24367  0.74333  0.72333  Biso   1.000  H
  H100     1.0000 0.41000  0.83300  0.61000  Biso   1.000  H
  H101     1.0000 0.74333  0.49967  0.27667  Biso   1.000  H
  H102     1.0000 0.07667  0.16633  0.94333  Biso   1.000  H
  H103     1.0000 0.16700  0.57700  0.61000  Biso   1.000  H
  H104     1.0000 0.42300  0.59000  0.61000  Biso   1.000  H
  H105     1.0000 0.50033  0.24367  0.27667  Biso   1.000  H
  H106     1.0000 0.75633  0.25667  0.27667  Biso   1.000  H
  H107     1.0000 0.83367  0.91033  0.94333  Biso   1.000  H
  H108     1.0000 0.08967  0.92333  0.94333  Biso   1.000  H
  H109     1.0000 0.58000  0.05000  0.60000  Biso   1.000  H
  H110     1.0000 0.91333  0.71667  0.26667  Biso   1.000  H
  H111     1.0000 0.24667  0.38333  0.93333  Biso   1.000  H
  H112     1.0000 0.95000  0.53000  0.60000  Biso   1.000  H
  H113     1.0000 0.47000  0.42000  0.60000  Biso   1.000  H
  H114     1.0000 0.28333  0.19667  0.26667  Biso   1.000  H
  H115     1.0000 0.80333  0.08667  0.26667  Biso   1.000  H
  H116     1.0000 0.61667  0.86333  0.93333  Biso   1.000  H
  H117     1.0000 0.13667  0.75333  0.93333  Biso   1.000  H
  H118     1.0000 0.42000  0.95000  0.40000  Biso   1.000  H
  H119     1.0000 0.75333  0.61667  0.06667  Biso   1.000  H
  H120     1.0000 0.08667  0.28333  0.73333  Biso   1.000  H
  H121     1.0000 0.05000  0.47000  0.40000  Biso   1.000  H
  H122     1.0000 0.53000  0.58000  0.40000  Biso   1.000  H
  H123     1.0000 0.38333  0.13667  0.06667  Biso   1.000  H
  H124     1.0000 0.86333  0.24667  0.06667  Biso   1.000  H
  H125     1.0000 0.71667  0.80333  0.73333  Biso   1.000  H
  H126     1.0000 0.19667  0.91333  0.73333  Biso   1.000  H
  H127     1.0000 0.59300  0.00800  0.69500  Biso   1.000  H
  H128     1.0000 0.92633  0.67467  0.36167  Biso   1.000  H
  H129     1.0000 0.25967  0.34133  0.02833  Biso   1.000  H
  H130     1.0000 0.99200  0.58500  0.69500  Biso   1.000  H
  H131     1.0000 0.41500  0.40700  0.69500  Biso   1.000  H
  H132     1.0000 0.32533  0.25167  0.36167  Biso   1.000  H
  H133     1.0000 0.74833  0.07367  0.36167  Biso   1.000  H
  H134     1.0000 0.65867  0.91833  0.02833  Biso   1.000  H
  H135     1.0000 0.08167  0.74033  0.02833  Biso   1.000  H
  H136     1.0000 0.40700  0.99200  0.30500  Biso   1.000  H
  H137     1.0000 0.74033  0.65867  0.97167  Biso   1.000  H
  H138     1.0000 0.07367  0.32533  0.63833  Biso   1.000  H
  H139     1.0000 0.00800  0.41500  0.30500  Biso   1.000  H
  H140     1.0000 0.58500  0.59300  0.30500  Biso   1.000  H
  H141     1.0000 0.34133  0.08167  0.97167  Biso   1.000  H
  H142     1.0000 0.91833  0.25967  0.97167  Biso   1.000  H
  H143     1.0000 0.67467  0.74833  0.63833  Biso   1.000  H
  H144     1.0000 0.25167  0.92633  0.63833  Biso   1.000  H
  H145     1.0000 0.62000  0.04100  0.86600  Biso   1.000  H
  H146     1.0000 0.95333  0.70767  0.53267  Biso   1.000  H
  H147     1.0000 0.28667  0.37433  0.19933  Biso   1.000  H
  H148     1.0000 0.95900  0.57900  0.86600  Biso   1.000  H
  H149     1.0000 0.42100  0.38000  0.86600  Biso   1.000  H
  H150     1.0000 0.29233  0.24567  0.53267  Biso   1.000  H
  H151     1.0000 0.75433  0.04667  0.53267  Biso   1.000  H
  H152     1.0000 0.62567  0.91233  0.19933  Biso   1.000  H
  H153     1.0000 0.08767  0.71333  0.19933  Biso   1.000  H
  H154     1.0000 0.38000  0.95900  0.13400  Biso   1.000  H
  H155     1.0000 0.71333  0.62567  0.80067  Biso   1.000  H
  H156     1.0000 0.04667  0.29233  0.46733  Biso   1.000  H
  H157     1.0000 0.04100  0.42100  0.13400  Biso   1.000  H
  H158     1.0000 0.57900  0.62000  0.13400  Biso   1.000  H
  H159     1.0000 0.37433  0.08767  0.80067  Biso   1.000  H
  H160     1.0000 0.91233  0.28667  0.80067  Biso   1.000  H
  H161     1.0000 0.70767  0.75433  0.46733  Biso   1.000  H
  H162     1.0000 0.24567  0.95333  0.46733  Biso   1.000  H
  H163     1.0000 0.63200  0.11800  0.70700  Biso   1.000  H
  H164     1.0000 0.96533  0.78467  0.37367  Biso   1.000  H
  H165     1.0000 0.29867  0.45133  0.04033  Biso   1.000  H
  H166     1.0000 0.88200  0.51400  0.70700  Biso   1.000  H
  H167     1.0000 0.48600  0.36800  0.70700  Biso   1.000  H
  H168     1.0000 0.21533  0.18067  0.37367  Biso   1.000  H
  H169     1.0000 0.81933  0.03467  0.37367  Biso   1.000  H
  H170     1.0000 0.54867  0.84733  0.04033  Biso   1.000  H
  H171     1.0000 0.15267  0.70133  0.04033  Biso   1.000  H
  H172     1.0000 0.36800  0.88200  0.29300  Biso   1.000  H
  H173     1.0000 0.70133  0.54867  0.95967  Biso   1.000  H
  H174     1.0000 0.03467  0.21533  0.62633  Biso   1.000  H
  H175     1.0000 0.11800  0.48600  0.29300  Biso   1.000  H
  H176     1.0000 0.51400  0.63200  0.29300  Biso   1.000  H
  H177     1.0000 0.45133  0.15267  0.95967  Biso   1.000  H
  H178     1.0000 0.84733  0.29867  0.95967  Biso   1.000  H
  H179     1.0000 0.78467  0.81933  0.62633  Biso   1.000  H
  H180     1.0000 0.18067  0.96533  0.62633  Biso   1.000  H
  H181     1.0000 0.67900  0.13300  0.80200  Biso   1.000  H
  H182     1.0000 0.01233  0.79967  0.46867  Biso   1.000  H
  H183     1.0000 0.34567  0.46633  0.13533  Biso   1.000  H
  H184     1.0000 0.86700  0.54600  0.80200  Biso   1.000  H
  H185     1.0000 0.45400  0.32100  0.80200  Biso   1.000  H
  H186     1.0000 0.20033  0.21267  0.46867  Biso   1.000  H
  H187     1.0000 0.78733  0.98767  0.46867  Biso   1.000  H
  H188     1.0000 0.53367  0.87933  0.13533  Biso   1.000  H
  H189     1.0000 0.12067  0.65433  0.13533  Biso   1.000  H
  H190     1.0000 0.32100  0.86700  0.19800  Biso   1.000  H
  H191     1.0000 0.65433  0.53367  0.86467  Biso   1.000  H
  H192     1.0000 0.98767  0.20033  0.53133  Biso   1.000  H
  H193     1.0000 0.13300  0.45400  0.19800  Biso   1.000  H
  H194     1.0000 0.54600  0.67900  0.19800  Biso   1.000  H
  H195     1.0000 0.46633  0.12067  0.86467  Biso   1.000  H
  H196     1.0000 0.87933  0.34567  0.86467  Biso   1.000  H
  H197     1.0000 0.79967  0.78733  0.53133  Biso   1.000  H
  H198     1.0000 0.21267  0.01233  0.53133  Biso   1.000  H
  H199     1.0000 0.60700  0.12300  0.83000  Biso   1.000  H
  H200     1.0000 0.94033  0.78967  0.49667  Biso   1.000  H
  H201     1.0000 0.27367  0.45633  0.16333  Biso   1.000  H
  H202     1.0000 0.87700  0.48400  0.83000  Biso   1.000  H
  H203     1.0000 0.51600  0.39300  0.83000  Biso   1.000  H
  H204     1.0000 0.21033  0.15067  0.49667  Biso   1.000  H
  H205     1.0000 0.84933  0.05967  0.49667  Biso   1.000  H
  H206     1.0000 0.54367  0.81733  0.16333  Biso   1.000  H
  H207     1.0000 0.18267  0.72633  0.16333  Biso   1.000  H
  H208     1.0000 0.39300  0.87700  0.17000  Biso   1.000  H
  H209     1.0000 0.72633  0.54367  0.83667  Biso   1.000  H
  H210     1.0000 0.05967  0.21033  0.50333  Biso   1.000  H
  H211     1.0000 0.12300  0.51600  0.17000  Biso   1.000  H
  H212     1.0000 0.48400  0.60700  0.17000  Biso   1.000  H
  H213     1.0000 0.45633  0.18267  0.83667  Biso   1.000  H
  H214     1.0000 0.81733  0.27367  0.83667  Biso   1.000  H
  H215     1.0000 0.78967  0.84933  0.50333  Biso   1.000  H
  H216     1.0000 0.15067  0.94033  0.50333  Biso   1.000  H
  H217     1.0000 0.52400  0.07300  0.85900  Biso   1.000  H
  H218     1.0000 0.85733  0.73967  0.52567  Biso   1.000  H
  H219     1.0000 0.19067  0.40633  0.19233  Biso   1.000  H
  H220     1.0000 0.92700  0.45100  0.85900  Biso   1.000  H
  H221     1.0000 0.54900  0.47600  0.85900  Biso   1.000  H
  H222     1.0000 0.26033  0.11767  0.52567  Biso   1.000  H
  H223     1.0000 0.88233  0.14267  0.52567  Biso   1.000  H
  H224     1.0000 0.59367  0.78433  0.19233  Biso   1.000  H
  H225     1.0000 0.21567  0.80933  0.19233  Biso   1.000  H
  H226     1.0000 0.47600  0.92700  0.14100  Biso   1.000  H
  H227     1.0000 0.80933  0.59367  0.80767  Biso   1.000  H
  H228     1.0000 0.14267  0.26033  0.47433  Biso   1.000  H
  H229     1.0000 0.07300  0.54900  0.14100  Biso   1.000  H
  H230     1.0000 0.45100  0.52400  0.14100  Biso   1.000  H
  H231     1.0000 0.40633  0.21567  0.80767  Biso   1.000  H
  H232     1.0000 0.78433  0.19067  0.80767  Biso   1.000  H
  H233     1.0000 0.73967  0.88233  0.47433  Biso   1.000  H
  H234     1.0000 0.11767  0.85733  0.47433  Biso   1.000  H
  H235     1.0000 0.57200  0.08800  0.95500  Biso   1.000  H
  H236     1.0000 0.90533  0.75467  0.62167  Biso   1.000  H
  H237     1.0000 0.23867  0.42133  0.28833  Biso   1.000  H
  H238     1.0000 0.91200  0.48400  0.95500  Biso   1.000  H
  H239     1.0000 0.51600  0.42800  0.95500  Biso   1.000  H
  H240     1.0000 0.24533  0.15067  0.62167  Biso   1.000  H
  H241     1.0000 0.84933  0.09467  0.62167  Biso   1.000  H
  H242     1.0000 0.57867  0.81733  0.28833  Biso   1.000  H
  H243     1.0000 0.18267  0.76133  0.28833  Biso   1.000  H
  H244     1.0000 0.42800  0.91200  0.04500  Biso   1.000  H
  H245     1.0000 0.76133  0.57867  0.71167  Biso   1.000  H
  H246     1.0000 0.09467  0.24533  0.37833  Biso   1.000  H
  H247     1.0000 0.08800  0.51600  0.04500  Biso   1.000  H
  H248     1.0000 0.48400  0.57200  0.04500  Biso   1.000  H
  H249     1.0000 0.42133  0.18267  0.71167  Biso   1.000  H
  H250     1.0000 0.81733  0.23867  0.71167  Biso   1.000  H
  H251     1.0000 0.75467  0.84933  0.37833  Biso   1.000  H
  H252     1.0000 0.15067  0.90533  0.37833  Biso   1.000  H
  H253     1.0000 0.52200  0.01700  0.92600  Biso   1.000  H
  H254     1.0000 0.85533  0.68367  0.59267  Biso   1.000  H
  H255     1.0000 0.18867  0.35033  0.25933  Biso   1.000  H
  H256     1.0000 0.98300  0.50500  0.92600  Biso   1.000  H
  H257     1.0000 0.49500  0.47800  0.92600  Biso   1.000  H
  H258     1.0000 0.31633  0.17167  0.59267  Biso   1.000  H
  H259     1.0000 0.82833  0.14467  0.59267  Biso   1.000  H
  H260     1.0000 0.64967  0.83833  0.25933  Biso   1.000  H
  H261     1.0000 0.16167  0.81133  0.25933  Biso   1.000  H
  H262     1.0000 0.47800  0.98300  0.07400  Biso   1.000  H
  H263     1.0000 0.81133  0.64967  0.74067  Biso   1.000  H
  H264     1.0000 0.14467  0.31633  0.40733  Biso   1.000  H
  H265     1.0000 0.01700  0.49500  0.07400  Biso   1.000  H
  H266     1.0000 0.50500  0.52200  0.07400  Biso   1.000  H
  H267     1.0000 0.35033  0.16167  0.74067  Biso   1.000  H
  H268     1.0000 0.83833  0.18867  0.74067  Biso   1.000  H
  H269     1.0000 0.68367  0.82833  0.40733  Biso   1.000  H
  H270     1.0000 0.17167  0.85533  0.40733  Biso   1.000  H
  O73      1.0000 0.59790  0.21050  0.14320  Biso   1.000  O
  O74      1.0000 0.93123  0.87717  0.80987  Biso   1.000  O
  O75      1.0000 0.26457  0.54383  0.47653  Biso   1.000  O
  O76      1.0000 0.78950  0.38740  0.14320  Biso   1.000  O
  O77      1.0000 0.61260  0.40210  0.14320  Biso   1.000  O
  O78      1.0000 0.12283  0.05407  0.80987  Biso   1.000  O
  O79      1.0000 0.94593  0.06877  0.80987  Biso   1.000  O
  O80      1.0000 0.45617  0.72073  0.47653  Biso   1.000  O
  O81      1.0000 0.27927  0.73543  0.47653  Biso   1.000  O
  O82      1.0000 0.40210  0.78950  0.85680  Biso   1.000  O
  O83      1.0000 0.73543  0.45617  0.52347  Biso   1.000  O
  O84      1.0000 0.06877  0.12283  0.19013  Biso   1.000  O
  O85      1.0000 0.21050  0.61260  0.85680  Biso   1.000  O
  O86      1.0000 0.38740  0.59790  0.85680  Biso   1.000  O
  O87      1.0000 0.54383  0.27927  0.52347  Biso   1.000  O
  O88      1.0000 0.72073  0.26457  0.52347  Biso   1.000  O
  O89      1.0000 0.87717  0.94593  0.19013  Biso   1.000  O
  O90      1.0000 0.05407  0.93123  0.19013  Biso   1.000  O
  O91      1.0000 0.57310  0.29690  0.99940  Biso   1.000  O
  O92      1.0000 0.90643  0.96357  0.66607  Biso   1.000  O
  O93      1.0000 0.23977  0.63023  0.33273  Biso   1.000  O
  O94      1.0000 0.70310  0.27620  0.99940  Biso   1.000  O
  O95      1.0000 0.72380  0.42690  0.99940  Biso   1.000  O
  O96      1.0000 0.03643  0.94287  0.66607  Biso   1.000  O
  O97      1.0000 0.05713  0.09357  0.66607  Biso   1.000  O
  O98      1.0000 0.36977  0.60953  0.33273  Biso   1.000  O
  O99      1.0000 0.39047  0.76023  0.33273  Biso   1.000  O
  O100     1.0000 0.42690  0.70310  0.00060  Biso   1.000  O
  O101     1.0000 0.76023  0.36977  0.66727  Biso   1.000  O
  O102     1.0000 0.09357  0.03643  0.33393  Biso   1.000  O
  O103     1.0000 0.29690  0.72380  0.00060  Biso   1.000  O
  O104     1.0000 0.27620  0.57310  0.00060  Biso   1.000  O
  O105     1.0000 0.63023  0.39047  0.66727  Biso   1.000  O
  O106     1.0000 0.60953  0.23977  0.66727  Biso   1.000  O
  O107     1.0000 0.96357  0.05713  0.33393  Biso   1.000  O
  O108     1.0000 0.94287  0.90643  0.33393  Biso   1.000  O
