data_image0
_cell_length_a       21.2779
_cell_length_b       16.476
_cell_length_c       24.9982
_cell_angle_alpha    90
_cell_angle_beta     90
_cell_angle_gamma    90

_symmetry_space_group_name_H-M    "P 1"
_symmetry_int_tables_number       1

loop_
  _symmetry_equiv_pos_as_xyz
  'x, y, z'

loop_
  _atom_site_label
  _atom_site_occupancy
  _atom_site_fract_x
  _atom_site_fract_y
  _atom_site_fract_z
  _atom_site_thermal_displace_type
  _atom_site_B_iso_or_equiv
  _atom_site_type_symbol
  Cu1      1.0000 0.16802  0.60720  0.04202  Biso   1.000  Cu
  Cu2      1.0000 0.33198  0.39280  0.54202  Biso   1.000  Cu
  Cu3      1.0000 0.83198  0.10720  0.45798  Biso   1.000  Cu
  Cu4      1.0000 0.66802  0.89280  0.95798  Biso   1.000  Cu
  Cu5      1.0000 0.83198  0.39280  0.95798  Biso   1.000  Cu
  Cu6      1.0000 0.66802  0.60720  0.45798  Biso   1.000  Cu
  Cu7      1.0000 0.16802  0.89280  0.54202  Biso   1.000  Cu
  Cu8      1.0000 0.33198  0.10720  0.04202  Biso   1.000  Cu
  Cu9      1.0000 0.24984  0.59924  0.16104  Biso   1.000  Cu
  Cu10     1.0000 0.25016  0.40076  0.66104  Biso   1.000  Cu
  Cu11     1.0000 0.75016  0.09924  0.33896  Biso   1.000  Cu
  Cu12     1.0000 0.74984  0.90076  0.83896  Biso   1.000  Cu
  Cu13     1.0000 0.75016  0.40076  0.83896  Biso   1.000  Cu
  Cu14     1.0000 0.74984  0.59924  0.33896  Biso   1.000  Cu
  Cu15     1.0000 0.24984  0.90076  0.66104  Biso   1.000  Cu
  Cu16     1.0000 0.25016  0.09924  0.16104  Biso   1.000  Cu
  Cu17     1.0000 0.25396  0.74848  0.08060  Biso   1.000  Cu
  Cu18     1.0000 0.24604  0.25152  0.58060  Biso   1.000  Cu
  Cu19     1.0000 0.74604  0.24848  0.41940  Biso   1.000  Cu
  Cu20     1.0000 0.75396  0.75152  0.91940  Biso   1.000  Cu
  Cu21     1.0000 0.74604  0.25152  0.91940  Biso   1.000  Cu
  Cu22     1.0000 0.75396  0.74848  0.41940  Biso   1.000  Cu
  Cu23     1.0000 0.25396  0.75152  0.58060  Biso   1.000  Cu
  Cu24     1.0000 0.24604  0.24848  0.08060  Biso   1.000  Cu
  Cu25     1.0000 0.03889  0.57664  0.97158  Biso   1.000  Cu
  Cu26     1.0000 0.46111  0.42336  0.47158  Biso   1.000  Cu
  Cu27     1.0000 0.96111  0.07664  0.52842  Biso   1.000  Cu
  Cu28     1.0000 0.53889  0.92336  0.02842  Biso   1.000  Cu
  Cu29     1.0000 0.96111  0.42336  0.02842  Biso   1.000  Cu
  Cu30     1.0000 0.53889  0.57664  0.52842  Biso   1.000  Cu
  Cu31     1.0000 0.03889  0.92336  0.47158  Biso   1.000  Cu
  Cu32     1.0000 0.46111  0.07664  0.97158  Biso   1.000  Cu
  Cu33     1.0000 0.17252  0.52788  0.92999  Biso   1.000  Cu
  Cu34     1.0000 0.32748  0.47212  0.42999  Biso   1.000  Cu
  Cu35     1.0000 0.82748  0.02788  0.57001  Biso   1.000  Cu
  Cu36     1.0000 0.67252  0.97212  0.07001  Biso   1.000  Cu
  Cu37     1.0000 0.82748  0.47212  0.07001  Biso   1.000  Cu
  Cu38     1.0000 0.67252  0.52788  0.57001  Biso   1.000  Cu
  Cu39     1.0000 0.17252  0.97212  0.42999  Biso   1.000  Cu
  Cu40     1.0000 0.32748  0.02788  0.92999  Biso   1.000  Cu
  O1       1.0000 0.14580  0.60270  0.19020  Biso   1.000  O
  O2       1.0000 0.35420  0.39730  0.69020  Biso   1.000  O
  O3       1.0000 0.85420  0.10270  0.30980  Biso   1.000  O
  O4       1.0000 0.64580  0.89730  0.80980  Biso   1.000  O
  O5       1.0000 0.85420  0.39730  0.80980  Biso   1.000  O
  O6       1.0000 0.64580  0.60270  0.30980  Biso   1.000  O
  O7       1.0000 0.14580  0.89730  0.69020  Biso   1.000  O
  O8       1.0000 0.35420  0.10270  0.19020  Biso   1.000  O
  O9       1.0000 0.20270  0.39160  0.90115  Biso   1.000  O
  O10      1.0000 0.29730  0.60840  0.40115  Biso   1.000  O
  O11      1.0000 0.79730  0.89160  0.59885  Biso   1.000  O
  O12      1.0000 0.70270  0.10840  0.09885  Biso   1.000  O
  O13      1.0000 0.79730  0.60840  0.09885  Biso   1.000  O
  O14      1.0000 0.70270  0.39160  0.59885  Biso   1.000  O
  O15      1.0000 0.20270  0.10840  0.40115  Biso   1.000  O
  O16      1.0000 0.29730  0.89160  0.90115  Biso   1.000  O
  C1       1.0000 0.31330  0.64760  0.25250  Biso   1.000  C
  C2       1.0000 0.18670  0.35240  0.75250  Biso   1.000  C
  C3       1.0000 0.68670  0.14760  0.24750  Biso   1.000  C
  C4       1.0000 0.81330  0.85240  0.74750  Biso   1.000  C
  C5       1.0000 0.68670  0.35240  0.74750  Biso   1.000  C
  C6       1.0000 0.81330  0.64760  0.24750  Biso   1.000  C
  C7       1.0000 0.31330  0.85240  0.75250  Biso   1.000  C
  C8       1.0000 0.18670  0.14760  0.25250  Biso   1.000  C
  C9       1.0000 0.35140  0.68750  0.20740  Biso   1.000  C
  C10      1.0000 0.14860  0.31250  0.70740  Biso   1.000  C
  C11      1.0000 0.64860  0.18750  0.29260  Biso   1.000  C
  C12      1.0000 0.85140  0.81250  0.79260  Biso   1.000  C
  C13      1.0000 0.64860  0.31250  0.79260  Biso   1.000  C
  C14      1.0000 0.85140  0.68750  0.29260  Biso   1.000  C
  C15      1.0000 0.35140  0.81250  0.70740  Biso   1.000  C
  C16      1.0000 0.14860  0.18750  0.20740  Biso   1.000  C
  H1       1.0000 0.38950  0.71230  0.22220  Biso   1.000  H
  H2       1.0000 0.11050  0.28770  0.72220  Biso   1.000  H
  H3       1.0000 0.61050  0.21230  0.27780  Biso   1.000  H
  H4       1.0000 0.88950  0.78770  0.77780  Biso   1.000  H
  H5       1.0000 0.61050  0.28770  0.77780  Biso   1.000  H
  H6       1.0000 0.88950  0.71230  0.27780  Biso   1.000  H
  H7       1.0000 0.38950  0.78770  0.72220  Biso   1.000  H
  H8       1.0000 0.11050  0.21230  0.22220  Biso   1.000  H
  C17      1.0000 0.31120  0.75200  0.18060  Biso   1.000  C
  C18      1.0000 0.18880  0.24800  0.68060  Biso   1.000  C
  C19      1.0000 0.68880  0.25200  0.31940  Biso   1.000  C
  C20      1.0000 0.81120  0.74800  0.81940  Biso   1.000  C
  C21      1.0000 0.68880  0.24800  0.81940  Biso   1.000  C
  C22      1.0000 0.81120  0.75200  0.31940  Biso   1.000  C
  C23      1.0000 0.31120  0.74800  0.68060  Biso   1.000  C
  C24      1.0000 0.18880  0.25200  0.18060  Biso   1.000  C
  H9       1.0000 0.29750  0.79110  0.20770  Biso   1.000  H
  H10      1.0000 0.20250  0.20890  0.70770  Biso   1.000  H
  H11      1.0000 0.70250  0.29110  0.29230  Biso   1.000  H
  H12      1.0000 0.79750  0.70890  0.79230  Biso   1.000  H
  H13      1.0000 0.70250  0.20890  0.79230  Biso   1.000  H
  H14      1.0000 0.79750  0.79110  0.29230  Biso   1.000  H
  H15      1.0000 0.29750  0.70890  0.70770  Biso   1.000  H
  H16      1.0000 0.20250  0.29110  0.20770  Biso   1.000  H
  C25      1.0000 0.35310  0.79570  0.13970  Biso   1.000  C
  C26      1.0000 0.14690  0.20430  0.63970  Biso   1.000  C
  C27      1.0000 0.64690  0.29570  0.36030  Biso   1.000  C
  C28      1.0000 0.85310  0.70430  0.86030  Biso   1.000  C
  C29      1.0000 0.64690  0.20430  0.86030  Biso   1.000  C
  C30      1.0000 0.85310  0.79570  0.36030  Biso   1.000  C
  C31      1.0000 0.35310  0.70430  0.63970  Biso   1.000  C
  C32      1.0000 0.14690  0.29570  0.13970  Biso   1.000  C
  O17      1.0000 0.27000  0.59920  0.23843  Biso   1.000  O
  O18      1.0000 0.23000  0.40080  0.73843  Biso   1.000  O
  O19      1.0000 0.73000  0.09920  0.26157  Biso   1.000  O
  O20      1.0000 0.77000  0.90080  0.76157  Biso   1.000  O
  O21      1.0000 0.73000  0.40080  0.76157  Biso   1.000  O
  O22      1.0000 0.77000  0.59920  0.26157  Biso   1.000  O
  O23      1.0000 0.27000  0.90080  0.73843  Biso   1.000  O
  O24      1.0000 0.23000  0.09920  0.23843  Biso   1.000  O
  O25      1.0000 0.32480  0.66670  0.29940  Biso   1.000  O
  O26      1.0000 0.17520  0.33330  0.79940  Biso   1.000  O
  O27      1.0000 0.67520  0.16670  0.20060  Biso   1.000  O
  O28      1.0000 0.82480  0.83330  0.70060  Biso   1.000  O
  O29      1.0000 0.67520  0.33330  0.70060  Biso   1.000  O
  O30      1.0000 0.82480  0.66670  0.20060  Biso   1.000  O
  O31      1.0000 0.32480  0.83330  0.79940  Biso   1.000  O
  O32      1.0000 0.17520  0.16670  0.29940  Biso   1.000  O
  O33      1.0000 0.36790  0.62880  0.16874  Biso   1.000  O
  O34      1.0000 0.13210  0.37120  0.66874  Biso   1.000  O
  O35      1.0000 0.63210  0.12880  0.33126  Biso   1.000  O
  O36      1.0000 0.86790  0.87120  0.83126  Biso   1.000  O
  O37      1.0000 0.63210  0.37120  0.83126  Biso   1.000  O
  O38      1.0000 0.86790  0.62880  0.33126  Biso   1.000  O
  O39      1.0000 0.36790  0.87120  0.66874  Biso   1.000  O
  O40      1.0000 0.13210  0.12880  0.16874  Biso   1.000  O
  O41      1.0000 0.25743  0.71790  0.15563  Biso   1.000  O
  O42      1.0000 0.24257  0.28210  0.65563  Biso   1.000  O
  O43      1.0000 0.74257  0.21790  0.34437  Biso   1.000  O
  O44      1.0000 0.75743  0.78210  0.84437  Biso   1.000  O
  O45      1.0000 0.74257  0.28210  0.84437  Biso   1.000  O
  O46      1.0000 0.75743  0.71790  0.34437  Biso   1.000  O
  O47      1.0000 0.25743  0.78210  0.65563  Biso   1.000  O
  O48      1.0000 0.24257  0.21790  0.15563  Biso   1.000  O
  O49      1.0000 0.33942  0.78800  0.09058  Biso   1.000  O
  O50      1.0000 0.16058  0.21200  0.59058  Biso   1.000  O
  O51      1.0000 0.66058  0.28800  0.40942  Biso   1.000  O
  O52      1.0000 0.83942  0.71200  0.90942  Biso   1.000  O
  O53      1.0000 0.66058  0.21200  0.90942  Biso   1.000  O
  O54      1.0000 0.83942  0.78800  0.40942  Biso   1.000  O
  O55      1.0000 0.33942  0.71200  0.59058  Biso   1.000  O
  O56      1.0000 0.16058  0.28800  0.09058  Biso   1.000  O
  O57      1.0000 0.39850  0.83490  0.15697  Biso   1.000  O
  O58      1.0000 0.10150  0.16510  0.65697  Biso   1.000  O
  O59      1.0000 0.60150  0.33490  0.34303  Biso   1.000  O
  O60      1.0000 0.89850  0.66510  0.84303  Biso   1.000  O
  O61      1.0000 0.60150  0.16510  0.84303  Biso   1.000  O
  O62      1.0000 0.89850  0.83490  0.34303  Biso   1.000  O
  O63      1.0000 0.39850  0.66510  0.65697  Biso   1.000  O
  O64      1.0000 0.10150  0.33490  0.15697  Biso   1.000  O
  C33      1.0000 0.20210  0.78620  0.98500  Biso   1.000  C
  C34      1.0000 0.29790  0.21380  0.48500  Biso   1.000  C
  C35      1.0000 0.79790  0.28620  0.51500  Biso   1.000  C
  C36      1.0000 0.70210  0.71380  0.01500  Biso   1.000  C
  C37      1.0000 0.79790  0.21380  0.01500  Biso   1.000  C
  C38      1.0000 0.70210  0.78620  0.51500  Biso   1.000  C
  C39      1.0000 0.20210  0.71380  0.48500  Biso   1.000  C
  C40      1.0000 0.29790  0.28620  0.98500  Biso   1.000  C
  C41      1.0000 0.14610  0.76700  0.02140  Biso   1.000  C
  C42      1.0000 0.35390  0.23300  0.52140  Biso   1.000  C
  C43      1.0000 0.85390  0.26700  0.47860  Biso   1.000  C
  C44      1.0000 0.64610  0.73300  0.97860  Biso   1.000  C
  C45      1.0000 0.85390  0.23300  0.97860  Biso   1.000  C
  C46      1.0000 0.64610  0.76700  0.47860  Biso   1.000  C
  C47      1.0000 0.14610  0.73300  0.52140  Biso   1.000  C
  C48      1.0000 0.35390  0.26700  0.02140  Biso   1.000  C
  H17      1.0000 0.12860  0.81820  0.03460  Biso   1.000  H
  H18      1.0000 0.37140  0.18180  0.53460  Biso   1.000  H
  H19      1.0000 0.87140  0.31820  0.46540  Biso   1.000  H
  H20      1.0000 0.62860  0.68180  0.96540  Biso   1.000  H
  H21      1.0000 0.87140  0.18180  0.96540  Biso   1.000  H
  H22      1.0000 0.62860  0.81820  0.46540  Biso   1.000  H
  H23      1.0000 0.12860  0.68180  0.53460  Biso   1.000  H
  H24      1.0000 0.37140  0.31820  0.03460  Biso   1.000  H
  C49      1.0000 0.09540  0.72210  0.99150  Biso   1.000  C
  C50      1.0000 0.40460  0.27790  0.49150  Biso   1.000  C
  C51      1.0000 0.90460  0.22210  0.50850  Biso   1.000  C
  C52      1.0000 0.59540  0.77790  0.00850  Biso   1.000  C
  C53      1.0000 0.90460  0.27790  0.00850  Biso   1.000  C
  C54      1.0000 0.59540  0.72210  0.50850  Biso   1.000  C
  C55      1.0000 0.09540  0.77790  0.49150  Biso   1.000  C
  C56      1.0000 0.40460  0.22210  0.99150  Biso   1.000  C
  H25      1.0000 0.09070  0.74770  0.95630  Biso   1.000  H
  H26      1.0000 0.40930  0.25230  0.45630  Biso   1.000  H
  H27      1.0000 0.90930  0.24770  0.54370  Biso   1.000  H
  H28      1.0000 0.59070  0.75230  0.04370  Biso   1.000  H
  H29      1.0000 0.90930  0.25230  0.04370  Biso   1.000  H
  H30      1.0000 0.59070  0.74770  0.54370  Biso   1.000  H
  H31      1.0000 0.09070  0.75230  0.45630  Biso   1.000  H
  H32      1.0000 0.40930  0.24770  0.95630  Biso   1.000  H
  C57      1.0000 0.03230  0.72410  0.01890  Biso   1.000  C
  C58      1.0000 0.46770  0.27590  0.51890  Biso   1.000  C
  C59      1.0000 0.96770  0.22410  0.48110  Biso   1.000  C
  C60      1.0000 0.53230  0.77590  0.98110  Biso   1.000  C
  C61      1.0000 0.96770  0.27590  0.98110  Biso   1.000  C
  C62      1.0000 0.53230  0.72410  0.48110  Biso   1.000  C
  C63      1.0000 0.03230  0.77590  0.51890  Biso   1.000  C
  C64      1.0000 0.46770  0.22410  0.01890  Biso   1.000  C
  O65      1.0000 0.25655  0.77510  0.00515  Biso   1.000  O
  O66      1.0000 0.24345  0.22490  0.50515  Biso   1.000  O
  O67      1.0000 0.74345  0.27510  0.49485  Biso   1.000  O
  O68      1.0000 0.75655  0.72490  0.99485  Biso   1.000  O
  O69      1.0000 0.74345  0.22490  0.99485  Biso   1.000  O
  O70      1.0000 0.75655  0.77510  0.49485  Biso   1.000  O
  O71      1.0000 0.25655  0.72490  0.50515  Biso   1.000  O
  O72      1.0000 0.24345  0.27510  0.00515  Biso   1.000  O
  O73      1.0000 0.19290  0.81410  0.94012  Biso   1.000  O
  O74      1.0000 0.30710  0.18590  0.44012  Biso   1.000  O
  O75      1.0000 0.80710  0.31410  0.55988  Biso   1.000  O
  O76      1.0000 0.69290  0.68590  0.05988  Biso   1.000  O
  O77      1.0000 0.80710  0.18590  0.05988  Biso   1.000  O
  O78      1.0000 0.69290  0.81410  0.55988  Biso   1.000  O
  O79      1.0000 0.19290  0.68590  0.44012  Biso   1.000  O
  O80      1.0000 0.30710  0.31410  0.94012  Biso   1.000  O
  O81      1.0000 0.16609  0.72020  0.06616  Biso   1.000  O
  O82      1.0000 0.33391  0.27980  0.56616  Biso   1.000  O
  O83      1.0000 0.83391  0.22020  0.43384  Biso   1.000  O
  O84      1.0000 0.66609  0.77980  0.93384  Biso   1.000  O
  O85      1.0000 0.83391  0.27980  0.93384  Biso   1.000  O
  O86      1.0000 0.66609  0.72020  0.43384  Biso   1.000  O
  O87      1.0000 0.16609  0.77980  0.56616  Biso   1.000  O
  O88      1.0000 0.33391  0.22020  0.06616  Biso   1.000  O
  O89      1.0000 0.11419  0.64050  0.98326  Biso   1.000  O
  O90      1.0000 0.38581  0.35950  0.48326  Biso   1.000  O
  O91      1.0000 0.88581  0.14050  0.51674  Biso   1.000  O
  O92      1.0000 0.61419  0.85950  0.01674  Biso   1.000  O
  O93      1.0000 0.88581  0.35950  0.01674  Biso   1.000  O
  O94      1.0000 0.61419  0.64050  0.51674  Biso   1.000  O
  O95      1.0000 0.11419  0.85950  0.48326  Biso   1.000  O
  O96      1.0000 0.38581  0.14050  0.98326  Biso   1.000  O
  O97      1.0000 0.01580  0.78510  0.04440  Biso   1.000  O
  O98      1.0000 0.48420  0.21490  0.54440  Biso   1.000  O
  O99      1.0000 0.98420  0.28510  0.45560  Biso   1.000  O
  O100     1.0000 0.51580  0.71490  0.95560  Biso   1.000  O
  O101     1.0000 0.98420  0.21490  0.95560  Biso   1.000  O
  O102     1.0000 0.51580  0.78510  0.45560  Biso   1.000  O
  O103     1.0000 0.01580  0.71490  0.54440  Biso   1.000  O
  O104     1.0000 0.48420  0.28510  0.04440  Biso   1.000  O
  O105     1.0000 0.99781  0.66150  0.01260  Biso   1.000  O
  O106     1.0000 0.50219  0.33850  0.51260  Biso   1.000  O
  O107     1.0000 0.00219  0.16150  0.48740  Biso   1.000  O
  O108     1.0000 0.49781  0.83850  0.98740  Biso   1.000  O
  O109     1.0000 0.00219  0.33850  0.98740  Biso   1.000  O
  O110     1.0000 0.49781  0.66150  0.48740  Biso   1.000  O
  O111     1.0000 0.99781  0.83850  0.51260  Biso   1.000  O
  O112     1.0000 0.50219  0.16150  0.01260  Biso   1.000  O
  C65      1.0000 0.29080  0.54250  0.96850  Biso   1.000  C
  C66      1.0000 0.20920  0.45750  0.46850  Biso   1.000  C
  C67      1.0000 0.70920  0.04250  0.53150  Biso   1.000  C
  C68      1.0000 0.79080  0.95750  0.03150  Biso   1.000  C
  C69      1.0000 0.70920  0.45750  0.03150  Biso   1.000  C
  C70      1.0000 0.79080  0.54250  0.53150  Biso   1.000  C
  C71      1.0000 0.29080  0.95750  0.46850  Biso   1.000  C
  C72      1.0000 0.20920  0.04250  0.96850  Biso   1.000  C
  C73      1.0000 0.25580  0.49590  0.01200  Biso   1.000  C
  C74      1.0000 0.24420  0.50410  0.51200  Biso   1.000  C
  C75      1.0000 0.74420  0.99590  0.48800  Biso   1.000  C
  C76      1.0000 0.75580  0.00410  0.98800  Biso   1.000  C
  C77      1.0000 0.74420  0.50410  0.98800  Biso   1.000  C
  C78      1.0000 0.75580  0.49590  0.48800  Biso   1.000  C
  C79      1.0000 0.25580  0.00410  0.51200  Biso   1.000  C
  C80      1.0000 0.24420  0.99590  0.01200  Biso   1.000  C
  H33      1.0000 0.26550  0.43810  0.00770  Biso   1.000  H
  H34      1.0000 0.23450  0.56190  0.50770  Biso   1.000  H
  H35      1.0000 0.73450  0.93810  0.49230  Biso   1.000  H
  H36      1.0000 0.76550  0.06190  0.99230  Biso   1.000  H
  H37      1.0000 0.73450  0.56190  0.99230  Biso   1.000  H
  H38      1.0000 0.76550  0.43810  0.49230  Biso   1.000  H
  H39      1.0000 0.26550  0.06190  0.50770  Biso   1.000  H
  H40      1.0000 0.23450  0.93810  0.00770  Biso   1.000  H
  C81      1.0000 0.27660  0.52130  0.06770  Biso   1.000  C
  C82      1.0000 0.22340  0.47870  0.56770  Biso   1.000  C
  C83      1.0000 0.72340  0.02130  0.43230  Biso   1.000  C
  C84      1.0000 0.77660  0.97870  0.93230  Biso   1.000  C
  C85      1.0000 0.72340  0.47870  0.93230  Biso   1.000  C
  C86      1.0000 0.77660  0.52130  0.43230  Biso   1.000  C
  C87      1.0000 0.27660  0.97870  0.56770  Biso   1.000  C
  C88      1.0000 0.22340  0.02130  0.06770  Biso   1.000  C
  H41      1.0000 0.32130  0.53550  0.06560  Biso   1.000  H
  H42      1.0000 0.17870  0.46450  0.56560  Biso   1.000  H
  H43      1.0000 0.67870  0.03550  0.43440  Biso   1.000  H
  H44      1.0000 0.82130  0.96450  0.93440  Biso   1.000  H
  H45      1.0000 0.67870  0.46450  0.93440  Biso   1.000  H
  H46      1.0000 0.82130  0.53550  0.43440  Biso   1.000  H
  H47      1.0000 0.32130  0.96450  0.56560  Biso   1.000  H
  H48      1.0000 0.17870  0.03550  0.06560  Biso   1.000  H
  C89      1.0000 0.26960  0.45540  0.11020  Biso   1.000  C
  C90      1.0000 0.23040  0.54460  0.61020  Biso   1.000  C
  C91      1.0000 0.73040  0.95540  0.38980  Biso   1.000  C
  C92      1.0000 0.76960  0.04460  0.88980  Biso   1.000  C
  C93      1.0000 0.73040  0.54460  0.88980  Biso   1.000  C
  C94      1.0000 0.76960  0.45540  0.38980  Biso   1.000  C
  C95      1.0000 0.26960  0.04460  0.61020  Biso   1.000  C
  C96      1.0000 0.23040  0.95540  0.11020  Biso   1.000  C
  O113     1.0000 0.34840  0.55220  0.97180  Biso   1.000  O
  O114     1.0000 0.15160  0.44780  0.47180  Biso   1.000  O
  O115     1.0000 0.65160  0.05220  0.52820  Biso   1.000  O
  O116     1.0000 0.84840  0.94780  0.02820  Biso   1.000  O
  O117     1.0000 0.65160  0.44780  0.02820  Biso   1.000  O
  O118     1.0000 0.84840  0.55220  0.52820  Biso   1.000  O
  O119     1.0000 0.34840  0.94780  0.47180  Biso   1.000  O
  O120     1.0000 0.15160  0.05220  0.97180  Biso   1.000  O
  O121     1.0000 0.25855  0.56690  0.92873  Biso   1.000  O
  O122     1.0000 0.24145  0.43310  0.42873  Biso   1.000  O
  O123     1.0000 0.74145  0.06690  0.57127  Biso   1.000  O
  O124     1.0000 0.75855  0.93310  0.07127  Biso   1.000  O
  O125     1.0000 0.74145  0.43310  0.07127  Biso   1.000  O
  O126     1.0000 0.75855  0.56690  0.57127  Biso   1.000  O
  O127     1.0000 0.25855  0.93310  0.42873  Biso   1.000  O
  O128     1.0000 0.24145  0.06690  0.92873  Biso   1.000  O
  O129     1.0000 0.19014  0.50590  0.00537  Biso   1.000  O
  O130     1.0000 0.30986  0.49410  0.50537  Biso   1.000  O
  O131     1.0000 0.80986  0.00590  0.49463  Biso   1.000  O
  O132     1.0000 0.69014  0.99410  0.99463  Biso   1.000  O
  O133     1.0000 0.80986  0.49410  0.99463  Biso   1.000  O
  O134     1.0000 0.69014  0.50590  0.49463  Biso   1.000  O
  O135     1.0000 0.19014  0.99410  0.50537  Biso   1.000  O
  O136     1.0000 0.30986  0.00590  0.00537  Biso   1.000  O
  O137     1.0000 0.24352  0.59200  0.08355  Biso   1.000  O
  O138     1.0000 0.25648  0.40800  0.58355  Biso   1.000  O
  O139     1.0000 0.75648  0.09200  0.41645  Biso   1.000  O
  O140     1.0000 0.74352  0.90800  0.91645  Biso   1.000  O
  O141     1.0000 0.75648  0.40800  0.91645  Biso   1.000  O
  O142     1.0000 0.74352  0.59200  0.41645  Biso   1.000  O
  O143     1.0000 0.24352  0.90800  0.58355  Biso   1.000  O
  O144     1.0000 0.25648  0.09200  0.08355  Biso   1.000  O
  O145     1.0000 0.25300  0.48090  0.15662  Biso   1.000  O
  O146     1.0000 0.24700  0.51910  0.65662  Biso   1.000  O
  O147     1.0000 0.74700  0.98090  0.34338  Biso   1.000  O
  O148     1.0000 0.75300  0.01910  0.84338  Biso   1.000  O
  O149     1.0000 0.74700  0.51910  0.84338  Biso   1.000  O
  O150     1.0000 0.75300  0.48090  0.34338  Biso   1.000  O
  O151     1.0000 0.25300  0.01910  0.65662  Biso   1.000  O
  O152     1.0000 0.24700  0.98090  0.15662  Biso   1.000  O
  O153     1.0000 0.28420  0.38450  0.10000  Biso   1.000  O
  O154     1.0000 0.21580  0.61550  0.60000  Biso   1.000  O
  O155     1.0000 0.71580  0.88450  0.40000  Biso   1.000  O
  O156     1.0000 0.78420  0.11550  0.90000  Biso   1.000  O
  O157     1.0000 0.71580  0.61550  0.90000  Biso   1.000  O
  O158     1.0000 0.78420  0.38450  0.40000  Biso   1.000  O
  O159     1.0000 0.28420  0.11550  0.60000  Biso   1.000  O
  O160     1.0000 0.21580  0.88450  0.10000  Biso   1.000  O
  C97      1.0000 0.10810  0.52190  0.83670  Biso   1.000  C
  C98      1.0000 0.39190  0.47810  0.33670  Biso   1.000  C
  C99      1.0000 0.89190  0.02190  0.66330  Biso   1.000  C
  C100     1.0000 0.60810  0.97810  0.16330  Biso   1.000  C
  C101     1.0000 0.89190  0.47810  0.16330  Biso   1.000  C
  C102     1.0000 0.60810  0.52190  0.66330  Biso   1.000  C
  C103     1.0000 0.10810  0.97810  0.33670  Biso   1.000  C
  C104     1.0000 0.39190  0.02190  0.83670  Biso   1.000  C
  C105     1.0000 0.06300  0.48390  0.87680  Biso   1.000  C
  C106     1.0000 0.43700  0.51610  0.37680  Biso   1.000  C
  C107     1.0000 0.93700  0.98390  0.62320  Biso   1.000  C
  C108     1.0000 0.56300  0.01610  0.12320  Biso   1.000  C
  C109     1.0000 0.93700  0.51610  0.12320  Biso   1.000  C
  C110     1.0000 0.56300  0.48390  0.62320  Biso   1.000  C
  C111     1.0000 0.06300  0.01610  0.37680  Biso   1.000  C
  C112     1.0000 0.43700  0.98390  0.87680  Biso   1.000  C
  H49      1.0000 0.06000  0.42550  0.86980  Biso   1.000  H
  H50      1.0000 0.44000  0.57450  0.36980  Biso   1.000  H
  H51      1.0000 0.94000  0.92550  0.63020  Biso   1.000  H
  H52      1.0000 0.56000  0.07450  0.13020  Biso   1.000  H
  H53      1.0000 0.94000  0.57450  0.13020  Biso   1.000  H
  H54      1.0000 0.56000  0.42550  0.63020  Biso   1.000  H
  H55      1.0000 0.06000  0.07450  0.36980  Biso   1.000  H
  H56      1.0000 0.44000  0.92550  0.86980  Biso   1.000  H
  C113     1.0000 0.99780  0.52270  0.86930  Biso   1.000  C
  C114     1.0000 0.50220  0.47730  0.36930  Biso   1.000  C
  C115     1.0000 0.00220  0.02270  0.63070  Biso   1.000  C
  C116     1.0000 0.49780  0.97730  0.13070  Biso   1.000  C
  C117     1.0000 0.00220  0.47730  0.13070  Biso   1.000  C
  C118     1.0000 0.49780  0.52270  0.63070  Biso   1.000  C
  C119     1.0000 0.99780  0.97730  0.36930  Biso   1.000  C
  C120     1.0000 0.50220  0.02270  0.86930  Biso   1.000  C
  H57      1.0000 0.98170  0.51200  0.83330  Biso   1.000  H
  H58      1.0000 0.51830  0.48800  0.33330  Biso   1.000  H
  H59      1.0000 0.01830  0.01200  0.66670  Biso   1.000  H
  H60      1.0000 0.48170  0.98800  0.16670  Biso   1.000  H
  H61      1.0000 0.01830  0.48800  0.16670  Biso   1.000  H
  H62      1.0000 0.48170  0.51200  0.66670  Biso   1.000  H
  H63      1.0000 0.98170  0.98800  0.33330  Biso   1.000  H
  H64      1.0000 0.51830  0.01200  0.83330  Biso   1.000  H
  C121     1.0000 0.95210  0.48950  0.91220  Biso   1.000  C
  C122     1.0000 0.54790  0.51050  0.41220  Biso   1.000  C
  C123     1.0000 0.04790  0.98950  0.58780  Biso   1.000  C
  C124     1.0000 0.45210  0.01050  0.08780  Biso   1.000  C
  C125     1.0000 0.04790  0.51050  0.08780  Biso   1.000  C
  C126     1.0000 0.45210  0.48950  0.58780  Biso   1.000  C
  C127     1.0000 0.95210  0.01050  0.41220  Biso   1.000  C
  C128     1.0000 0.54790  0.98950  0.91220  Biso   1.000  C
  O161     1.0000 0.15833  0.55320  0.85519  Biso   1.000  O
  O162     1.0000 0.34167  0.44680  0.35519  Biso   1.000  O
  O163     1.0000 0.84167  0.05320  0.64481  Biso   1.000  O
  O164     1.0000 0.65833  0.94680  0.14481  Biso   1.000  O
  O165     1.0000 0.84167  0.44680  0.14481  Biso   1.000  O
  O166     1.0000 0.65833  0.55320  0.64481  Biso   1.000  O
  O167     1.0000 0.15833  0.94680  0.35519  Biso   1.000  O
  O168     1.0000 0.34167  0.05320  0.85519  Biso   1.000  O
  O169     1.0000 0.09460  0.52110  0.78834  Biso   1.000  O
  O170     1.0000 0.40540  0.47890  0.28834  Biso   1.000  O
  O171     1.0000 0.90540  0.02110  0.71166  Biso   1.000  O
  O172     1.0000 0.59460  0.97890  0.21166  Biso   1.000  O
  O173     1.0000 0.90540  0.47890  0.21166  Biso   1.000  O
  O174     1.0000 0.59460  0.52110  0.71166  Biso   1.000  O
  O175     1.0000 0.09460  0.97890  0.28834  Biso   1.000  O
  O176     1.0000 0.40540  0.02110  0.78834  Biso   1.000  O
  O177     1.0000 0.08501  0.49600  0.92969  Biso   1.000  O
  O178     1.0000 0.41499  0.50400  0.42969  Biso   1.000  O
  O179     1.0000 0.91499  0.99600  0.57031  Biso   1.000  O
  O180     1.0000 0.58501  0.00400  0.07031  Biso   1.000  O
  O181     1.0000 0.91499  0.50400  0.07031  Biso   1.000  O
  O182     1.0000 0.58501  0.49600  0.57031  Biso   1.000  O
  O183     1.0000 0.08501  0.00400  0.42969  Biso   1.000  O
  O184     1.0000 0.41499  0.99600  0.92969  Biso   1.000  O
  O185     1.0000 0.00698  0.60700  0.87728  Biso   1.000  O
  O186     1.0000 0.49302  0.39300  0.37728  Biso   1.000  O
  O187     1.0000 0.99302  0.10700  0.62272  Biso   1.000  O
  O188     1.0000 0.50698  0.89300  0.12272  Biso   1.000  O
  O189     1.0000 0.99302  0.39300  0.12272  Biso   1.000  O
  O190     1.0000 0.50698  0.60700  0.62272  Biso   1.000  O
  O191     1.0000 0.00698  0.89300  0.37728  Biso   1.000  O
  O192     1.0000 0.49302  0.10700  0.87728  Biso   1.000  O
  O193     1.0000 0.91369  0.43600  0.90036  Biso   1.000  O
  O194     1.0000 0.58631  0.56400  0.40036  Biso   1.000  O
  O195     1.0000 0.08631  0.93600  0.59964  Biso   1.000  O
  O196     1.0000 0.41369  0.06400  0.09964  Biso   1.000  O
  O197     1.0000 0.08631  0.56400  0.09964  Biso   1.000  O
  O198     1.0000 0.41369  0.43600  0.59964  Biso   1.000  O
  O199     1.0000 0.91369  0.06400  0.40036  Biso   1.000  O
  O200     1.0000 0.58631  0.93600  0.90036  Biso   1.000  O
  O201     1.0000 0.95802  0.51920  0.95830  Biso   1.000  O
  O202     1.0000 0.54198  0.48080  0.45830  Biso   1.000  O
  O203     1.0000 0.04198  0.01920  0.54170  Biso   1.000  O
  O204     1.0000 0.45802  0.98080  0.04170  Biso   1.000  O
  O205     1.0000 0.04198  0.48080  0.04170  Biso   1.000  O
  O206     1.0000 0.45802  0.51920  0.54170  Biso   1.000  O
  O207     1.0000 0.95802  0.98080  0.45830  Biso   1.000  O
  O208     1.0000 0.54198  0.01920  0.95830  Biso   1.000  O
  O209     1.0000 0.04870  0.91000  0.11250  Biso   1.000  O
  O210     1.0000 0.45130  0.09000  0.61250  Biso   1.000  O
  O211     1.0000 0.95130  0.41000  0.38750  Biso   1.000  O
  O212     1.0000 0.54870  0.59000  0.88750  Biso   1.000  O
  O213     1.0000 0.95130  0.09000  0.88750  Biso   1.000  O
  O214     1.0000 0.54870  0.91000  0.38750  Biso   1.000  O
  O215     1.0000 0.04870  0.59000  0.61250  Biso   1.000  O
  O216     1.0000 0.45130  0.41000  0.11250  Biso   1.000  O
  O217     1.0000 0.16140  0.72400  0.25920  Biso   1.000  O
  O218     1.0000 0.33860  0.27600  0.75920  Biso   1.000  O
  O219     1.0000 0.83860  0.22400  0.24080  Biso   1.000  O
  O220     1.0000 0.66140  0.77600  0.74080  Biso   1.000  O
  O221     1.0000 0.83860  0.27600  0.74080  Biso   1.000  O
  O222     1.0000 0.66140  0.72400  0.24080  Biso   1.000  O
  O223     1.0000 0.16140  0.77600  0.75920  Biso   1.000  O
  O224     1.0000 0.33860  0.22400  0.25920  Biso   1.000  O
  O225     1.0000 0.19930  0.89120  0.23980  Biso   1.000  O
  O226     1.0000 0.30070  0.10880  0.73980  Biso   1.000  O
  O227     1.0000 0.80070  0.39120  0.26020  Biso   1.000  O
  O228     1.0000 0.69930  0.60880  0.76020  Biso   1.000  O
  O229     1.0000 0.80070  0.10880  0.76020  Biso   1.000  O
  O230     1.0000 0.69930  0.89120  0.26020  Biso   1.000  O
  O231     1.0000 0.19930  0.60880  0.73980  Biso   1.000  O
  O232     1.0000 0.30070  0.39120  0.23980  Biso   1.000  O
  O233     1.0000 0.39080  0.70940  0.94200  Biso   1.000  O
  O234     1.0000 0.10920  0.29060  0.44200  Biso   1.000  O
  O235     1.0000 0.60920  0.20940  0.55800  Biso   1.000  O
  O236     1.0000 0.89080  0.79060  0.05800  Biso   1.000  O
  O237     1.0000 0.60920  0.29060  0.05800  Biso   1.000  O
  O238     1.0000 0.89080  0.70940  0.55800  Biso   1.000  O
  O239     1.0000 0.39080  0.79060  0.44200  Biso   1.000  O
  O240     1.0000 0.10920  0.20940  0.94200  Biso   1.000  O
  O241     1.0000 0.12500  0.44110  0.24170  Biso   1.000  O
  O242     1.0000 0.37500  0.55890  0.74170  Biso   1.000  O
  O243     1.0000 0.87500  0.94110  0.25830  Biso   1.000  O
  O244     1.0000 0.62500  0.05890  0.75830  Biso   1.000  O
  O245     1.0000 0.87500  0.55890  0.75830  Biso   1.000  O
  O246     1.0000 0.62500  0.44110  0.25830  Biso   1.000  O
  O247     1.0000 0.12500  0.05890  0.74170  Biso   1.000  O
  O248     1.0000 0.37500  0.94110  0.24170  Biso   1.000  O
  O249     1.0000 0.02580  0.70520  0.16200  Biso   1.000  O
  O250     1.0000 0.47420  0.29480  0.66200  Biso   1.000  O
  O251     1.0000 0.97420  0.20520  0.33800  Biso   1.000  O
  O252     1.0000 0.52580  0.79480  0.83800  Biso   1.000  O
  O253     1.0000 0.97420  0.29480  0.83800  Biso   1.000  O
  O254     1.0000 0.52580  0.70520  0.33800  Biso   1.000  O
  O255     1.0000 0.02580  0.79480  0.66200  Biso   1.000  O
  O256     1.0000 0.47420  0.20520  0.16200  Biso   1.000  O
  K1       1.0000 0.37273  0.85832  0.99474  Biso   1.000  K
  K2       1.0000 0.12727  0.14168  0.49474  Biso   1.000  K
  K3       1.0000 0.62727  0.35832  0.50526  Biso   1.000  K
  K4       1.0000 0.87273  0.64168  0.00526  Biso   1.000  K
  K5       1.0000 0.62727  0.14168  0.00526  Biso   1.000  K
  K6       1.0000 0.87273  0.85832  0.50526  Biso   1.000  K
  K7       1.0000 0.37273  0.64168  0.49474  Biso   1.000  K
  K8       1.0000 0.12727  0.35832  0.99474  Biso   1.000  K
  K9       1.0000 0.13510  0.79137  0.16501  Biso   1.000  K
  K10      1.0000 0.36490  0.20863  0.66501  Biso   1.000  K
  K11      1.0000 0.86490  0.29137  0.33499  Biso   1.000  K
  K12      1.0000 0.63510  0.70863  0.83499  Biso   1.000  K
  K13      1.0000 0.86490  0.20863  0.83499  Biso   1.000  K
  K14      1.0000 0.63510  0.79137  0.33499  Biso   1.000  K
  K15      1.0000 0.13510  0.70863  0.66501  Biso   1.000  K
  K16      1.0000 0.36490  0.29137  0.16501  Biso   1.000  K
  K17      1.0000 0.22296  0.47770  0.31383  Biso   1.000  K
  K18      1.0000 0.27704  0.52230  0.81383  Biso   1.000  K
  K19      1.0000 0.77704  0.97770  0.18617  Biso   1.000  K
  K20      1.0000 0.72296  0.02230  0.68617  Biso   1.000  K
  K21      1.0000 0.77704  0.52230  0.68617  Biso   1.000  K
  K22      1.0000 0.72296  0.47770  0.18617  Biso   1.000  K
  K23      1.0000 0.22296  0.02230  0.81383  Biso   1.000  K
  K24      1.0000 0.27704  0.97770  0.31383  Biso   1.000  K
  O257     1.0000 0.03220  0.41080  0.30720  Biso   1.000  O
  O258     1.0000 0.46780  0.58920  0.80720  Biso   1.000  O
  O259     1.0000 0.96780  0.91080  0.19280  Biso   1.000  O
  O260     1.0000 0.53220  0.08920  0.69280  Biso   1.000  O
  O261     1.0000 0.96780  0.58920  0.69280  Biso   1.000  O
  O262     1.0000 0.53220  0.41080  0.19280  Biso   1.000  O
  O263     1.0000 0.03220  0.08920  0.80720  Biso   1.000  O
  O264     1.0000 0.46780  0.91080  0.30720  Biso   1.000  O
  O265     1.0000 0.08680  0.27370  0.33680  Biso   1.000  O
  O266     1.0000 0.41320  0.72630  0.83680  Biso   1.000  O
  O267     1.0000 0.91320  0.77370  0.16320  Biso   1.000  O
  O268     1.0000 0.58680  0.22630  0.66320  Biso   1.000  O
  O269     1.0000 0.91320  0.72630  0.66320  Biso   1.000  O
  O270     1.0000 0.58680  0.27370  0.16320  Biso   1.000  O
  O271     1.0000 0.08680  0.22630  0.83680  Biso   1.000  O
  O272     1.0000 0.41320  0.77370  0.33680  Biso   1.000  O
  O273     1.0000 0.03620  0.05200  0.21470  Biso   1.000  O
  O274     1.0000 0.46380  0.94800  0.71470  Biso   1.000  O
  O275     1.0000 0.96380  0.55200  0.28530  Biso   1.000  O
  O276     1.0000 0.53620  0.44800  0.78530  Biso   1.000  O
  O277     1.0000 0.96380  0.94800  0.78530  Biso   1.000  O
  O278     1.0000 0.53620  0.05200  0.28530  Biso   1.000  O
  O279     1.0000 0.03620  0.44800  0.71470  Biso   1.000  O
  O280     1.0000 0.46380  0.55200  0.21470  Biso   1.000  O
  O281     1.0000 0.96070  0.67120  0.41290  Biso   1.000  O
  O282     1.0000 0.53930  0.32880  0.91290  Biso   1.000  O
  O283     1.0000 0.03930  0.17120  0.08710  Biso   1.000  O
  O284     1.0000 0.46070  0.82880  0.58710  Biso   1.000  O
  O285     1.0000 0.03930  0.32880  0.58710  Biso   1.000  O
  O286     1.0000 0.46070  0.67120  0.08710  Biso   1.000  O
  O287     1.0000 0.96070  0.82880  0.91290  Biso   1.000  O
  O288     1.0000 0.53930  0.17120  0.41290  Biso   1.000  O
  O289     1.0000 0.05000  0.01380  0.03330  Biso   1.000  O
  O290     1.0000 0.45000  0.98620  0.53330  Biso   1.000  O
  O291     1.0000 0.95000  0.51380  0.46670  Biso   1.000  O
  O292     1.0000 0.55000  0.48620  0.96670  Biso   1.000  O
  O293     1.0000 0.95000  0.98620  0.96670  Biso   1.000  O
  O294     1.0000 0.55000  0.01380  0.46670  Biso   1.000  O
  O295     1.0000 0.05000  0.48620  0.53330  Biso   1.000  O
  O296     1.0000 0.45000  0.51380  0.03330  Biso   1.000  O
  K25      1.0000 0.20150  0.78130  0.34410  Biso   1.000  K
  K26      1.0000 0.29850  0.21870  0.84410  Biso   1.000  K
  K27      1.0000 0.79850  0.28130  0.15590  Biso   1.000  K
  K28      1.0000 0.70150  0.71870  0.65590  Biso   1.000  K
  K29      1.0000 0.79850  0.21870  0.65590  Biso   1.000  K
  K30      1.0000 0.70150  0.78130  0.15590  Biso   1.000  K
  K31      1.0000 0.20150  0.71870  0.84410  Biso   1.000  K
  K32      1.0000 0.29850  0.28130  0.34410  Biso   1.000  K
  K33      1.0000 0.14500  0.77700  0.35150  Biso   1.000  K
  K34      1.0000 0.35500  0.22300  0.85150  Biso   1.000  K
  K35      1.0000 0.85500  0.27700  0.14850  Biso   1.000  K
  K36      1.0000 0.64500  0.72300  0.64850  Biso   1.000  K
  K37      1.0000 0.85500  0.22300  0.64850  Biso   1.000  K
  K38      1.0000 0.64500  0.77700  0.14850  Biso   1.000  K
  K39      1.0000 0.14500  0.72300  0.85150  Biso   1.000  K
  K40      1.0000 0.35500  0.27700  0.35150  Biso   1.000  K
  K41      1.0000 0.20330  0.54400  0.32570  Biso   1.000  K
  K42      1.0000 0.29670  0.45600  0.82570  Biso   1.000  K
  K43      1.0000 0.79670  0.04400  0.17430  Biso   1.000  K
  K44      1.0000 0.70330  0.95600  0.67430  Biso   1.000  K
  K45      1.0000 0.79670  0.45600  0.67430  Biso   1.000  K
  K46      1.0000 0.70330  0.54400  0.17430  Biso   1.000  K
  K47      1.0000 0.20330  0.95600  0.82570  Biso   1.000  K
  K48      1.0000 0.29670  0.04400  0.32570  Biso   1.000  K
  K49      1.0000 0.21330  0.38140  0.32510  Biso   1.000  K
  K50      1.0000 0.28670  0.61860  0.82510  Biso   1.000  K
  K51      1.0000 0.78670  0.88140  0.17490  Biso   1.000  K
  K52      1.0000 0.71330  0.11860  0.67490  Biso   1.000  K
  K53      1.0000 0.78670  0.61860  0.67490  Biso   1.000  K
  K54      1.0000 0.71330  0.38140  0.17490  Biso   1.000  K
  K55      1.0000 0.21330  0.11860  0.82510  Biso   1.000  K
  K56      1.0000 0.28670  0.88140  0.32510  Biso   1.000  K
  K57      1.0000 0.18060  0.34320  0.34030  Biso   1.000  K
  K58      1.0000 0.31940  0.65680  0.84030  Biso   1.000  K
  K59      1.0000 0.81940  0.84320  0.15970  Biso   1.000  K
  K60      1.0000 0.68060  0.15680  0.65970  Biso   1.000  K
  K61      1.0000 0.81940  0.65680  0.65970  Biso   1.000  K
  K62      1.0000 0.68060  0.34320  0.15970  Biso   1.000  K
  K63      1.0000 0.18060  0.15680  0.84030  Biso   1.000  K
  K64      1.0000 0.31940  0.84320  0.34030  Biso   1.000  K
  K65      1.0000 0.09520  0.47110  0.36880  Biso   1.000  K
  K66      1.0000 0.40480  0.52890  0.86880  Biso   1.000  K
  K67      1.0000 0.90480  0.97110  0.13120  Biso   1.000  K
  K68      1.0000 0.59520  0.02890  0.63120  Biso   1.000  K
  K69      1.0000 0.90480  0.52890  0.63120  Biso   1.000  K
  K70      1.0000 0.59520  0.47110  0.13120  Biso   1.000  K
  K71      1.0000 0.09520  0.02890  0.86880  Biso   1.000  K
  K72      1.0000 0.40480  0.97110  0.36880  Biso   1.000  K
  K73      1.0000 0.07190  0.76980  0.32350  Biso   1.000  K
  K74      1.0000 0.42810  0.23020  0.82350  Biso   1.000  K
  K75      1.0000 0.92810  0.26980  0.17650  Biso   1.000  K
  K76      1.0000 0.57190  0.73020  0.67650  Biso   1.000  K
  K77      1.0000 0.92810  0.23020  0.67650  Biso   1.000  K
  K78      1.0000 0.57190  0.76980  0.17650  Biso   1.000  K
  K79      1.0000 0.07190  0.73020  0.82350  Biso   1.000  K
  K80      1.0000 0.42810  0.26980  0.32350  Biso   1.000  K
  K81      1.0000 0.10440  0.93100  0.18660  Biso   1.000  K
  K82      1.0000 0.39560  0.06900  0.68660  Biso   1.000  K
  K83      1.0000 0.89560  0.43100  0.31340  Biso   1.000  K
  K84      1.0000 0.60440  0.56900  0.81340  Biso   1.000  K
  K85      1.0000 0.89560  0.06900  0.81340  Biso   1.000  K
  K86      1.0000 0.60440  0.93100  0.31340  Biso   1.000  K
  K87      1.0000 0.10440  0.56900  0.68660  Biso   1.000  K
  K88      1.0000 0.39560  0.43100  0.18660  Biso   1.000  K
  K89      1.0000 0.01250  0.10030  0.24980  Biso   1.000  K
  K90      1.0000 0.48750  0.89970  0.74980  Biso   1.000  K
  K91      1.0000 0.98750  0.60030  0.25020  Biso   1.000  K
  K92      1.0000 0.51250  0.39970  0.75020  Biso   1.000  K
  K93      1.0000 0.98750  0.89970  0.75020  Biso   1.000  K
  K94      1.0000 0.51250  0.10030  0.25020  Biso   1.000  K
  K95      1.0000 0.01250  0.39970  0.74980  Biso   1.000  K
  K96      1.0000 0.48750  0.60030  0.24980  Biso   1.000  K
  K97      1.0000 0.03860  0.81600  0.25280  Biso   1.000  K
  K98      1.0000 0.46140  0.18400  0.75280  Biso   1.000  K
  K99      1.0000 0.96140  0.31600  0.24720  Biso   1.000  K
  K100     1.0000 0.53860  0.68400  0.74720  Biso   1.000  K
  K101     1.0000 0.96140  0.18400  0.74720  Biso   1.000  K
  K102     1.0000 0.53860  0.81600  0.24720  Biso   1.000  K
  K103     1.0000 0.03860  0.68400  0.75280  Biso   1.000  K
  K104     1.0000 0.46140  0.31600  0.25280  Biso   1.000  K
  K105     1.0000 0.09800  0.61500  0.37720  Biso   1.000  K
  K106     1.0000 0.40200  0.38500  0.87720  Biso   1.000  K
  K107     1.0000 0.90200  0.11500  0.12280  Biso   1.000  K
  K108     1.0000 0.59800  0.88500  0.62280  Biso   1.000  K
  K109     1.0000 0.90200  0.38500  0.62280  Biso   1.000  K
  K110     1.0000 0.59800  0.61500  0.12280  Biso   1.000  K
  K111     1.0000 0.09800  0.88500  0.87720  Biso   1.000  K
  K112     1.0000 0.40200  0.11500  0.37720  Biso   1.000  K
  K113     1.0000 0.21390  0.41650  0.32220  Biso   1.000  K
  K114     1.0000 0.28610  0.58350  0.82220  Biso   1.000  K
  K115     1.0000 0.78610  0.91650  0.17780  Biso   1.000  K
  K116     1.0000 0.71390  0.08350  0.67780  Biso   1.000  K
  K117     1.0000 0.78610  0.58350  0.67780  Biso   1.000  K
  K118     1.0000 0.71390  0.41650  0.17780  Biso   1.000  K
  K119     1.0000 0.21390  0.08350  0.82220  Biso   1.000  K
  K120     1.0000 0.28610  0.91650  0.32220  Biso   1.000  K
