data_image0
_cell_length_a       13.9645
_cell_length_b       13.9645
_cell_length_c       35.2304
_cell_angle_alpha    90
_cell_angle_beta     90
_cell_angle_gamma    90

_symmetry_space_group_name_H-M    "P 1"
_symmetry_int_tables_number       1

loop_
  _symmetry_equiv_pos_as_xyz
  'x, y, z'

loop_
  _atom_site_label
  _atom_site_occupancy
  _atom_site_fract_x
  _atom_site_fract_y
  _atom_site_fract_z
  _atom_site_thermal_displace_type
  _atom_site_B_iso_or_equiv
  _atom_site_type_symbol
  Cu1      1.0000 0.63841  0.38217  0.40431  Biso   1.000  Cu
  Cu2      1.0000 0.36159  0.11783  0.40431  Biso   1.000  Cu
  Cu3      1.0000 0.36783  0.88841  0.65431  Biso   1.000  Cu
  Cu4      1.0000 0.63217  0.61159  0.65431  Biso   1.000  Cu
  Cu5      1.0000 0.13841  0.88217  0.90431  Biso   1.000  Cu
  Cu6      1.0000 0.86159  0.61783  0.90431  Biso   1.000  Cu
  Cu7      1.0000 0.86783  0.38841  0.15431  Biso   1.000  Cu
  Cu8      1.0000 0.13217  0.11159  0.15431  Biso   1.000  Cu
  Cu9      1.0000 0.36159  0.61783  0.59569  Biso   1.000  Cu
  Cu10     1.0000 0.63841  0.88217  0.59569  Biso   1.000  Cu
  Cu11     1.0000 0.13217  0.61159  0.84569  Biso   1.000  Cu
  Cu12     1.0000 0.86783  0.88841  0.84569  Biso   1.000  Cu
  Cu13     1.0000 0.86159  0.11783  0.09569  Biso   1.000  Cu
  Cu14     1.0000 0.13841  0.38217  0.09569  Biso   1.000  Cu
  Cu15     1.0000 0.63217  0.11159  0.34569  Biso   1.000  Cu
  Cu16     1.0000 0.36783  0.38841  0.34569  Biso   1.000  Cu
  C1       1.0000 0.81730  0.32850  0.44561  Biso   1.000  C
  C2       1.0000 0.18270  0.17150  0.44561  Biso   1.000  C
  C3       1.0000 0.42150  0.06730  0.69561  Biso   1.000  C
  C4       1.0000 0.57850  0.43270  0.69561  Biso   1.000  C
  C5       1.0000 0.31730  0.82850  0.94561  Biso   1.000  C
  C6       1.0000 0.68270  0.67150  0.94561  Biso   1.000  C
  C7       1.0000 0.92150  0.56730  0.19561  Biso   1.000  C
  C8       1.0000 0.07850  0.93270  0.19561  Biso   1.000  C
  C9       1.0000 0.18270  0.67150  0.55439  Biso   1.000  C
  C10      1.0000 0.81730  0.82850  0.55439  Biso   1.000  C
  C11      1.0000 0.07850  0.43270  0.80439  Biso   1.000  C
  C12      1.0000 0.92150  0.06730  0.80439  Biso   1.000  C
  C13      1.0000 0.68270  0.17150  0.05439  Biso   1.000  C
  C14      1.0000 0.31730  0.32850  0.05439  Biso   1.000  C
  C15      1.0000 0.57850  0.93270  0.30439  Biso   1.000  C
  C16      1.0000 0.42150  0.56730  0.30439  Biso   1.000  C
  H1       1.0000 0.78280  0.29720  0.46450  Biso   1.000  H
  H2       1.0000 0.21720  0.20280  0.46450  Biso   1.000  H
  H3       1.0000 0.45280  0.03280  0.71450  Biso   1.000  H
  H4       1.0000 0.54720  0.46720  0.71450  Biso   1.000  H
  H5       1.0000 0.28280  0.79720  0.96450  Biso   1.000  H
  H6       1.0000 0.71720  0.70280  0.96450  Biso   1.000  H
  H7       1.0000 0.95280  0.53280  0.21450  Biso   1.000  H
  H8       1.0000 0.04720  0.96720  0.21450  Biso   1.000  H
  H9       1.0000 0.21720  0.70280  0.53550  Biso   1.000  H
  H10      1.0000 0.78280  0.79720  0.53550  Biso   1.000  H
  H11      1.0000 0.04720  0.46720  0.78550  Biso   1.000  H
  H12      1.0000 0.95280  0.03280  0.78550  Biso   1.000  H
  H13      1.0000 0.71720  0.20280  0.03550  Biso   1.000  H
  H14      1.0000 0.28280  0.29720  0.03550  Biso   1.000  H
  H15      1.0000 0.54720  0.96720  0.28550  Biso   1.000  H
  H16      1.0000 0.45280  0.53280  0.28550  Biso   1.000  H
  C17      1.0000 0.84820  0.40740  0.39631  Biso   1.000  C
  C18      1.0000 0.15180  0.09260  0.39631  Biso   1.000  C
  C19      1.0000 0.34260  0.09820  0.64631  Biso   1.000  C
  C20      1.0000 0.65740  0.40180  0.64631  Biso   1.000  C
  C21      1.0000 0.34820  0.90740  0.89631  Biso   1.000  C
  C22      1.0000 0.65180  0.59260  0.89631  Biso   1.000  C
  C23      1.0000 0.84260  0.59820  0.14631  Biso   1.000  C
  C24      1.0000 0.15740  0.90180  0.14631  Biso   1.000  C
  C25      1.0000 0.15180  0.59260  0.60369  Biso   1.000  C
  C26      1.0000 0.84820  0.90740  0.60369  Biso   1.000  C
  C27      1.0000 0.15740  0.40180  0.85369  Biso   1.000  C
  C28      1.0000 0.84260  0.09820  0.85369  Biso   1.000  C
  C29      1.0000 0.65180  0.09260  0.10369  Biso   1.000  C
  C30      1.0000 0.34820  0.40740  0.10369  Biso   1.000  C
  C31      1.0000 0.65740  0.90180  0.35369  Biso   1.000  C
  C32      1.0000 0.34260  0.59820  0.35369  Biso   1.000  C
  H17      1.0000 0.84350  0.44390  0.37430  Biso   1.000  H
  H18      1.0000 0.15650  0.05610  0.37430  Biso   1.000  H
  H19      1.0000 0.30610  0.09350  0.62430  Biso   1.000  H
  H20      1.0000 0.69390  0.40650  0.62430  Biso   1.000  H
  H21      1.0000 0.34350  0.94390  0.87430  Biso   1.000  H
  H22      1.0000 0.65650  0.55610  0.87430  Biso   1.000  H
  H23      1.0000 0.80610  0.59350  0.12430  Biso   1.000  H
  H24      1.0000 0.19390  0.90650  0.12430  Biso   1.000  H
  H25      1.0000 0.15650  0.55610  0.62570  Biso   1.000  H
  H26      1.0000 0.84350  0.94390  0.62570  Biso   1.000  H
  H27      1.0000 0.19390  0.40650  0.87570  Biso   1.000  H
  H28      1.0000 0.80610  0.09350  0.87570  Biso   1.000  H
  H29      1.0000 0.65650  0.05610  0.12570  Biso   1.000  H
  H30      1.0000 0.34350  0.44390  0.12570  Biso   1.000  H
  H31      1.0000 0.69390  0.90650  0.37570  Biso   1.000  H
  H32      1.0000 0.30610  0.59350  0.37570  Biso   1.000  H
  C33      1.0000 0.02810  0.40380  0.40170  Biso   1.000  C
  C34      1.0000 0.97190  0.09620  0.40170  Biso   1.000  C
  C35      1.0000 0.34620  0.27810  0.65170  Biso   1.000  C
  C36      1.0000 0.65380  0.22190  0.65170  Biso   1.000  C
  C37      1.0000 0.52810  0.90380  0.90170  Biso   1.000  C
  C38      1.0000 0.47190  0.59620  0.90170  Biso   1.000  C
  C39      1.0000 0.84620  0.77810  0.15170  Biso   1.000  C
  C40      1.0000 0.15380  0.72190  0.15170  Biso   1.000  C
  C41      1.0000 0.97190  0.59620  0.59830  Biso   1.000  C
  C42      1.0000 0.02810  0.90380  0.59830  Biso   1.000  C
  C43      1.0000 0.15380  0.22190  0.84830  Biso   1.000  C
  C44      1.0000 0.84620  0.27810  0.84830  Biso   1.000  C
  C45      1.0000 0.47190  0.09620  0.09830  Biso   1.000  C
  C46      1.0000 0.52810  0.40380  0.09830  Biso   1.000  C
  C47      1.0000 0.65380  0.72190  0.34830  Biso   1.000  C
  C48      1.0000 0.34620  0.77810  0.34830  Biso   1.000  C
  H33      1.0000 0.02940  0.42680  0.37570  Biso   1.000  H
  H34      1.0000 0.97060  0.07320  0.37570  Biso   1.000  H
  H35      1.0000 0.32320  0.27940  0.62570  Biso   1.000  H
  H36      1.0000 0.67680  0.22060  0.62570  Biso   1.000  H
  H37      1.0000 0.52940  0.92680  0.87570  Biso   1.000  H
  H38      1.0000 0.47060  0.57320  0.87570  Biso   1.000  H
  H39      1.0000 0.82320  0.77940  0.12570  Biso   1.000  H
  H40      1.0000 0.17680  0.72060  0.12570  Biso   1.000  H
  H41      1.0000 0.97060  0.57320  0.62430  Biso   1.000  H
  H42      1.0000 0.02940  0.92680  0.62430  Biso   1.000  H
  H43      1.0000 0.17680  0.22060  0.87430  Biso   1.000  H
  H44      1.0000 0.82320  0.27940  0.87430  Biso   1.000  H
  H45      1.0000 0.47060  0.07320  0.12430  Biso   1.000  H
  H46      1.0000 0.52940  0.42680  0.12430  Biso   1.000  H
  H47      1.0000 0.67680  0.72060  0.37430  Biso   1.000  H
  H48      1.0000 0.32320  0.77940  0.37430  Biso   1.000  H
  H49      1.0000 0.06570  0.34550  0.40290  Biso   1.000  H
  H50      1.0000 0.93430  0.15450  0.40290  Biso   1.000  H
  H51      1.0000 0.40450  0.31570  0.65290  Biso   1.000  H
  H52      1.0000 0.59550  0.18430  0.65290  Biso   1.000  H
  H53      1.0000 0.56570  0.84550  0.90290  Biso   1.000  H
  H54      1.0000 0.43430  0.65450  0.90290  Biso   1.000  H
  H55      1.0000 0.90450  0.81570  0.15290  Biso   1.000  H
  H56      1.0000 0.09550  0.68430  0.15290  Biso   1.000  H
  H57      1.0000 0.93430  0.65450  0.59710  Biso   1.000  H
  H58      1.0000 0.06570  0.84550  0.59710  Biso   1.000  H
  H59      1.0000 0.09550  0.18430  0.84710  Biso   1.000  H
  H60      1.0000 0.90450  0.31570  0.84710  Biso   1.000  H
  H61      1.0000 0.43430  0.15450  0.09710  Biso   1.000  H
  H62      1.0000 0.56570  0.34550  0.09710  Biso   1.000  H
  H63      1.0000 0.59550  0.68430  0.34710  Biso   1.000  H
  H64      1.0000 0.40450  0.81570  0.34710  Biso   1.000  H
  C49      1.0000 0.07580  0.48510  0.42990  Biso   1.000  C
  C50      1.0000 0.92420  0.01490  0.42990  Biso   1.000  C
  C51      1.0000 0.26490  0.32580  0.67990  Biso   1.000  C
  C52      1.0000 0.73510  0.17420  0.67990  Biso   1.000  C
  C53      1.0000 0.57580  0.98510  0.92990  Biso   1.000  C
  C54      1.0000 0.42420  0.51490  0.92990  Biso   1.000  C
  C55      1.0000 0.76490  0.82580  0.17990  Biso   1.000  C
  C56      1.0000 0.23510  0.67420  0.17990  Biso   1.000  C
  C57      1.0000 0.92420  0.51490  0.57010  Biso   1.000  C
  C58      1.0000 0.07580  0.98510  0.57010  Biso   1.000  C
  C59      1.0000 0.23510  0.17420  0.82010  Biso   1.000  C
  C60      1.0000 0.76490  0.32580  0.82010  Biso   1.000  C
  C61      1.0000 0.42420  0.01490  0.07010  Biso   1.000  C
  C62      1.0000 0.57580  0.48510  0.07010  Biso   1.000  C
  C63      1.0000 0.73510  0.67420  0.32010  Biso   1.000  C
  C64      1.0000 0.26490  0.82580  0.32010  Biso   1.000  C
  H65      1.0000 0.06760  0.46580  0.45620  Biso   1.000  H
  H66      1.0000 0.93240  0.03420  0.45620  Biso   1.000  H
  H67      1.0000 0.28420  0.31760  0.70620  Biso   1.000  H
  H68      1.0000 0.71580  0.18240  0.70620  Biso   1.000  H
  H69      1.0000 0.56760  0.96580  0.95620  Biso   1.000  H
  H70      1.0000 0.43240  0.53420  0.95620  Biso   1.000  H
  H71      1.0000 0.78420  0.81760  0.20620  Biso   1.000  H
  H72      1.0000 0.21580  0.68240  0.20620  Biso   1.000  H
  H73      1.0000 0.93240  0.53420  0.54380  Biso   1.000  H
  H74      1.0000 0.06760  0.96580  0.54380  Biso   1.000  H
  H75      1.0000 0.21580  0.18240  0.79380  Biso   1.000  H
  H76      1.0000 0.78420  0.31760  0.79380  Biso   1.000  H
  H77      1.0000 0.43240  0.03420  0.04380  Biso   1.000  H
  H78      1.0000 0.56760  0.46580  0.04380  Biso   1.000  H
  H79      1.0000 0.71580  0.68240  0.29380  Biso   1.000  H
  H80      1.0000 0.28420  0.81760  0.29380  Biso   1.000  H
  H81      1.0000 0.14380  0.49040  0.42490  Biso   1.000  H
  H82      1.0000 0.85620  0.00960  0.42490  Biso   1.000  H
  H83      1.0000 0.25960  0.39380  0.67490  Biso   1.000  H
  H84      1.0000 0.74040  0.10620  0.67490  Biso   1.000  H
  H85      1.0000 0.64380  0.99040  0.92490  Biso   1.000  H
  H86      1.0000 0.35620  0.50960  0.92490  Biso   1.000  H
  H87      1.0000 0.75960  0.89380  0.17490  Biso   1.000  H
  H88      1.0000 0.24040  0.60620  0.17490  Biso   1.000  H
  H89      1.0000 0.85620  0.50960  0.57510  Biso   1.000  H
  H90      1.0000 0.14380  0.99040  0.57510  Biso   1.000  H
  H91      1.0000 0.24040  0.10620  0.82510  Biso   1.000  H
  H92      1.0000 0.75960  0.39380  0.82510  Biso   1.000  H
  H93      1.0000 0.35620  0.00960  0.07510  Biso   1.000  H
  H94      1.0000 0.64380  0.49040  0.07510  Biso   1.000  H
  H95      1.0000 0.74040  0.60620  0.32510  Biso   1.000  H
  H96      1.0000 0.25960  0.89380  0.32510  Biso   1.000  H
  C65      1.0000 0.02960  0.57820  0.42380  Biso   1.000  C
  C66      1.0000 0.97040  0.92180  0.42380  Biso   1.000  C
  C67      1.0000 0.17180  0.27960  0.67380  Biso   1.000  C
  C68      1.0000 0.82820  0.22040  0.67380  Biso   1.000  C
  C69      1.0000 0.52960  0.07820  0.92380  Biso   1.000  C
  C70      1.0000 0.47040  0.42180  0.92380  Biso   1.000  C
  C71      1.0000 0.67180  0.77960  0.17380  Biso   1.000  C
  C72      1.0000 0.32820  0.72040  0.17380  Biso   1.000  C
  C73      1.0000 0.97040  0.42180  0.57620  Biso   1.000  C
  C74      1.0000 0.02960  0.07820  0.57620  Biso   1.000  C
  C75      1.0000 0.32820  0.22040  0.82620  Biso   1.000  C
  C76      1.0000 0.67180  0.27960  0.82620  Biso   1.000  C
  C77      1.0000 0.47040  0.92180  0.07620  Biso   1.000  C
  C78      1.0000 0.52960  0.57820  0.07620  Biso   1.000  C
  C79      1.0000 0.82820  0.72040  0.32620  Biso   1.000  C
  C80      1.0000 0.17180  0.77960  0.32620  Biso   1.000  C
  H97      1.0000 0.04090  0.59850  0.39780  Biso   1.000  H
  H98      1.0000 0.95910  0.90150  0.39780  Biso   1.000  H
  H99      1.0000 0.15150  0.29090  0.64780  Biso   1.000  H
  H100     1.0000 0.84850  0.20910  0.64780  Biso   1.000  H
  H101     1.0000 0.54090  0.09850  0.89780  Biso   1.000  H
  H102     1.0000 0.45910  0.40150  0.89780  Biso   1.000  H
  H103     1.0000 0.65150  0.79090  0.14780  Biso   1.000  H
  H104     1.0000 0.34850  0.70910  0.14780  Biso   1.000  H
  H105     1.0000 0.95910  0.40150  0.60220  Biso   1.000  H
  H106     1.0000 0.04090  0.09850  0.60220  Biso   1.000  H
  H107     1.0000 0.34850  0.20910  0.85220  Biso   1.000  H
  H108     1.0000 0.65150  0.29090  0.85220  Biso   1.000  H
  H109     1.0000 0.45910  0.90150  0.10220  Biso   1.000  H
  H110     1.0000 0.54090  0.59850  0.10220  Biso   1.000  H
  H111     1.0000 0.84850  0.70910  0.35220  Biso   1.000  H
  H112     1.0000 0.15150  0.79090  0.35220  Biso   1.000  H
  H113     1.0000 0.96100  0.57120  0.42720  Biso   1.000  H
  H114     1.0000 0.03900  0.92880  0.42720  Biso   1.000  H
  H115     1.0000 0.17880  0.21100  0.67720  Biso   1.000  H
  H116     1.0000 0.82120  0.28900  0.67720  Biso   1.000  H
  H117     1.0000 0.46100  0.07120  0.92720  Biso   1.000  H
  H118     1.0000 0.53900  0.42880  0.92720  Biso   1.000  H
  H119     1.0000 0.67880  0.71100  0.17720  Biso   1.000  H
  H120     1.0000 0.32120  0.78900  0.17720  Biso   1.000  H
  H121     1.0000 0.03900  0.42880  0.57280  Biso   1.000  H
  H122     1.0000 0.96100  0.07120  0.57280  Biso   1.000  H
  H123     1.0000 0.32120  0.28900  0.82280  Biso   1.000  H
  H124     1.0000 0.67880  0.21100  0.82280  Biso   1.000  H
  H125     1.0000 0.53900  0.92880  0.07280  Biso   1.000  H
  H126     1.0000 0.46100  0.57120  0.07280  Biso   1.000  H
  H127     1.0000 0.82120  0.78900  0.32280  Biso   1.000  H
  H128     1.0000 0.17880  0.71100  0.32280  Biso   1.000  H
  C81      1.0000 0.06350  0.64850  0.44860  Biso   1.000  C
  C82      1.0000 0.93650  0.85150  0.44860  Biso   1.000  C
  C83      1.0000 0.10150  0.31350  0.69860  Biso   1.000  C
  C84      1.0000 0.89850  0.18650  0.69860  Biso   1.000  C
  C85      1.0000 0.56350  0.14850  0.94860  Biso   1.000  C
  C86      1.0000 0.43650  0.35150  0.94860  Biso   1.000  C
  C87      1.0000 0.60150  0.81350  0.19860  Biso   1.000  C
  C88      1.0000 0.39850  0.68650  0.19860  Biso   1.000  C
  C89      1.0000 0.93650  0.35150  0.55140  Biso   1.000  C
  C90      1.0000 0.06350  0.14850  0.55140  Biso   1.000  C
  C91      1.0000 0.39850  0.18650  0.80140  Biso   1.000  C
  C92      1.0000 0.60150  0.31350  0.80140  Biso   1.000  C
  C93      1.0000 0.43650  0.85150  0.05140  Biso   1.000  C
  C94      1.0000 0.56350  0.64850  0.05140  Biso   1.000  C
  C95      1.0000 0.89850  0.68650  0.30140  Biso   1.000  C
  C96      1.0000 0.10150  0.81350  0.30140  Biso   1.000  C
  H129     1.0000 0.03590  0.63540  0.47330  Biso   1.000  H
  H130     1.0000 0.96410  0.86460  0.47330  Biso   1.000  H
  H131     1.0000 0.11460  0.28590  0.72330  Biso   1.000  H
  H132     1.0000 0.88540  0.21410  0.72330  Biso   1.000  H
  H133     1.0000 0.53590  0.13540  0.97330  Biso   1.000  H
  H134     1.0000 0.46410  0.36460  0.97330  Biso   1.000  H
  H135     1.0000 0.61460  0.78590  0.22330  Biso   1.000  H
  H136     1.0000 0.38540  0.71410  0.22330  Biso   1.000  H
  H137     1.0000 0.96410  0.36460  0.52670  Biso   1.000  H
  H138     1.0000 0.03590  0.13540  0.52670  Biso   1.000  H
  H139     1.0000 0.38540  0.21410  0.77670  Biso   1.000  H
  H140     1.0000 0.61460  0.28590  0.77670  Biso   1.000  H
  H141     1.0000 0.46410  0.86460  0.02670  Biso   1.000  H
  H142     1.0000 0.53590  0.63540  0.02670  Biso   1.000  H
  H143     1.0000 0.88540  0.71410  0.27670  Biso   1.000  H
  H144     1.0000 0.11460  0.78590  0.27670  Biso   1.000  H
  H145     1.0000 0.13200  0.63910  0.45100  Biso   1.000  H
  H146     1.0000 0.86800  0.86090  0.45100  Biso   1.000  H
  H147     1.0000 0.11090  0.38200  0.70100  Biso   1.000  H
  H148     1.0000 0.88910  0.11800  0.70100  Biso   1.000  H
  H149     1.0000 0.63200  0.13910  0.95100  Biso   1.000  H
  H150     1.0000 0.36800  0.36090  0.95100  Biso   1.000  H
  H151     1.0000 0.61090  0.88200  0.20100  Biso   1.000  H
  H152     1.0000 0.38910  0.61800  0.20100  Biso   1.000  H
  H153     1.0000 0.86800  0.36090  0.54900  Biso   1.000  H
  H154     1.0000 0.13200  0.13910  0.54900  Biso   1.000  H
  H155     1.0000 0.38910  0.11800  0.79900  Biso   1.000  H
  H156     1.0000 0.61090  0.38200  0.79900  Biso   1.000  H
  H157     1.0000 0.36800  0.86090  0.04900  Biso   1.000  H
  H158     1.0000 0.63200  0.63910  0.04900  Biso   1.000  H
  H159     1.0000 0.88910  0.61800  0.29900  Biso   1.000  H
  H160     1.0000 0.11090  0.88200  0.29900  Biso   1.000  H
  C97      1.0000 0.04950  0.74000  0.44150  Biso   1.000  C
  C98      1.0000 0.95050  0.76000  0.44150  Biso   1.000  C
  C99      1.0000 0.01000  0.29950  0.69150  Biso   1.000  C
  C100     1.0000 0.99000  0.20050  0.69150  Biso   1.000  C
  C101     1.0000 0.54950  0.24000  0.94150  Biso   1.000  C
  C102     1.0000 0.45050  0.26000  0.94150  Biso   1.000  C
  C103     1.0000 0.51000  0.79950  0.19150  Biso   1.000  C
  C104     1.0000 0.49000  0.70050  0.19150  Biso   1.000  C
  C105     1.0000 0.95050  0.26000  0.55850  Biso   1.000  C
  C106     1.0000 0.04950  0.24000  0.55850  Biso   1.000  C
  C107     1.0000 0.49000  0.20050  0.80850  Biso   1.000  C
  C108     1.0000 0.51000  0.29950  0.80850  Biso   1.000  C
  C109     1.0000 0.45050  0.76000  0.05850  Biso   1.000  C
  C110     1.0000 0.54950  0.74000  0.05850  Biso   1.000  C
  C111     1.0000 0.99000  0.70050  0.30850  Biso   1.000  C
  C112     1.0000 0.01000  0.79950  0.30850  Biso   1.000  C
  H161     1.0000 0.07670  0.75630  0.41700  Biso   1.000  H
  H162     1.0000 0.92330  0.74370  0.41700  Biso   1.000  H
  H163     1.0000 0.99370  0.32670  0.66700  Biso   1.000  H
  H164     1.0000 0.00630  0.17330  0.66700  Biso   1.000  H
  H165     1.0000 0.57670  0.25630  0.91700  Biso   1.000  H
  H166     1.0000 0.42330  0.24370  0.91700  Biso   1.000  H
  H167     1.0000 0.49370  0.82670  0.16700  Biso   1.000  H
  H168     1.0000 0.50630  0.67330  0.16700  Biso   1.000  H
  H169     1.0000 0.92330  0.24370  0.58300  Biso   1.000  H
  H170     1.0000 0.07670  0.25630  0.58300  Biso   1.000  H
  H171     1.0000 0.50630  0.17330  0.83300  Biso   1.000  H
  H172     1.0000 0.49370  0.32670  0.83300  Biso   1.000  H
  H173     1.0000 0.42330  0.74370  0.08300  Biso   1.000  H
  H174     1.0000 0.57670  0.75630  0.08300  Biso   1.000  H
  H175     1.0000 0.00630  0.67330  0.33300  Biso   1.000  H
  H176     1.0000 0.99370  0.82670  0.33300  Biso   1.000  H
  H177     1.0000 0.08110  0.77850  0.46070  Biso   1.000  H
  H178     1.0000 0.91890  0.72150  0.46070  Biso   1.000  H
  H179     1.0000 0.97150  0.33110  0.71070  Biso   1.000  H
  H180     1.0000 0.02850  0.16890  0.71070  Biso   1.000  H
  H181     1.0000 0.58110  0.27850  0.96070  Biso   1.000  H
  H182     1.0000 0.41890  0.22150  0.96070  Biso   1.000  H
  H183     1.0000 0.47150  0.83110  0.21070  Biso   1.000  H
  H184     1.0000 0.52850  0.66890  0.21070  Biso   1.000  H
  H185     1.0000 0.91890  0.22150  0.53930  Biso   1.000  H
  H186     1.0000 0.08110  0.27850  0.53930  Biso   1.000  H
  H187     1.0000 0.52850  0.16890  0.78930  Biso   1.000  H
  H188     1.0000 0.47150  0.33110  0.78930  Biso   1.000  H
  H189     1.0000 0.41890  0.72150  0.03930  Biso   1.000  H
  H190     1.0000 0.58110  0.77850  0.03930  Biso   1.000  H
  H191     1.0000 0.02850  0.66890  0.28930  Biso   1.000  H
  H192     1.0000 0.97150  0.83110  0.28930  Biso   1.000  H
  C113     1.0000 0.44200  0.39290  0.45718  Biso   1.000  C
  C114     1.0000 0.55800  0.10710  0.45718  Biso   1.000  C
  C115     1.0000 0.35710  0.69200  0.70718  Biso   1.000  C
  C116     1.0000 0.64290  0.80800  0.70718  Biso   1.000  C
  C117     1.0000 0.94200  0.89290  0.95718  Biso   1.000  C
  C118     1.0000 0.05800  0.60710  0.95718  Biso   1.000  C
  C119     1.0000 0.85710  0.19200  0.20718  Biso   1.000  C
  C120     1.0000 0.14290  0.30800  0.20718  Biso   1.000  C
  C121     1.0000 0.55800  0.60710  0.54282  Biso   1.000  C
  C122     1.0000 0.44200  0.89290  0.54282  Biso   1.000  C
  C123     1.0000 0.14290  0.80800  0.79282  Biso   1.000  C
  C124     1.0000 0.85710  0.69200  0.79282  Biso   1.000  C
  C125     1.0000 0.05800  0.10710  0.04282  Biso   1.000  C
  C126     1.0000 0.94200  0.39290  0.04282  Biso   1.000  C
  C127     1.0000 0.64290  0.30800  0.29282  Biso   1.000  C
  C128     1.0000 0.35710  0.19200  0.29282  Biso   1.000  C
  C129     1.0000 0.53310  0.37530  0.47458  Biso   1.000  C
  C130     1.0000 0.46690  0.12470  0.47458  Biso   1.000  C
  C131     1.0000 0.37470  0.78310  0.72458  Biso   1.000  C
  C132     1.0000 0.62530  0.71690  0.72458  Biso   1.000  C
  C133     1.0000 0.03310  0.87530  0.97458  Biso   1.000  C
  C134     1.0000 0.96690  0.62470  0.97458  Biso   1.000  C
  C135     1.0000 0.87470  0.28310  0.22458  Biso   1.000  C
  C136     1.0000 0.12530  0.21690  0.22458  Biso   1.000  C
  C137     1.0000 0.46690  0.62470  0.52542  Biso   1.000  C
  C138     1.0000 0.53310  0.87530  0.52542  Biso   1.000  C
  C139     1.0000 0.12530  0.71690  0.77542  Biso   1.000  C
  C140     1.0000 0.87470  0.78310  0.77542  Biso   1.000  C
  C141     1.0000 0.96690  0.12470  0.02542  Biso   1.000  C
  C142     1.0000 0.03310  0.37530  0.02542  Biso   1.000  C
  C143     1.0000 0.62530  0.21690  0.27542  Biso   1.000  C
  C144     1.0000 0.37470  0.28310  0.27542  Biso   1.000  C
  C145     1.0000 0.53180  0.36990  0.51530  Biso   1.000  C
  C146     1.0000 0.46820  0.13010  0.51530  Biso   1.000  C
  C147     1.0000 0.38010  0.78180  0.76530  Biso   1.000  C
  C148     1.0000 0.61990  0.71820  0.76530  Biso   1.000  C
  C149     1.0000 0.03180  0.86990  0.01530  Biso   1.000  C
  C150     1.0000 0.96820  0.63010  0.01530  Biso   1.000  C
  C151     1.0000 0.88010  0.28180  0.26530  Biso   1.000  C
  C152     1.0000 0.11990  0.21820  0.26530  Biso   1.000  C
  C153     1.0000 0.46820  0.63010  0.48470  Biso   1.000  C
  C154     1.0000 0.53180  0.86990  0.48470  Biso   1.000  C
  C155     1.0000 0.11990  0.71820  0.73470  Biso   1.000  C
  C156     1.0000 0.88010  0.78180  0.73470  Biso   1.000  C
  C157     1.0000 0.96820  0.13010  0.98470  Biso   1.000  C
  C158     1.0000 0.03180  0.36990  0.98470  Biso   1.000  C
  C159     1.0000 0.61990  0.21820  0.23470  Biso   1.000  C
  C160     1.0000 0.38010  0.28180  0.23470  Biso   1.000  C
  C161     1.0000 0.44990  0.38320  0.53607  Biso   1.000  C
  C162     1.0000 0.55010  0.11680  0.53607  Biso   1.000  C
  C163     1.0000 0.36680  0.69990  0.78607  Biso   1.000  C
  C164     1.0000 0.63320  0.80010  0.78607  Biso   1.000  C
  C165     1.0000 0.94990  0.88320  0.03607  Biso   1.000  C
  C166     1.0000 0.05010  0.61680  0.03607  Biso   1.000  C
  C167     1.0000 0.86680  0.19990  0.28607  Biso   1.000  C
  C168     1.0000 0.13320  0.30010  0.28607  Biso   1.000  C
  C169     1.0000 0.55010  0.61680  0.46393  Biso   1.000  C
  C170     1.0000 0.44990  0.88320  0.46393  Biso   1.000  C
  C171     1.0000 0.13320  0.80010  0.71393  Biso   1.000  C
  C172     1.0000 0.86680  0.69990  0.71393  Biso   1.000  C
  C173     1.0000 0.05010  0.11680  0.96393  Biso   1.000  C
  C174     1.0000 0.94990  0.38320  0.96393  Biso   1.000  C
  C175     1.0000 0.63320  0.30010  0.21393  Biso   1.000  C
  C176     1.0000 0.36680  0.19990  0.21393  Biso   1.000  C
  H193     1.0000 0.45210  0.38050  0.56240  Biso   1.000  H
  H194     1.0000 0.54790  0.11950  0.56240  Biso   1.000  H
  H195     1.0000 0.36950  0.70210  0.81240  Biso   1.000  H
  H196     1.0000 0.63050  0.79790  0.81240  Biso   1.000  H
  H197     1.0000 0.95210  0.88050  0.06240  Biso   1.000  H
  H198     1.0000 0.04790  0.61950  0.06240  Biso   1.000  H
  H199     1.0000 0.86950  0.20210  0.31240  Biso   1.000  H
  H200     1.0000 0.13050  0.29790  0.31240  Biso   1.000  H
  H201     1.0000 0.54790  0.61950  0.43760  Biso   1.000  H
  H202     1.0000 0.45210  0.88050  0.43760  Biso   1.000  H
  H203     1.0000 0.13050  0.79790  0.68760  Biso   1.000  H
  H204     1.0000 0.86950  0.70210  0.68760  Biso   1.000  H
  H205     1.0000 0.04790  0.11950  0.93760  Biso   1.000  H
  H206     1.0000 0.95210  0.38050  0.93760  Biso   1.000  H
  H207     1.0000 0.63050  0.29790  0.18760  Biso   1.000  H
  H208     1.0000 0.36950  0.20210  0.18760  Biso   1.000  H
  C177     1.0000 0.36550  0.40020  0.51801  Biso   1.000  C
  C178     1.0000 0.63450  0.09980  0.51801  Biso   1.000  C
  C179     1.0000 0.34980  0.61550  0.76801  Biso   1.000  C
  C180     1.0000 0.65020  0.88450  0.76801  Biso   1.000  C
  C181     1.0000 0.86550  0.90020  0.01801  Biso   1.000  C
  C182     1.0000 0.13450  0.59980  0.01801  Biso   1.000  C
  C183     1.0000 0.84980  0.11550  0.26801  Biso   1.000  C
  C184     1.0000 0.15020  0.38450  0.26801  Biso   1.000  C
  C185     1.0000 0.63450  0.59980  0.48199  Biso   1.000  C
  C186     1.0000 0.36550  0.90020  0.48199  Biso   1.000  C
  C187     1.0000 0.15020  0.88450  0.73199  Biso   1.000  C
  C188     1.0000 0.84980  0.61550  0.73199  Biso   1.000  C
  C189     1.0000 0.13450  0.09980  0.98199  Biso   1.000  C
  C190     1.0000 0.86550  0.40020  0.98199  Biso   1.000  C
  C191     1.0000 0.65020  0.38450  0.23199  Biso   1.000  C
  C192     1.0000 0.34980  0.11550  0.23199  Biso   1.000  C
  C193     1.0000 0.36040  0.40450  0.47840  Biso   1.000  C
  C194     1.0000 0.63960  0.09550  0.47840  Biso   1.000  C
  C195     1.0000 0.34550  0.61040  0.72840  Biso   1.000  C
  C196     1.0000 0.65450  0.88960  0.72840  Biso   1.000  C
  C197     1.0000 0.86040  0.90450  0.97840  Biso   1.000  C
  C198     1.0000 0.13960  0.59550  0.97840  Biso   1.000  C
  C199     1.0000 0.84550  0.11040  0.22840  Biso   1.000  C
  C200     1.0000 0.15450  0.38960  0.22840  Biso   1.000  C
  C201     1.0000 0.63960  0.59550  0.52160  Biso   1.000  C
  C202     1.0000 0.36040  0.90450  0.52160  Biso   1.000  C
  C203     1.0000 0.15450  0.88960  0.77160  Biso   1.000  C
  C204     1.0000 0.84550  0.61040  0.77160  Biso   1.000  C
  C205     1.0000 0.13960  0.09550  0.02160  Biso   1.000  C
  C206     1.0000 0.86040  0.40450  0.02160  Biso   1.000  C
  C207     1.0000 0.65450  0.38960  0.27160  Biso   1.000  C
  C208     1.0000 0.34550  0.11040  0.27160  Biso   1.000  C
  H209     1.0000 0.30190  0.41520  0.46650  Biso   1.000  H
  H210     1.0000 0.69810  0.08480  0.46650  Biso   1.000  H
  H211     1.0000 0.33480  0.55190  0.71650  Biso   1.000  H
  H212     1.0000 0.66520  0.94810  0.71650  Biso   1.000  H
  H213     1.0000 0.80190  0.91520  0.96650  Biso   1.000  H
  H214     1.0000 0.19810  0.58480  0.96650  Biso   1.000  H
  H215     1.0000 0.83480  0.05190  0.21650  Biso   1.000  H
  H216     1.0000 0.16520  0.44810  0.21650  Biso   1.000  H
  H217     1.0000 0.69810  0.58480  0.53350  Biso   1.000  H
  H218     1.0000 0.30190  0.91520  0.53350  Biso   1.000  H
  H219     1.0000 0.16520  0.94810  0.78350  Biso   1.000  H
  H220     1.0000 0.83480  0.55190  0.78350  Biso   1.000  H
  H221     1.0000 0.19810  0.08480  0.03350  Biso   1.000  H
  H222     1.0000 0.80190  0.41520  0.03350  Biso   1.000  H
  H223     1.0000 0.66520  0.44810  0.28350  Biso   1.000  H
  H224     1.0000 0.33480  0.05190  0.28350  Biso   1.000  H
  C209     1.0000 0.43240  0.39970  0.41517  Biso   1.000  C
  C210     1.0000 0.56760  0.10030  0.41517  Biso   1.000  C
  C211     1.0000 0.35030  0.68240  0.66517  Biso   1.000  C
  C212     1.0000 0.64970  0.81760  0.66517  Biso   1.000  C
  C213     1.0000 0.93240  0.89970  0.91517  Biso   1.000  C
  C214     1.0000 0.06760  0.60030  0.91517  Biso   1.000  C
  C215     1.0000 0.85030  0.18240  0.16517  Biso   1.000  C
  C216     1.0000 0.14970  0.31760  0.16517  Biso   1.000  C
  C217     1.0000 0.56760  0.60030  0.58483  Biso   1.000  C
  C218     1.0000 0.43240  0.89970  0.58483  Biso   1.000  C
  C219     1.0000 0.14970  0.81760  0.83483  Biso   1.000  C
  C220     1.0000 0.85030  0.68240  0.83483  Biso   1.000  C
  C221     1.0000 0.06760  0.10030  0.08483  Biso   1.000  C
  C222     1.0000 0.93240  0.39970  0.08483  Biso   1.000  C
  C223     1.0000 0.64970  0.31760  0.33483  Biso   1.000  C
  C224     1.0000 0.35030  0.18240  0.33483  Biso   1.000  C
  N1       1.0000 0.92890  0.38310  0.41284  Biso   1.000  N
  N2       1.0000 0.07110  0.11690  0.41284  Biso   1.000  N
  N3       1.0000 0.36690  0.17890  0.66284  Biso   1.000  N
  N4       1.0000 0.63310  0.32110  0.66284  Biso   1.000  N
  N5       1.0000 0.42890  0.88310  0.91284  Biso   1.000  N
  N6       1.0000 0.57110  0.61690  0.91284  Biso   1.000  N
  N7       1.0000 0.86690  0.67890  0.16284  Biso   1.000  N
  N8       1.0000 0.13310  0.82110  0.16284  Biso   1.000  N
  N9       1.0000 0.07110  0.61690  0.58716  Biso   1.000  N
  N10      1.0000 0.92890  0.88310  0.58716  Biso   1.000  N
  N11      1.0000 0.13310  0.32110  0.83716  Biso   1.000  N
  N12      1.0000 0.86690  0.17890  0.83716  Biso   1.000  N
  N13      1.0000 0.57110  0.11690  0.08716  Biso   1.000  N
  N14      1.0000 0.42890  0.38310  0.08716  Biso   1.000  N
  N15      1.0000 0.63310  0.82110  0.33716  Biso   1.000  N
  N16      1.0000 0.36690  0.67890  0.33716  Biso   1.000  N
  N17      1.0000 0.90950  0.33390  0.44572  Biso   1.000  N
  N18      1.0000 0.09050  0.16610  0.44572  Biso   1.000  N
  N19      1.0000 0.41610  0.15950  0.69572  Biso   1.000  N
  N20      1.0000 0.58390  0.34050  0.69572  Biso   1.000  N
  N21      1.0000 0.40950  0.83390  0.94572  Biso   1.000  N
  N22      1.0000 0.59050  0.66610  0.94572  Biso   1.000  N
  N23      1.0000 0.91610  0.65950  0.19572  Biso   1.000  N
  N24      1.0000 0.08390  0.84050  0.19572  Biso   1.000  N
  N25      1.0000 0.09050  0.66610  0.55428  Biso   1.000  N
  N26      1.0000 0.90950  0.83390  0.55428  Biso   1.000  N
  N27      1.0000 0.08390  0.34050  0.80428  Biso   1.000  N
  N28      1.0000 0.91610  0.15950  0.80428  Biso   1.000  N
  N29      1.0000 0.59050  0.16610  0.05428  Biso   1.000  N
  N30      1.0000 0.40950  0.33390  0.05428  Biso   1.000  N
  N31      1.0000 0.58390  0.84050  0.30428  Biso   1.000  N
  N32      1.0000 0.41610  0.65950  0.30428  Biso   1.000  N
  N33      1.0000 0.77470  0.37250  0.41539  Biso   1.000  N
  N34      1.0000 0.22530  0.12750  0.41539  Biso   1.000  N
  N35      1.0000 0.37750  0.02470  0.66539  Biso   1.000  N
  N36      1.0000 0.62250  0.47530  0.66539  Biso   1.000  N
  N37      1.0000 0.27470  0.87250  0.91539  Biso   1.000  N
  N38      1.0000 0.72530  0.62750  0.91539  Biso   1.000  N
  N39      1.0000 0.87750  0.52470  0.16539  Biso   1.000  N
  N40      1.0000 0.12250  0.97530  0.16539  Biso   1.000  N
  N41      1.0000 0.22530  0.62750  0.58461  Biso   1.000  N
  N42      1.0000 0.77470  0.87250  0.58461  Biso   1.000  N
  N43      1.0000 0.12250  0.47530  0.83461  Biso   1.000  N
  N44      1.0000 0.87750  0.02470  0.83461  Biso   1.000  N
  N45      1.0000 0.72530  0.12750  0.08461  Biso   1.000  N
  N46      1.0000 0.27470  0.37250  0.08461  Biso   1.000  N
  N47      1.0000 0.62250  0.97530  0.33461  Biso   1.000  N
  N48      1.0000 0.37750  0.52470  0.33461  Biso   1.000  N
  N49      1.0000 0.61780  0.35100  0.53632  Biso   1.000  N
  N50      1.0000 0.38220  0.14900  0.53632  Biso   1.000  N
  N51      1.0000 0.39900  0.86780  0.78632  Biso   1.000  N
  N52      1.0000 0.60100  0.63220  0.78632  Biso   1.000  N
  N53      1.0000 0.11780  0.85100  0.03632  Biso   1.000  N
  N54      1.0000 0.88220  0.64900  0.03632  Biso   1.000  N
  N55      1.0000 0.89900  0.36780  0.28632  Biso   1.000  N
  N56      1.0000 0.10100  0.13220  0.28632  Biso   1.000  N
  N57      1.0000 0.38220  0.64900  0.46368  Biso   1.000  N
  N58      1.0000 0.61780  0.85100  0.46368  Biso   1.000  N
  N59      1.0000 0.10100  0.63220  0.71368  Biso   1.000  N
  N60      1.0000 0.89900  0.86780  0.71368  Biso   1.000  N
  N61      1.0000 0.88220  0.14900  0.96368  Biso   1.000  N
  N62      1.0000 0.11780  0.35100  0.96368  Biso   1.000  N
  N63      1.0000 0.60100  0.13220  0.21368  Biso   1.000  N
  N64      1.0000 0.39900  0.36780  0.21368  Biso   1.000  N
  N65      1.0000 0.27920  0.41640  0.54032  Biso   1.000  N
  N66      1.0000 0.72080  0.08360  0.54032  Biso   1.000  N
  N67      1.0000 0.33360  0.52920  0.79032  Biso   1.000  N
  N68      1.0000 0.66640  0.97080  0.79032  Biso   1.000  N
  N69      1.0000 0.77920  0.91640  0.04032  Biso   1.000  N
  N70      1.0000 0.22080  0.58360  0.04032  Biso   1.000  N
  N71      1.0000 0.83360  0.02920  0.29032  Biso   1.000  N
  N72      1.0000 0.16640  0.47080  0.29032  Biso   1.000  N
  N73      1.0000 0.72080  0.58360  0.45968  Biso   1.000  N
  N74      1.0000 0.27920  0.91640  0.45968  Biso   1.000  N
  N75      1.0000 0.16640  0.97080  0.70968  Biso   1.000  N
  N76      1.0000 0.83360  0.52920  0.70968  Biso   1.000  N
  N77      1.0000 0.22080  0.08360  0.95968  Biso   1.000  N
  N78      1.0000 0.77920  0.41640  0.95968  Biso   1.000  N
  N79      1.0000 0.66640  0.47080  0.20968  Biso   1.000  N
  N80      1.0000 0.33360  0.02920  0.20968  Biso   1.000  N
  O1       1.0000 0.50504  0.39520  0.39353  Biso   1.000  O
  O2       1.0000 0.49496  0.10480  0.39353  Biso   1.000  O
  O3       1.0000 0.35480  0.75504  0.64353  Biso   1.000  O
  O4       1.0000 0.64520  0.74496  0.64353  Biso   1.000  O
  O5       1.0000 0.00504  0.89520  0.89353  Biso   1.000  O
  O6       1.0000 0.99496  0.60480  0.89353  Biso   1.000  O
  O7       1.0000 0.85480  0.25504  0.14353  Biso   1.000  O
  O8       1.0000 0.14520  0.24496  0.14353  Biso   1.000  O
  O9       1.0000 0.49496  0.60480  0.60647  Biso   1.000  O
  O10      1.0000 0.50504  0.89520  0.60647  Biso   1.000  O
  O11      1.0000 0.14520  0.74496  0.85647  Biso   1.000  O
  O12      1.0000 0.85480  0.75504  0.85647  Biso   1.000  O
  O13      1.0000 0.99496  0.10480  0.10647  Biso   1.000  O
  O14      1.0000 0.00504  0.39520  0.10647  Biso   1.000  O
  O15      1.0000 0.64520  0.24496  0.35647  Biso   1.000  O
  O16      1.0000 0.35480  0.25504  0.35647  Biso   1.000  O
  O17      1.0000 0.35019  0.40900  0.40121  Biso   1.000  O
  O18      1.0000 0.64981  0.09100  0.40121  Biso   1.000  O
  O19      1.0000 0.34100  0.60019  0.65121  Biso   1.000  O
  O20      1.0000 0.65900  0.89981  0.65121  Biso   1.000  O
  O21      1.0000 0.85019  0.90900  0.90121  Biso   1.000  O
  O22      1.0000 0.14981  0.59100  0.90121  Biso   1.000  O
  O23      1.0000 0.84100  0.10019  0.15121  Biso   1.000  O
  O24      1.0000 0.15900  0.39981  0.15121  Biso   1.000  O
  O25      1.0000 0.64981  0.59100  0.59879  Biso   1.000  O
  O26      1.0000 0.35019  0.90900  0.59879  Biso   1.000  O
  O27      1.0000 0.15900  0.89981  0.84879  Biso   1.000  O
  O28      1.0000 0.84100  0.60019  0.84879  Biso   1.000  O
  O29      1.0000 0.14981  0.09100  0.09879  Biso   1.000  O
  O30      1.0000 0.85019  0.40900  0.09879  Biso   1.000  O
  O31      1.0000 0.65900  0.39981  0.34879  Biso   1.000  O
  O32      1.0000 0.34100  0.10019  0.34879  Biso   1.000  O
  O33      1.0000 0.61166  0.36380  0.45682  Biso   1.000  O
  O34      1.0000 0.38834  0.13620  0.45682  Biso   1.000  O
  O35      1.0000 0.38620  0.86166  0.70682  Biso   1.000  O
  O36      1.0000 0.61380  0.63834  0.70682  Biso   1.000  O
  O37      1.0000 0.11166  0.86380  0.95682  Biso   1.000  O
  O38      1.0000 0.88834  0.63620  0.95682  Biso   1.000  O
  O39      1.0000 0.88620  0.36166  0.20682  Biso   1.000  O
  O40      1.0000 0.11380  0.13834  0.20682  Biso   1.000  O
  O41      1.0000 0.38834  0.63620  0.54318  Biso   1.000  O
  O42      1.0000 0.61166  0.86380  0.54318  Biso   1.000  O
  O43      1.0000 0.11380  0.63834  0.79318  Biso   1.000  O
  O44      1.0000 0.88620  0.86166  0.79318  Biso   1.000  O
  O45      1.0000 0.88834  0.13620  0.04318  Biso   1.000  O
  O46      1.0000 0.11166  0.36380  0.04318  Biso   1.000  O
  O47      1.0000 0.61380  0.13834  0.29318  Biso   1.000  O
  O48      1.0000 0.38620  0.36166  0.29318  Biso   1.000  O
  O49      1.0000 0.69540  0.38530  0.52450  Biso   1.000  O
  O50      1.0000 0.30460  0.11470  0.52450  Biso   1.000  O
  O51      1.0000 0.36470  0.94540  0.77450  Biso   1.000  O
  O52      1.0000 0.63530  0.55460  0.77450  Biso   1.000  O
  O53      1.0000 0.19540  0.88530  0.02450  Biso   1.000  O
  O54      1.0000 0.80460  0.61470  0.02450  Biso   1.000  O
  O55      1.0000 0.86470  0.44540  0.27450  Biso   1.000  O
  O56      1.0000 0.13530  0.05460  0.27450  Biso   1.000  O
  O57      1.0000 0.30460  0.61470  0.47550  Biso   1.000  O
  O58      1.0000 0.69540  0.88530  0.47550  Biso   1.000  O
  O59      1.0000 0.13530  0.55460  0.72550  Biso   1.000  O
  O60      1.0000 0.86470  0.94540  0.72550  Biso   1.000  O
  O61      1.0000 0.80460  0.11470  0.97550  Biso   1.000  O
  O62      1.0000 0.19540  0.38530  0.97550  Biso   1.000  O
  O63      1.0000 0.63530  0.05460  0.22550  Biso   1.000  O
  O64      1.0000 0.36470  0.44540  0.22550  Biso   1.000  O
  O65      1.0000 0.61420  0.35860  0.56950  Biso   1.000  O
  O66      1.0000 0.38580  0.14140  0.56950  Biso   1.000  O
  O67      1.0000 0.39140  0.86420  0.81950  Biso   1.000  O
  O68      1.0000 0.60860  0.63580  0.81950  Biso   1.000  O
  O69      1.0000 0.11420  0.85860  0.06950  Biso   1.000  O
  O70      1.0000 0.88580  0.64140  0.06950  Biso   1.000  O
  O71      1.0000 0.89140  0.36420  0.31950  Biso   1.000  O
  O72      1.0000 0.10860  0.13580  0.31950  Biso   1.000  O
  O73      1.0000 0.38580  0.64140  0.43050  Biso   1.000  O
  O74      1.0000 0.61420  0.85860  0.43050  Biso   1.000  O
  O75      1.0000 0.10860  0.63580  0.68050  Biso   1.000  O
  O76      1.0000 0.89140  0.86420  0.68050  Biso   1.000  O
  O77      1.0000 0.88580  0.14140  0.93050  Biso   1.000  O
  O78      1.0000 0.11420  0.35860  0.93050  Biso   1.000  O
  O79      1.0000 0.60860  0.13580  0.18050  Biso   1.000  O
  O80      1.0000 0.39140  0.36420  0.18050  Biso   1.000  O
  O81      1.0000 0.28800  0.41870  0.57516  Biso   1.000  O
  O82      1.0000 0.71200  0.08130  0.57516  Biso   1.000  O
  O83      1.0000 0.33130  0.53800  0.82516  Biso   1.000  O
  O84      1.0000 0.66870  0.96200  0.82516  Biso   1.000  O
  O85      1.0000 0.78800  0.91870  0.07516  Biso   1.000  O
  O86      1.0000 0.21200  0.58130  0.07516  Biso   1.000  O
  O87      1.0000 0.83130  0.03800  0.32516  Biso   1.000  O
  O88      1.0000 0.16870  0.46200  0.32516  Biso   1.000  O
  O89      1.0000 0.71200  0.58130  0.42484  Biso   1.000  O
  O90      1.0000 0.28800  0.91870  0.42484  Biso   1.000  O
  O91      1.0000 0.16870  0.96200  0.67484  Biso   1.000  O
  O92      1.0000 0.83130  0.53800  0.67484  Biso   1.000  O
  O93      1.0000 0.21200  0.08130  0.92484  Biso   1.000  O
  O94      1.0000 0.78800  0.41870  0.92484  Biso   1.000  O
  O95      1.0000 0.66870  0.46200  0.17484  Biso   1.000  O
  O96      1.0000 0.33130  0.03800  0.17484  Biso   1.000  O
  O97      1.0000 0.20380  0.43190  0.52410  Biso   1.000  O
  O98      1.0000 0.79620  0.06810  0.52410  Biso   1.000  O
  O99      1.0000 0.31810  0.45380  0.77410  Biso   1.000  O
  O100     1.0000 0.68190  0.04620  0.77410  Biso   1.000  O
  O101     1.0000 0.70380  0.93190  0.02410  Biso   1.000  O
  O102     1.0000 0.29620  0.56810  0.02410  Biso   1.000  O
  O103     1.0000 0.81810  0.95380  0.27410  Biso   1.000  O
  O104     1.0000 0.18190  0.54620  0.27410  Biso   1.000  O
  O105     1.0000 0.79620  0.56810  0.47590  Biso   1.000  O
  O106     1.0000 0.20380  0.93190  0.47590  Biso   1.000  O
  O107     1.0000 0.18190  0.04620  0.72590  Biso   1.000  O
  O108     1.0000 0.81810  0.45380  0.72590  Biso   1.000  O
  O109     1.0000 0.29620  0.06810  0.97590  Biso   1.000  O
  O110     1.0000 0.70380  0.43190  0.97590  Biso   1.000  O
  O111     1.0000 0.68190  0.54620  0.22590  Biso   1.000  O
  O112     1.0000 0.31810  0.95380  0.22590  Biso   1.000  O
  C225     1.0000 0.08320  0.43680  0.43080  Biso   1.000  C
  C226     1.0000 0.91680  0.06320  0.43080  Biso   1.000  C
  C227     1.0000 0.31320  0.33320  0.68080  Biso   1.000  C
  C228     1.0000 0.68680  0.16680  0.68080  Biso   1.000  C
  C229     1.0000 0.58320  0.93680  0.93080  Biso   1.000  C
  C230     1.0000 0.41680  0.56320  0.93080  Biso   1.000  C
  C231     1.0000 0.81320  0.83320  0.18080  Biso   1.000  C
  C232     1.0000 0.18680  0.66680  0.18080  Biso   1.000  C
  C233     1.0000 0.91680  0.56320  0.56920  Biso   1.000  C
  C234     1.0000 0.08320  0.93680  0.56920  Biso   1.000  C
  C235     1.0000 0.18680  0.16680  0.81920  Biso   1.000  C
  C236     1.0000 0.81320  0.33320  0.81920  Biso   1.000  C
  C237     1.0000 0.41680  0.06320  0.06920  Biso   1.000  C
  C238     1.0000 0.58320  0.43680  0.06920  Biso   1.000  C
  C239     1.0000 0.68680  0.66680  0.31920  Biso   1.000  C
  C240     1.0000 0.31320  0.83320  0.31920  Biso   1.000  C
  H225     1.0000 0.14870  0.44090  0.42180  Biso   1.000  H
  H226     1.0000 0.85130  0.05910  0.42180  Biso   1.000  H
  H227     1.0000 0.30910  0.39870  0.67180  Biso   1.000  H
  H228     1.0000 0.69090  0.10130  0.67180  Biso   1.000  H
  H229     1.0000 0.64870  0.94090  0.92180  Biso   1.000  H
  H230     1.0000 0.35130  0.55910  0.92180  Biso   1.000  H
  H231     1.0000 0.80910  0.89870  0.17180  Biso   1.000  H
  H232     1.0000 0.19090  0.60130  0.17180  Biso   1.000  H
  H233     1.0000 0.85130  0.55910  0.57820  Biso   1.000  H
  H234     1.0000 0.14870  0.94090  0.57820  Biso   1.000  H
  H235     1.0000 0.19090  0.10130  0.82820  Biso   1.000  H
  H236     1.0000 0.80910  0.39870  0.82820  Biso   1.000  H
  H237     1.0000 0.35130  0.05910  0.07820  Biso   1.000  H
  H238     1.0000 0.64870  0.44090  0.07820  Biso   1.000  H
  H239     1.0000 0.69090  0.60130  0.32820  Biso   1.000  H
  H240     1.0000 0.30910  0.89870  0.32820  Biso   1.000  H
  H241     1.0000 0.08200  0.38920  0.45080  Biso   1.000  H
  H242     1.0000 0.91800  0.11080  0.45080  Biso   1.000  H
  H243     1.0000 0.36080  0.33200  0.70080  Biso   1.000  H
  H244     1.0000 0.63920  0.16800  0.70080  Biso   1.000  H
  H245     1.0000 0.58200  0.88920  0.95080  Biso   1.000  H
  H246     1.0000 0.41800  0.61080  0.95080  Biso   1.000  H
  H247     1.0000 0.86080  0.83200  0.20080  Biso   1.000  H
  H248     1.0000 0.13920  0.66800  0.20080  Biso   1.000  H
  H249     1.0000 0.91800  0.61080  0.54920  Biso   1.000  H
  H250     1.0000 0.08200  0.88920  0.54920  Biso   1.000  H
  H251     1.0000 0.13920  0.16800  0.79920  Biso   1.000  H
  H252     1.0000 0.86080  0.33200  0.79920  Biso   1.000  H
  H253     1.0000 0.41800  0.11080  0.04920  Biso   1.000  H
  H254     1.0000 0.58200  0.38920  0.04920  Biso   1.000  H
  H255     1.0000 0.63920  0.66800  0.29920  Biso   1.000  H
  H256     1.0000 0.36080  0.83200  0.29920  Biso   1.000  H
  C241     1.0000 0.05560  0.53790  0.44910  Biso   1.000  C
  C242     1.0000 0.94440  0.96210  0.44910  Biso   1.000  C
  C243     1.0000 0.21210  0.30560  0.69910  Biso   1.000  C
  C244     1.0000 0.78790  0.19440  0.69910  Biso   1.000  C
  C245     1.0000 0.55560  0.03790  0.94910  Biso   1.000  C
  C246     1.0000 0.44440  0.46210  0.94910  Biso   1.000  C
  C247     1.0000 0.71210  0.80560  0.19910  Biso   1.000  C
  C248     1.0000 0.28790  0.69440  0.19910  Biso   1.000  C
  C249     1.0000 0.94440  0.46210  0.55090  Biso   1.000  C
  C250     1.0000 0.05560  0.03790  0.55090  Biso   1.000  C
  C251     1.0000 0.28790  0.19440  0.80090  Biso   1.000  C
  C252     1.0000 0.71210  0.30560  0.80090  Biso   1.000  C
  C253     1.0000 0.44440  0.96210  0.05090  Biso   1.000  C
  C254     1.0000 0.55560  0.53790  0.05090  Biso   1.000  C
  C255     1.0000 0.78790  0.69440  0.30090  Biso   1.000  C
  C256     1.0000 0.21210  0.80560  0.30090  Biso   1.000  C
  H257     1.0000 0.98670  0.54170  0.45240  Biso   1.000  H
  H258     1.0000 0.01330  0.95830  0.45240  Biso   1.000  H
  H259     1.0000 0.20830  0.23670  0.70240  Biso   1.000  H
  H260     1.0000 0.79170  0.26330  0.70240  Biso   1.000  H
  H261     1.0000 0.48670  0.04170  0.95240  Biso   1.000  H
  H262     1.0000 0.51330  0.45830  0.95240  Biso   1.000  H
  H263     1.0000 0.70830  0.73670  0.20240  Biso   1.000  H
  H264     1.0000 0.29170  0.76330  0.20240  Biso   1.000  H
  H265     1.0000 0.01330  0.45830  0.54760  Biso   1.000  H
  H266     1.0000 0.98670  0.04170  0.54760  Biso   1.000  H
  H267     1.0000 0.29170  0.26330  0.79760  Biso   1.000  H
  H268     1.0000 0.70830  0.23670  0.79760  Biso   1.000  H
  H269     1.0000 0.51330  0.95830  0.04760  Biso   1.000  H
  H270     1.0000 0.48670  0.54170  0.04760  Biso   1.000  H
  H271     1.0000 0.79170  0.76330  0.29760  Biso   1.000  H
  H272     1.0000 0.20830  0.73670  0.29760  Biso   1.000  H
  H273     1.0000 0.08540  0.54410  0.47380  Biso   1.000  H
  H274     1.0000 0.91460  0.95590  0.47380  Biso   1.000  H
  H275     1.0000 0.20590  0.33540  0.72380  Biso   1.000  H
  H276     1.0000 0.79410  0.16460  0.72380  Biso   1.000  H
  H277     1.0000 0.58540  0.04410  0.97380  Biso   1.000  H
  H278     1.0000 0.41460  0.45590  0.97380  Biso   1.000  H
  H279     1.0000 0.70590  0.83540  0.22380  Biso   1.000  H
  H280     1.0000 0.29410  0.66460  0.22380  Biso   1.000  H
  H281     1.0000 0.91460  0.45590  0.52620  Biso   1.000  H
  H282     1.0000 0.08540  0.04410  0.52620  Biso   1.000  H
  H283     1.0000 0.29410  0.16460  0.77620  Biso   1.000  H
  H284     1.0000 0.70590  0.33540  0.77620  Biso   1.000  H
  H285     1.0000 0.41460  0.95590  0.02620  Biso   1.000  H
  H286     1.0000 0.58540  0.54410  0.02620  Biso   1.000  H
  H287     1.0000 0.79410  0.66460  0.27620  Biso   1.000  H
  H288     1.0000 0.20590  0.83540  0.27620  Biso   1.000  H
  C257     1.0000 0.08900  0.62000  0.42300  Biso   1.000  C
  C258     1.0000 0.91100  0.88000  0.42300  Biso   1.000  C
  C259     1.0000 0.13000  0.33900  0.67300  Biso   1.000  C
  C260     1.0000 0.87000  0.16100  0.67300  Biso   1.000  C
  C261     1.0000 0.58900  0.12000  0.92300  Biso   1.000  C
  C262     1.0000 0.41100  0.38000  0.92300  Biso   1.000  C
  C263     1.0000 0.63000  0.83900  0.17300  Biso   1.000  C
  C264     1.0000 0.37000  0.66100  0.17300  Biso   1.000  C
  C265     1.0000 0.91100  0.38000  0.57700  Biso   1.000  C
  C266     1.0000 0.08900  0.12000  0.57700  Biso   1.000  C
  C267     1.0000 0.37000  0.16100  0.82700  Biso   1.000  C
  C268     1.0000 0.63000  0.33900  0.82700  Biso   1.000  C
  C269     1.0000 0.41100  0.88000  0.07700  Biso   1.000  C
  C270     1.0000 0.58900  0.62000  0.07700  Biso   1.000  C
  C271     1.0000 0.87000  0.66100  0.32700  Biso   1.000  C
  C272     1.0000 0.13000  0.83900  0.32700  Biso   1.000  C
  H289     1.0000 0.06390  0.61040  0.39770  Biso   1.000  H
  H290     1.0000 0.93610  0.88960  0.39770  Biso   1.000  H
  H291     1.0000 0.13960  0.31390  0.64770  Biso   1.000  H
  H292     1.0000 0.86040  0.18610  0.64770  Biso   1.000  H
  H293     1.0000 0.56390  0.11040  0.89770  Biso   1.000  H
  H294     1.0000 0.43610  0.38960  0.89770  Biso   1.000  H
  H295     1.0000 0.63960  0.81390  0.14770  Biso   1.000  H
  H296     1.0000 0.36040  0.68610  0.14770  Biso   1.000  H
  H297     1.0000 0.93610  0.38960  0.60230  Biso   1.000  H
  H298     1.0000 0.06390  0.11040  0.60230  Biso   1.000  H
  H299     1.0000 0.36040  0.18610  0.85230  Biso   1.000  H
  H300     1.0000 0.63960  0.31390  0.85230  Biso   1.000  H
  H301     1.0000 0.43610  0.88960  0.10230  Biso   1.000  H
  H302     1.0000 0.56390  0.61040  0.10230  Biso   1.000  H
  H303     1.0000 0.86040  0.68610  0.35230  Biso   1.000  H
  H304     1.0000 0.13960  0.81390  0.35230  Biso   1.000  H
  H305     1.0000 0.15880  0.61890  0.42130  Biso   1.000  H
  H306     1.0000 0.84120  0.88110  0.42130  Biso   1.000  H
  H307     1.0000 0.13110  0.40880  0.67130  Biso   1.000  H
  H308     1.0000 0.86890  0.09120  0.67130  Biso   1.000  H
  H309     1.0000 0.65880  0.11890  0.92130  Biso   1.000  H
  H310     1.0000 0.34120  0.38110  0.92130  Biso   1.000  H
  H311     1.0000 0.63110  0.90880  0.17130  Biso   1.000  H
  H312     1.0000 0.36890  0.59120  0.17130  Biso   1.000  H
  H313     1.0000 0.84120  0.38110  0.57870  Biso   1.000  H
  H314     1.0000 0.15880  0.11890  0.57870  Biso   1.000  H
  H315     1.0000 0.36890  0.09120  0.82870  Biso   1.000  H
  H316     1.0000 0.63110  0.40880  0.82870  Biso   1.000  H
  H317     1.0000 0.34120  0.88110  0.07870  Biso   1.000  H
  H318     1.0000 0.65880  0.61890  0.07870  Biso   1.000  H
  H319     1.0000 0.86890  0.59120  0.32870  Biso   1.000  H
  H320     1.0000 0.13110  0.90880  0.32870  Biso   1.000  H
  O113     1.0000 0.68400  0.31230  0.52070  Biso   1.000  O
  O114     1.0000 0.31600  0.18770  0.52070  Biso   1.000  O
  O115     1.0000 0.43770  0.93400  0.77070  Biso   1.000  O
  O116     1.0000 0.56230  0.56600  0.77070  Biso   1.000  O
  O117     1.0000 0.18400  0.81230  0.02070  Biso   1.000  O
  O118     1.0000 0.81600  0.68770  0.02070  Biso   1.000  O
  O119     1.0000 0.93770  0.43400  0.27070  Biso   1.000  O
  O120     1.0000 0.06230  0.06600  0.27070  Biso   1.000  O
  O121     1.0000 0.31600  0.68770  0.47930  Biso   1.000  O
  O122     1.0000 0.68400  0.81230  0.47930  Biso   1.000  O
  O123     1.0000 0.06230  0.56600  0.72930  Biso   1.000  O
  O124     1.0000 0.93770  0.93400  0.72930  Biso   1.000  O
  O125     1.0000 0.81600  0.18770  0.97930  Biso   1.000  O
  O126     1.0000 0.18400  0.31230  0.97930  Biso   1.000  O
  O127     1.0000 0.56230  0.06600  0.22930  Biso   1.000  O
  O128     1.0000 0.43770  0.43400  0.22930  Biso   1.000  O
  O129     1.0000 0.61040  0.31110  0.56790  Biso   1.000  O
  O130     1.0000 0.38960  0.18890  0.56790  Biso   1.000  O
  O131     1.0000 0.43890  0.86040  0.81790  Biso   1.000  O
  O132     1.0000 0.56110  0.63960  0.81790  Biso   1.000  O
  O133     1.0000 0.11040  0.81110  0.06790  Biso   1.000  O
  O134     1.0000 0.88960  0.68890  0.06790  Biso   1.000  O
  O135     1.0000 0.93890  0.36040  0.31790  Biso   1.000  O
  O136     1.0000 0.06110  0.13960  0.31790  Biso   1.000  O
  O137     1.0000 0.38960  0.68890  0.43210  Biso   1.000  O
  O138     1.0000 0.61040  0.81110  0.43210  Biso   1.000  O
  O139     1.0000 0.06110  0.63960  0.68210  Biso   1.000  O
  O140     1.0000 0.93890  0.86040  0.68210  Biso   1.000  O
  O141     1.0000 0.88960  0.18890  0.93210  Biso   1.000  O
  O142     1.0000 0.11040  0.31110  0.93210  Biso   1.000  O
  O143     1.0000 0.56110  0.13960  0.18210  Biso   1.000  O
  O144     1.0000 0.43890  0.36040  0.18210  Biso   1.000  O
