data_image0
_cell_length_a       23.5968
_cell_length_b       20.9087
_cell_length_c       14.5568
_cell_angle_alpha    90
_cell_angle_beta     98.621
_cell_angle_gamma    90

_symmetry_space_group_name_H-M    "P 1"
_symmetry_int_tables_number       1

loop_
  _symmetry_equiv_pos_as_xyz
  'x, y, z'

loop_
  _atom_site_label
  _atom_site_occupancy
  _atom_site_fract_x
  _atom_site_fract_y
  _atom_site_fract_z
  _atom_site_thermal_displace_type
  _atom_site_B_iso_or_equiv
  _atom_site_type_symbol
  Cu1      1.0000 0.49593  0.51568  0.12728  Biso   1.000  Cu
  Cu2      1.0000 0.50407  0.51568  0.37272  Biso   1.000  Cu
  Cu3      1.0000 0.99593  0.01568  0.12728  Biso   1.000  Cu
  Cu4      1.0000 0.00407  0.01568  0.37272  Biso   1.000  Cu
  Cu5      1.0000 0.50407  0.48432  0.87272  Biso   1.000  Cu
  Cu6      1.0000 0.49593  0.48432  0.62728  Biso   1.000  Cu
  Cu7      1.0000 0.00407  0.98432  0.87272  Biso   1.000  Cu
  Cu8      1.0000 0.99593  0.98432  0.62728  Biso   1.000  Cu
  Cu9      1.0000 0.41930  0.38161  0.07120  Biso   1.000  Cu
  Cu10     1.0000 0.58070  0.38161  0.42880  Biso   1.000  Cu
  Cu11     1.0000 0.91930  0.88161  0.07120  Biso   1.000  Cu
  Cu12     1.0000 0.08070  0.88161  0.42880  Biso   1.000  Cu
  Cu13     1.0000 0.58070  0.61839  0.92880  Biso   1.000  Cu
  Cu14     1.0000 0.41930  0.61839  0.57120  Biso   1.000  Cu
  Cu15     1.0000 0.08070  0.11839  0.92880  Biso   1.000  Cu
  Cu16     1.0000 0.91930  0.11839  0.57120  Biso   1.000  Cu
  Cu17     1.0000 0.50000  0.20107  0.25000  Biso   1.000  Cu
  Cu18     1.0000 0.00000  0.70107  0.25000  Biso   1.000  Cu
  Cu19     1.0000 0.50000  0.79893  0.75000  Biso   1.000  Cu
  Cu20     1.0000 0.00000  0.29893  0.75000  Biso   1.000  Cu
  C1       1.0000 0.34830  0.48210  0.95650  Biso   1.000  C
  C2       1.0000 0.65170  0.48210  0.54350  Biso   1.000  C
  C3       1.0000 0.84830  0.98210  0.95650  Biso   1.000  C
  C4       1.0000 0.15170  0.98210  0.54350  Biso   1.000  C
  C5       1.0000 0.65170  0.51790  0.04350  Biso   1.000  C
  C6       1.0000 0.34830  0.51790  0.45650  Biso   1.000  C
  C7       1.0000 0.15170  0.01790  0.04350  Biso   1.000  C
  C8       1.0000 0.84830  0.01790  0.45650  Biso   1.000  C
  H1       1.0000 0.31920  0.45430  0.93130  Biso   1.000  H
  H2       1.0000 0.68080  0.45430  0.56870  Biso   1.000  H
  H3       1.0000 0.81920  0.95430  0.93130  Biso   1.000  H
  H4       1.0000 0.18080  0.95430  0.56870  Biso   1.000  H
  H5       1.0000 0.68080  0.54570  0.06870  Biso   1.000  H
  H6       1.0000 0.31920  0.54570  0.43130  Biso   1.000  H
  H7       1.0000 0.18080  0.04570  0.06870  Biso   1.000  H
  H8       1.0000 0.81920  0.04570  0.43130  Biso   1.000  H
  C9       1.0000 0.39650  0.56620  0.99180  Biso   1.000  C
  C10      1.0000 0.60350  0.56620  0.50820  Biso   1.000  C
  C11      1.0000 0.89650  0.06620  0.99180  Biso   1.000  C
  C12      1.0000 0.10350  0.06620  0.50820  Biso   1.000  C
  C13      1.0000 0.60350  0.43380  0.00820  Biso   1.000  C
  C14      1.0000 0.39650  0.43380  0.49180  Biso   1.000  C
  C15      1.0000 0.10350  0.93380  0.00820  Biso   1.000  C
  C16      1.0000 0.89650  0.93380  0.49180  Biso   1.000  C
  H9       1.0000 0.40780  0.60880  0.99580  Biso   1.000  H
  H10      1.0000 0.59220  0.60880  0.50420  Biso   1.000  H
  H11      1.0000 0.90780  0.10880  0.99580  Biso   1.000  H
  H12      1.0000 0.09220  0.10880  0.50420  Biso   1.000  H
  H13      1.0000 0.59220  0.39120  0.00420  Biso   1.000  H
  H14      1.0000 0.40780  0.39120  0.49580  Biso   1.000  H
  H15      1.0000 0.09220  0.89120  0.00420  Biso   1.000  H
  H16      1.0000 0.90780  0.89120  0.49580  Biso   1.000  H
  C17      1.0000 0.30000  0.58190  0.88920  Biso   1.000  C
  C18      1.0000 0.70000  0.58190  0.61080  Biso   1.000  C
  C19      1.0000 0.80000  0.08190  0.88920  Biso   1.000  C
  C20      1.0000 0.20000  0.08190  0.61080  Biso   1.000  C
  C21      1.0000 0.70000  0.41810  0.11080  Biso   1.000  C
  C22      1.0000 0.30000  0.41810  0.38920  Biso   1.000  C
  C23      1.0000 0.20000  0.91810  0.11080  Biso   1.000  C
  C24      1.0000 0.80000  0.91810  0.38920  Biso   1.000  C
  H17      1.0000 0.28810  0.56190  0.82930  Biso   1.000  H
  H18      1.0000 0.71190  0.56190  0.67070  Biso   1.000  H
  H19      1.0000 0.78810  0.06190  0.82930  Biso   1.000  H
  H20      1.0000 0.21190  0.06190  0.67070  Biso   1.000  H
  H21      1.0000 0.71190  0.43810  0.17070  Biso   1.000  H
  H22      1.0000 0.28810  0.43810  0.32930  Biso   1.000  H
  H23      1.0000 0.21190  0.93810  0.17070  Biso   1.000  H
  H24      1.0000 0.78810  0.93810  0.32930  Biso   1.000  H
  H25      1.0000 0.31330  0.62470  0.87850  Biso   1.000  H
  H26      1.0000 0.68670  0.62470  0.62150  Biso   1.000  H
  H27      1.0000 0.81330  0.12470  0.87850  Biso   1.000  H
  H28      1.0000 0.18670  0.12470  0.62150  Biso   1.000  H
  H29      1.0000 0.68670  0.37530  0.12150  Biso   1.000  H
  H30      1.0000 0.31330  0.37530  0.37850  Biso   1.000  H
  H31      1.0000 0.18670  0.87530  0.12150  Biso   1.000  H
  H32      1.0000 0.81330  0.87530  0.37850  Biso   1.000  H
  C25      1.0000 0.24940  0.58550  0.94190  Biso   1.000  C
  C26      1.0000 0.75060  0.58550  0.55810  Biso   1.000  C
  C27      1.0000 0.74940  0.08550  0.94190  Biso   1.000  C
  C28      1.0000 0.25060  0.08550  0.55810  Biso   1.000  C
  C29      1.0000 0.75060  0.41450  0.05810  Biso   1.000  C
  C30      1.0000 0.24940  0.41450  0.44190  Biso   1.000  C
  C31      1.0000 0.25060  0.91450  0.05810  Biso   1.000  C
  C32      1.0000 0.74940  0.91450  0.44190  Biso   1.000  C
  H33      1.0000 0.21840  0.60840  0.90470  Biso   1.000  H
  H34      1.0000 0.78160  0.60840  0.59530  Biso   1.000  H
  H35      1.0000 0.71840  0.10840  0.90470  Biso   1.000  H
  H36      1.0000 0.28160  0.10840  0.59530  Biso   1.000  H
  H37      1.0000 0.78160  0.39160  0.09530  Biso   1.000  H
  H38      1.0000 0.21840  0.39160  0.40470  Biso   1.000  H
  H39      1.0000 0.28160  0.89160  0.09530  Biso   1.000  H
  H40      1.0000 0.71840  0.89160  0.40470  Biso   1.000  H
  H41      1.0000 0.23610  0.54250  0.95190  Biso   1.000  H
  H42      1.0000 0.76390  0.54250  0.54810  Biso   1.000  H
  H43      1.0000 0.73610  0.04250  0.95190  Biso   1.000  H
  H44      1.0000 0.26390  0.04250  0.54810  Biso   1.000  H
  H45      1.0000 0.76390  0.45750  0.04810  Biso   1.000  H
  H46      1.0000 0.23610  0.45750  0.45190  Biso   1.000  H
  H47      1.0000 0.26390  0.95750  0.04810  Biso   1.000  H
  H48      1.0000 0.73610  0.95750  0.45190  Biso   1.000  H
  C33      1.0000 0.26400  0.61810  0.03320  Biso   1.000  C
  C34      1.0000 0.73600  0.61810  0.46680  Biso   1.000  C
  C35      1.0000 0.76400  0.11810  0.03320  Biso   1.000  C
  C36      1.0000 0.23600  0.11810  0.46680  Biso   1.000  C
  C37      1.0000 0.73600  0.38190  0.96680  Biso   1.000  C
  C38      1.0000 0.26400  0.38190  0.53320  Biso   1.000  C
  C39      1.0000 0.23600  0.88190  0.96680  Biso   1.000  C
  C40      1.0000 0.76400  0.88190  0.53320  Biso   1.000  C
  H49      1.0000 0.28130  0.65910  0.02300  Biso   1.000  H
  H50      1.0000 0.71870  0.65910  0.47700  Biso   1.000  H
  H51      1.0000 0.78130  0.15910  0.02300  Biso   1.000  H
  H52      1.0000 0.21870  0.15910  0.47700  Biso   1.000  H
  H53      1.0000 0.71870  0.34090  0.97700  Biso   1.000  H
  H54      1.0000 0.28130  0.34090  0.52300  Biso   1.000  H
  H55      1.0000 0.21870  0.84090  0.97700  Biso   1.000  H
  H56      1.0000 0.78130  0.84090  0.52300  Biso   1.000  H
  H57      1.0000 0.29250  0.59270  0.07190  Biso   1.000  H
  H58      1.0000 0.70750  0.59270  0.42810  Biso   1.000  H
  H59      1.0000 0.79250  0.09270  0.07190  Biso   1.000  H
  H60      1.0000 0.20750  0.09270  0.42810  Biso   1.000  H
  H61      1.0000 0.70750  0.40730  0.92810  Biso   1.000  H
  H62      1.0000 0.29250  0.40730  0.57190  Biso   1.000  H
  H63      1.0000 0.20750  0.90730  0.92810  Biso   1.000  H
  H64      1.0000 0.79250  0.90730  0.57190  Biso   1.000  H
  C41      1.0000 0.21330  0.62980  0.08700  Biso   1.000  C
  C42      1.0000 0.78670  0.62980  0.41300  Biso   1.000  C
  C43      1.0000 0.71330  0.12980  0.08700  Biso   1.000  C
  C44      1.0000 0.28670  0.12980  0.41300  Biso   1.000  C
  C45      1.0000 0.78670  0.37020  0.91300  Biso   1.000  C
  C46      1.0000 0.21330  0.37020  0.58700  Biso   1.000  C
  C47      1.0000 0.28670  0.87020  0.91300  Biso   1.000  C
  C48      1.0000 0.71330  0.87020  0.58700  Biso   1.000  C
  H65      1.0000 0.19430  0.58940  0.09470  Biso   1.000  H
  H66      1.0000 0.80570  0.58940  0.40530  Biso   1.000  H
  H67      1.0000 0.69430  0.08940  0.09470  Biso   1.000  H
  H68      1.0000 0.30570  0.08940  0.40530  Biso   1.000  H
  H69      1.0000 0.80570  0.41060  0.90530  Biso   1.000  H
  H70      1.0000 0.19430  0.41060  0.59470  Biso   1.000  H
  H71      1.0000 0.30570  0.91060  0.90530  Biso   1.000  H
  H72      1.0000 0.69430  0.91060  0.59470  Biso   1.000  H
  H73      1.0000 0.22790  0.64610  0.14840  Biso   1.000  H
  H74      1.0000 0.77210  0.64610  0.35160  Biso   1.000  H
  H75      1.0000 0.72790  0.14610  0.14840  Biso   1.000  H
  H76      1.0000 0.27210  0.14610  0.35160  Biso   1.000  H
  H77      1.0000 0.77210  0.35390  0.85160  Biso   1.000  H
  H78      1.0000 0.22790  0.35390  0.64840  Biso   1.000  H
  H79      1.0000 0.27210  0.85390  0.85160  Biso   1.000  H
  H80      1.0000 0.72790  0.85390  0.64840  Biso   1.000  H
  C49      1.0000 0.17100  0.67560  0.03890  Biso   1.000  C
  C50      1.0000 0.82900  0.67560  0.46110  Biso   1.000  C
  C51      1.0000 0.67100  0.17560  0.03890  Biso   1.000  C
  C52      1.0000 0.32900  0.17560  0.46110  Biso   1.000  C
  C53      1.0000 0.82900  0.32440  0.96110  Biso   1.000  C
  C54      1.0000 0.17100  0.32440  0.53890  Biso   1.000  C
  C55      1.0000 0.32900  0.82440  0.96110  Biso   1.000  C
  C56      1.0000 0.67100  0.82440  0.53890  Biso   1.000  C
  H81      1.0000 0.19130  0.70960  0.01230  Biso   1.000  H
  H82      1.0000 0.80870  0.70960  0.48770  Biso   1.000  H
  H83      1.0000 0.69130  0.20960  0.01230  Biso   1.000  H
  H84      1.0000 0.30870  0.20960  0.48770  Biso   1.000  H
  H85      1.0000 0.80870  0.29040  0.98770  Biso   1.000  H
  H86      1.0000 0.19130  0.29040  0.51230  Biso   1.000  H
  H87      1.0000 0.30870  0.79040  0.98770  Biso   1.000  H
  H88      1.0000 0.69130  0.79040  0.51230  Biso   1.000  H
  H89      1.0000 0.14720  0.65380  0.98840  Biso   1.000  H
  H90      1.0000 0.85280  0.65380  0.51160  Biso   1.000  H
  H91      1.0000 0.64720  0.15380  0.98840  Biso   1.000  H
  H92      1.0000 0.35280  0.15380  0.51160  Biso   1.000  H
  H93      1.0000 0.85280  0.34620  0.01160  Biso   1.000  H
  H94      1.0000 0.14720  0.34620  0.48840  Biso   1.000  H
  H95      1.0000 0.35280  0.84620  0.01160  Biso   1.000  H
  H96      1.0000 0.64720  0.84620  0.48840  Biso   1.000  H
  C57      1.0000 0.14230  0.76040  0.13740  Biso   1.000  C
  C58      1.0000 0.85770  0.76040  0.36260  Biso   1.000  C
  C59      1.0000 0.64230  0.26040  0.13740  Biso   1.000  C
  C60      1.0000 0.35770  0.26040  0.36260  Biso   1.000  C
  C61      1.0000 0.85770  0.23960  0.86260  Biso   1.000  C
  C62      1.0000 0.14230  0.23960  0.63740  Biso   1.000  C
  C63      1.0000 0.35770  0.73960  0.86260  Biso   1.000  C
  C64      1.0000 0.64230  0.73960  0.63740  Biso   1.000  C
  H97      1.0000 0.17110  0.78930  0.12960  Biso   1.000  H
  H98      1.0000 0.82890  0.78930  0.37040  Biso   1.000  H
  H99      1.0000 0.67110  0.28930  0.12960  Biso   1.000  H
  H100     1.0000 0.32890  0.28930  0.37040  Biso   1.000  H
  H101     1.0000 0.82890  0.21070  0.87040  Biso   1.000  H
  H102     1.0000 0.17110  0.21070  0.62960  Biso   1.000  H
  H103     1.0000 0.32890  0.71070  0.87040  Biso   1.000  H
  H104     1.0000 0.67110  0.71070  0.62960  Biso   1.000  H
  C65      1.0000 0.08790  0.67650  0.12760  Biso   1.000  C
  C66      1.0000 0.91210  0.67650  0.37240  Biso   1.000  C
  C67      1.0000 0.58790  0.17650  0.12760  Biso   1.000  C
  C68      1.0000 0.41210  0.17650  0.37240  Biso   1.000  C
  C69      1.0000 0.91210  0.32350  0.87240  Biso   1.000  C
  C70      1.0000 0.08790  0.32350  0.62760  Biso   1.000  C
  C71      1.0000 0.41210  0.82350  0.87240  Biso   1.000  C
  C72      1.0000 0.58790  0.82350  0.62760  Biso   1.000  C
  H105     1.0000 0.07330  0.63650  0.10870  Biso   1.000  H
  H106     1.0000 0.92670  0.63650  0.39130  Biso   1.000  H
  H107     1.0000 0.57330  0.13650  0.10870  Biso   1.000  H
  H108     1.0000 0.42670  0.13650  0.39130  Biso   1.000  H
  H109     1.0000 0.92670  0.36350  0.89130  Biso   1.000  H
  H110     1.0000 0.07330  0.36350  0.60870  Biso   1.000  H
  H111     1.0000 0.42670  0.86350  0.89130  Biso   1.000  H
  H112     1.0000 0.57330  0.86350  0.60870  Biso   1.000  H
  C73      1.0000 0.58660  0.62550  0.21500  Biso   1.000  C
  C74      1.0000 0.41340  0.62550  0.28500  Biso   1.000  C
  C75      1.0000 0.08660  0.12550  0.21500  Biso   1.000  C
  C76      1.0000 0.91340  0.12550  0.28500  Biso   1.000  C
  C77      1.0000 0.41340  0.37450  0.78500  Biso   1.000  C
  C78      1.0000 0.58660  0.37450  0.71500  Biso   1.000  C
  C79      1.0000 0.91340  0.87450  0.78500  Biso   1.000  C
  C80      1.0000 0.08660  0.87450  0.71500  Biso   1.000  C
  C81      1.0000 0.53620  0.64580  0.15510  Biso   1.000  C
  C82      1.0000 0.46380  0.64580  0.34490  Biso   1.000  C
  C83      1.0000 0.03620  0.14580  0.15510  Biso   1.000  C
  C84      1.0000 0.96380  0.14580  0.34490  Biso   1.000  C
  C85      1.0000 0.46380  0.35420  0.84490  Biso   1.000  C
  C86      1.0000 0.53620  0.35420  0.65510  Biso   1.000  C
  C87      1.0000 0.96380  0.85420  0.84490  Biso   1.000  C
  C88      1.0000 0.03620  0.85420  0.65510  Biso   1.000  C
  C89      1.0000 0.52790  0.71240  0.14410  Biso   1.000  C
  C90      1.0000 0.47210  0.71240  0.35590  Biso   1.000  C
  C91      1.0000 0.02790  0.21240  0.14410  Biso   1.000  C
  C92      1.0000 0.97210  0.21240  0.35590  Biso   1.000  C
  C93      1.0000 0.47210  0.28760  0.85590  Biso   1.000  C
  C94      1.0000 0.52790  0.28760  0.64410  Biso   1.000  C
  C95      1.0000 0.97210  0.78760  0.85590  Biso   1.000  C
  C96      1.0000 0.02790  0.78760  0.64410  Biso   1.000  C
  C97      1.0000 0.56570  0.75720  0.18680  Biso   1.000  C
  C98      1.0000 0.43430  0.75720  0.31320  Biso   1.000  C
  C99      1.0000 0.06570  0.25720  0.18680  Biso   1.000  C
  C100     1.0000 0.93430  0.25720  0.31320  Biso   1.000  C
  C101     1.0000 0.43430  0.24280  0.81320  Biso   1.000  C
  C102     1.0000 0.56570  0.24280  0.68680  Biso   1.000  C
  C103     1.0000 0.93430  0.74280  0.81320  Biso   1.000  C
  C104     1.0000 0.06570  0.74280  0.68680  Biso   1.000  C
  H113     1.0000 0.55890  0.80070  0.17830  Biso   1.000  H
  H114     1.0000 0.44110  0.80070  0.32170  Biso   1.000  H
  H115     1.0000 0.05890  0.30070  0.17830  Biso   1.000  H
  H116     1.0000 0.94110  0.30070  0.32170  Biso   1.000  H
  H117     1.0000 0.44110  0.19930  0.82170  Biso   1.000  H
  H118     1.0000 0.55890  0.19930  0.67830  Biso   1.000  H
  H119     1.0000 0.94110  0.69930  0.82170  Biso   1.000  H
  H120     1.0000 0.05890  0.69930  0.67830  Biso   1.000  H
  C105     1.0000 0.61440  0.73480  0.24300  Biso   1.000  C
  C106     1.0000 0.38560  0.73480  0.25700  Biso   1.000  C
  C107     1.0000 0.11440  0.23480  0.24300  Biso   1.000  C
  C108     1.0000 0.88560  0.23480  0.25700  Biso   1.000  C
  C109     1.0000 0.38560  0.26520  0.75700  Biso   1.000  C
  C110     1.0000 0.61440  0.26520  0.74300  Biso   1.000  C
  C111     1.0000 0.88560  0.76520  0.75700  Biso   1.000  C
  C112     1.0000 0.11440  0.76520  0.74300  Biso   1.000  C
  C113     1.0000 0.62460  0.67090  0.25670  Biso   1.000  C
  C114     1.0000 0.37540  0.67090  0.24330  Biso   1.000  C
  C115     1.0000 0.12460  0.17090  0.25670  Biso   1.000  C
  C116     1.0000 0.87540  0.17090  0.24330  Biso   1.000  C
  C117     1.0000 0.37540  0.32910  0.74330  Biso   1.000  C
  C118     1.0000 0.62460  0.32910  0.75670  Biso   1.000  C
  C119     1.0000 0.87540  0.82910  0.74330  Biso   1.000  C
  C120     1.0000 0.12460  0.82910  0.75670  Biso   1.000  C
  H121     1.0000 0.65780  0.65770  0.29490  Biso   1.000  H
  H122     1.0000 0.34220  0.65770  0.20510  Biso   1.000  H
  H123     1.0000 0.15780  0.15770  0.29490  Biso   1.000  H
  H124     1.0000 0.84220  0.15770  0.20510  Biso   1.000  H
  H125     1.0000 0.34220  0.34230  0.70510  Biso   1.000  H
  H126     1.0000 0.65780  0.34230  0.79490  Biso   1.000  H
  H127     1.0000 0.84220  0.84230  0.70510  Biso   1.000  H
  H128     1.0000 0.15780  0.84230  0.79490  Biso   1.000  H
  C121     1.0000 0.60150  0.55690  0.23810  Biso   1.000  C
  C122     1.0000 0.39850  0.55690  0.26190  Biso   1.000  C
  C123     1.0000 0.10150  0.05690  0.23810  Biso   1.000  C
  C124     1.0000 0.89850  0.05690  0.26190  Biso   1.000  C
  C125     1.0000 0.39850  0.44310  0.76190  Biso   1.000  C
  C126     1.0000 0.60150  0.44310  0.73810  Biso   1.000  C
  C127     1.0000 0.89850  0.94310  0.76190  Biso   1.000  C
  C128     1.0000 0.10150  0.94310  0.73810  Biso   1.000  C
  C129     1.0000 0.37550  0.23520  0.01770  Biso   1.000  C
  C130     1.0000 0.62450  0.23520  0.48230  Biso   1.000  C
  C131     1.0000 0.87550  0.73520  0.01770  Biso   1.000  C
  C132     1.0000 0.12450  0.73520  0.48230  Biso   1.000  C
  C133     1.0000 0.62450  0.76480  0.98230  Biso   1.000  C
  C134     1.0000 0.37550  0.76480  0.51770  Biso   1.000  C
  C135     1.0000 0.12450  0.26480  0.98230  Biso   1.000  C
  C136     1.0000 0.87550  0.26480  0.51770  Biso   1.000  C
  C137     1.0000 0.34160  0.28760  0.97790  Biso   1.000  C
  C138     1.0000 0.65840  0.28760  0.52210  Biso   1.000  C
  C139     1.0000 0.84160  0.78760  0.97790  Biso   1.000  C
  C140     1.0000 0.15840  0.78760  0.52210  Biso   1.000  C
  C141     1.0000 0.65840  0.71240  0.02210  Biso   1.000  C
  C142     1.0000 0.34160  0.71240  0.47790  Biso   1.000  C
  C143     1.0000 0.15840  0.21240  0.02210  Biso   1.000  C
  C144     1.0000 0.84160  0.21240  0.47790  Biso   1.000  C
  C145     1.0000 0.29140  0.26980  0.91270  Biso   1.000  C
  C146     1.0000 0.70860  0.26980  0.58730  Biso   1.000  C
  C147     1.0000 0.79140  0.76980  0.91270  Biso   1.000  C
  C148     1.0000 0.20860  0.76980  0.58730  Biso   1.000  C
  C149     1.0000 0.70860  0.73020  0.08730  Biso   1.000  C
  C150     1.0000 0.29140  0.73020  0.41270  Biso   1.000  C
  C151     1.0000 0.20860  0.23020  0.08730  Biso   1.000  C
  C152     1.0000 0.79140  0.23020  0.41270  Biso   1.000  C
  C153     1.0000 0.27760  0.20860  0.88890  Biso   1.000  C
  C154     1.0000 0.72240  0.20860  0.61110  Biso   1.000  C
  C155     1.0000 0.77760  0.70860  0.88890  Biso   1.000  C
  C156     1.0000 0.22240  0.70860  0.61110  Biso   1.000  C
  C157     1.0000 0.72240  0.79140  0.11110  Biso   1.000  C
  C158     1.0000 0.27760  0.79140  0.38890  Biso   1.000  C
  C159     1.0000 0.22240  0.29140  0.11110  Biso   1.000  C
  C160     1.0000 0.77760  0.29140  0.38890  Biso   1.000  C
  H129     1.0000 0.24480  0.19930  0.84720  Biso   1.000  H
  H130     1.0000 0.75520  0.19930  0.65280  Biso   1.000  H
  H131     1.0000 0.74480  0.69930  0.84720  Biso   1.000  H
  H132     1.0000 0.25520  0.69930  0.65280  Biso   1.000  H
  H133     1.0000 0.75520  0.80070  0.15280  Biso   1.000  H
  H134     1.0000 0.24480  0.80070  0.34720  Biso   1.000  H
  H135     1.0000 0.25520  0.30070  0.15280  Biso   1.000  H
  H136     1.0000 0.74480  0.30070  0.34720  Biso   1.000  H
  C161     1.0000 0.31300  0.16040  0.92760  Biso   1.000  C
  C162     1.0000 0.68700  0.16040  0.57240  Biso   1.000  C
  C163     1.0000 0.81300  0.66040  0.92760  Biso   1.000  C
  C164     1.0000 0.18700  0.66040  0.57240  Biso   1.000  C
  C165     1.0000 0.68700  0.83960  0.07240  Biso   1.000  C
  C166     1.0000 0.31300  0.83960  0.42760  Biso   1.000  C
  C167     1.0000 0.18700  0.33960  0.07240  Biso   1.000  C
  C168     1.0000 0.81300  0.33960  0.42760  Biso   1.000  C
  C169     1.0000 0.36040  0.17390  0.99150  Biso   1.000  C
  C170     1.0000 0.63960  0.17390  0.50850  Biso   1.000  C
  C171     1.0000 0.86040  0.67390  0.99150  Biso   1.000  C
  C172     1.0000 0.13960  0.67390  0.50850  Biso   1.000  C
  C173     1.0000 0.63960  0.82610  0.00850  Biso   1.000  C
  C174     1.0000 0.36040  0.82610  0.49150  Biso   1.000  C
  C175     1.0000 0.13960  0.32610  0.00850  Biso   1.000  C
  C176     1.0000 0.86040  0.32610  0.49150  Biso   1.000  C
  H137     1.0000 0.38300  0.14030  0.01800  Biso   1.000  H
  H138     1.0000 0.61700  0.14030  0.48200  Biso   1.000  H
  H139     1.0000 0.88300  0.64030  0.01800  Biso   1.000  H
  H140     1.0000 0.11700  0.64030  0.48200  Biso   1.000  H
  H141     1.0000 0.61700  0.85970  0.98200  Biso   1.000  H
  H142     1.0000 0.38300  0.85970  0.51800  Biso   1.000  H
  H143     1.0000 0.11700  0.35970  0.98200  Biso   1.000  H
  H144     1.0000 0.88300  0.35970  0.51800  Biso   1.000  H
  C177     1.0000 0.42590  0.24430  0.09250  Biso   1.000  C
  C178     1.0000 0.57410  0.24430  0.40750  Biso   1.000  C
  C179     1.0000 0.92590  0.74430  0.09250  Biso   1.000  C
  C180     1.0000 0.07410  0.74430  0.40750  Biso   1.000  C
  C181     1.0000 0.57410  0.75570  0.90750  Biso   1.000  C
  C182     1.0000 0.42590  0.75570  0.59250  Biso   1.000  C
  C183     1.0000 0.07410  0.25570  0.90750  Biso   1.000  C
  C184     1.0000 0.92590  0.25570  0.59250  Biso   1.000  C
  N1       1.0000 0.42597  0.51860  0.03360  Biso   1.000  N
  N2       1.0000 0.57403  0.51860  0.46640  Biso   1.000  N
  N3       1.0000 0.92597  0.01860  0.03360  Biso   1.000  N
  N4       1.0000 0.07403  0.01860  0.46640  Biso   1.000  N
  N5       1.0000 0.57403  0.48140  0.96640  Biso   1.000  N
  N6       1.0000 0.42597  0.48140  0.53360  Biso   1.000  N
  N7       1.0000 0.07403  0.98140  0.96640  Biso   1.000  N
  N8       1.0000 0.92597  0.98140  0.53360  Biso   1.000  N
  N9       1.0000 0.39514  0.46440  0.01050  Biso   1.000  N
  N10      1.0000 0.60486  0.46440  0.48950  Biso   1.000  N
  N11      1.0000 0.89514  0.96440  0.01050  Biso   1.000  N
  N12      1.0000 0.10486  0.96440  0.48950  Biso   1.000  N
  N13      1.0000 0.60486  0.53560  0.98950  Biso   1.000  N
  N14      1.0000 0.39514  0.53560  0.51050  Biso   1.000  N
  N15      1.0000 0.10486  0.03560  0.98950  Biso   1.000  N
  N16      1.0000 0.89514  0.03560  0.51050  Biso   1.000  N
  N17      1.0000 0.34769  0.54420  0.94240  Biso   1.000  N
  N18      1.0000 0.65231  0.54420  0.55760  Biso   1.000  N
  N19      1.0000 0.84769  0.04420  0.94240  Biso   1.000  N
  N20      1.0000 0.15231  0.04420  0.55760  Biso   1.000  N
  N21      1.0000 0.65231  0.45580  0.05760  Biso   1.000  N
  N22      1.0000 0.34769  0.45580  0.44240  Biso   1.000  N
  N23      1.0000 0.15231  0.95580  0.05760  Biso   1.000  N
  N24      1.0000 0.84769  0.95580  0.44240  Biso   1.000  N
  N25      1.0000 0.13420  0.70370  0.10140  Biso   1.000  N
  N26      1.0000 0.86580  0.70370  0.39860  Biso   1.000  N
  N27      1.0000 0.63420  0.20370  0.10140  Biso   1.000  N
  N28      1.0000 0.36580  0.20370  0.39860  Biso   1.000  N
  N29      1.0000 0.86580  0.29630  0.89860  Biso   1.000  N
  N30      1.0000 0.13420  0.29630  0.60140  Biso   1.000  N
  N31      1.0000 0.36580  0.79630  0.89860  Biso   1.000  N
  N32      1.0000 0.63420  0.79630  0.60140  Biso   1.000  N
  N33      1.0000 0.10060  0.76780  0.18740  Biso   1.000  N
  N34      1.0000 0.89940  0.76780  0.31260  Biso   1.000  N
  N35      1.0000 0.60060  0.26780  0.18740  Biso   1.000  N
  N36      1.0000 0.39940  0.26780  0.31260  Biso   1.000  N
  N37      1.0000 0.89940  0.23220  0.81260  Biso   1.000  N
  N38      1.0000 0.10060  0.23220  0.68740  Biso   1.000  N
  N39      1.0000 0.39940  0.73220  0.81260  Biso   1.000  N
  N40      1.0000 0.60060  0.73220  0.68740  Biso   1.000  N
  N41      1.0000 0.06636  0.71530  0.18410  Biso   1.000  N
  N42      1.0000 0.93364  0.71530  0.31590  Biso   1.000  N
  N43      1.0000 0.56636  0.21530  0.18410  Biso   1.000  N
  N44      1.0000 0.43364  0.21530  0.31590  Biso   1.000  N
  N45      1.0000 0.93364  0.28470  0.81590  Biso   1.000  N
  N46      1.0000 0.06636  0.28470  0.68410  Biso   1.000  N
  N47      1.0000 0.43364  0.78470  0.81590  Biso   1.000  N
  N48      1.0000 0.56636  0.78470  0.68410  Biso   1.000  N
  N49      1.0000 0.47780  0.73880  0.08670  Biso   1.000  N
  N50      1.0000 0.52220  0.73880  0.41330  Biso   1.000  N
  N51      1.0000 0.97780  0.23880  0.08670  Biso   1.000  N
  N52      1.0000 0.02220  0.23880  0.41330  Biso   1.000  N
  N53      1.0000 0.52220  0.26120  0.91330  Biso   1.000  N
  N54      1.0000 0.47780  0.26120  0.58670  Biso   1.000  N
  N55      1.0000 0.02220  0.76120  0.91330  Biso   1.000  N
  N56      1.0000 0.97780  0.76120  0.58670  Biso   1.000  N
  N57      1.0000 0.65510  0.78170  0.28930  Biso   1.000  N
  N58      1.0000 0.34490  0.78170  0.21070  Biso   1.000  N
  N59      1.0000 0.15510  0.28170  0.28930  Biso   1.000  N
  N60      1.0000 0.84490  0.28170  0.21070  Biso   1.000  N
  N61      1.0000 0.34490  0.21830  0.71070  Biso   1.000  N
  N62      1.0000 0.65510  0.21830  0.78930  Biso   1.000  N
  N63      1.0000 0.84490  0.71830  0.71070  Biso   1.000  N
  N64      1.0000 0.15510  0.71830  0.78930  Biso   1.000  N
  N65      1.0000 0.25250  0.31990  0.86880  Biso   1.000  N
  N66      1.0000 0.74750  0.31990  0.63120  Biso   1.000  N
  N67      1.0000 0.75250  0.81990  0.86880  Biso   1.000  N
  N68      1.0000 0.24750  0.81990  0.63120  Biso   1.000  N
  N69      1.0000 0.74750  0.68010  0.13120  Biso   1.000  N
  N70      1.0000 0.25250  0.68010  0.36880  Biso   1.000  N
  N71      1.0000 0.24750  0.18010  0.13120  Biso   1.000  N
  N72      1.0000 0.75250  0.18010  0.36880  Biso   1.000  N
  N73      1.0000 0.29770  0.09590  0.90170  Biso   1.000  N
  N74      1.0000 0.70230  0.09590  0.59830  Biso   1.000  N
  N75      1.0000 0.79770  0.59590  0.90170  Biso   1.000  N
  N76      1.0000 0.20230  0.59590  0.59830  Biso   1.000  N
  N77      1.0000 0.70230  0.90410  0.09830  Biso   1.000  N
  N78      1.0000 0.29770  0.90410  0.40170  Biso   1.000  N
  N79      1.0000 0.20230  0.40410  0.09830  Biso   1.000  N
  N80      1.0000 0.79770  0.40410  0.40170  Biso   1.000  N
  O1       1.0000 0.64900  0.54350  0.27980  Biso   1.000  O
  O2       1.0000 0.35100  0.54350  0.22020  Biso   1.000  O
  O3       1.0000 0.14900  0.04350  0.27980  Biso   1.000  O
  O4       1.0000 0.85100  0.04350  0.22020  Biso   1.000  O
  O5       1.0000 0.35100  0.45650  0.72020  Biso   1.000  O
  O6       1.0000 0.64900  0.45650  0.77980  Biso   1.000  O
  O7       1.0000 0.85100  0.95650  0.72020  Biso   1.000  O
  O8       1.0000 0.14900  0.95650  0.77980  Biso   1.000  O
  O9       1.0000 0.56396  0.51290  0.21530  Biso   1.000  O
  O10      1.0000 0.43604  0.51290  0.28470  Biso   1.000  O
  O11      1.0000 0.06396  0.01290  0.21530  Biso   1.000  O
  O12      1.0000 0.93604  0.01290  0.28470  Biso   1.000  O
  O13      1.0000 0.43604  0.48710  0.78470  Biso   1.000  O
  O14      1.0000 0.56396  0.48710  0.71530  Biso   1.000  O
  O15      1.0000 0.93604  0.98710  0.78470  Biso   1.000  O
  O16      1.0000 0.06396  0.98710  0.71530  Biso   1.000  O
  O17      1.0000 0.49904  0.60590  0.11300  Biso   1.000  O
  O18      1.0000 0.50096  0.60590  0.38700  Biso   1.000  O
  O19      1.0000 0.99904  0.10590  0.11300  Biso   1.000  O
  O20      1.0000 0.00096  0.10590  0.38700  Biso   1.000  O
  O21      1.0000 0.50096  0.39410  0.88700  Biso   1.000  O
  O22      1.0000 0.49904  0.39410  0.61300  Biso   1.000  O
  O23      1.0000 0.00096  0.89410  0.88700  Biso   1.000  O
  O24      1.0000 0.99904  0.89410  0.61300  Biso   1.000  O
  O25      1.0000 0.43450  0.70880  0.06720  Biso   1.000  O
  O26      1.0000 0.56550  0.70880  0.43280  Biso   1.000  O
  O27      1.0000 0.93450  0.20880  0.06720  Biso   1.000  O
  O28      1.0000 0.06550  0.20880  0.43280  Biso   1.000  O
  O29      1.0000 0.56550  0.29120  0.93280  Biso   1.000  O
  O30      1.0000 0.43450  0.29120  0.56720  Biso   1.000  O
  O31      1.0000 0.06550  0.79120  0.93280  Biso   1.000  O
  O32      1.0000 0.93450  0.79120  0.56720  Biso   1.000  O
  O33      1.0000 0.46090  0.79050  0.10550  Biso   1.000  O
  O34      1.0000 0.53910  0.79050  0.39450  Biso   1.000  O
  O35      1.0000 0.96090  0.29050  0.10550  Biso   1.000  O
  O36      1.0000 0.03910  0.29050  0.39450  Biso   1.000  O
  O37      1.0000 0.53910  0.20950  0.89450  Biso   1.000  O
  O38      1.0000 0.46090  0.20950  0.60550  Biso   1.000  O
  O39      1.0000 0.03910  0.70950  0.89450  Biso   1.000  O
  O40      1.0000 0.96090  0.70950  0.60550  Biso   1.000  O
  O41      1.0000 0.64420  0.83770  0.27930  Biso   1.000  O
  O42      1.0000 0.35580  0.83770  0.22070  Biso   1.000  O
  O43      1.0000 0.14420  0.33770  0.27930  Biso   1.000  O
  O44      1.0000 0.85580  0.33770  0.22070  Biso   1.000  O
  O45      1.0000 0.35580  0.16230  0.72070  Biso   1.000  O
  O46      1.0000 0.64420  0.16230  0.77930  Biso   1.000  O
  O47      1.0000 0.85580  0.66230  0.72070  Biso   1.000  O
  O48      1.0000 0.14420  0.66230  0.77930  Biso   1.000  O
  O49      1.0000 0.69840  0.76180  0.33520  Biso   1.000  O
  O50      1.0000 0.30160  0.76180  0.16480  Biso   1.000  O
  O51      1.0000 0.19840  0.26180  0.33520  Biso   1.000  O
  O52      1.0000 0.80160  0.26180  0.16480  Biso   1.000  O
  O53      1.0000 0.30160  0.23820  0.66480  Biso   1.000  O
  O54      1.0000 0.69840  0.23820  0.83520  Biso   1.000  O
  O55      1.0000 0.80160  0.73820  0.66480  Biso   1.000  O
  O56      1.0000 0.19840  0.73820  0.83520  Biso   1.000  O
  O57      1.0000 0.48687  0.42477  0.12860  Biso   1.000  O
  O58      1.0000 0.51313  0.42477  0.37140  Biso   1.000  O
  O59      1.0000 0.98687  0.92477  0.12860  Biso   1.000  O
  O60      1.0000 0.01313  0.92477  0.37140  Biso   1.000  O
  O61      1.0000 0.51313  0.57523  0.87140  Biso   1.000  O
  O62      1.0000 0.48687  0.57523  0.62860  Biso   1.000  O
  O63      1.0000 0.01313  0.07523  0.87140  Biso   1.000  O
  O64      1.0000 0.98687  0.07523  0.62860  Biso   1.000  O
  O65      1.0000 0.44644  0.19490  0.13160  Biso   1.000  O
  O66      1.0000 0.55356  0.19490  0.36840  Biso   1.000  O
  O67      1.0000 0.94644  0.69490  0.13160  Biso   1.000  O
  O68      1.0000 0.05356  0.69490  0.36840  Biso   1.000  O
  O69      1.0000 0.55356  0.80510  0.86840  Biso   1.000  O
  O70      1.0000 0.44644  0.80510  0.63160  Biso   1.000  O
  O71      1.0000 0.05356  0.30510  0.86840  Biso   1.000  O
  O72      1.0000 0.94644  0.30510  0.63160  Biso   1.000  O
  O73      1.0000 0.44554  0.29939  0.11680  Biso   1.000  O
  O74      1.0000 0.55446  0.29939  0.38320  Biso   1.000  O
  O75      1.0000 0.94554  0.79939  0.11680  Biso   1.000  O
  O76      1.0000 0.05446  0.79939  0.38320  Biso   1.000  O
  O77      1.0000 0.55446  0.70061  0.88320  Biso   1.000  O
  O78      1.0000 0.44554  0.70061  0.61680  Biso   1.000  O
  O79      1.0000 0.05446  0.20061  0.88320  Biso   1.000  O
  O80      1.0000 0.94554  0.20061  0.61680  Biso   1.000  O
  O81      1.0000 0.35243  0.34610  0.99740  Biso   1.000  O
  O82      1.0000 0.64757  0.34610  0.50260  Biso   1.000  O
  O83      1.0000 0.85243  0.84610  0.99740  Biso   1.000  O
  O84      1.0000 0.14757  0.84610  0.50260  Biso   1.000  O
  O85      1.0000 0.64757  0.65390  0.00260  Biso   1.000  O
  O86      1.0000 0.35243  0.65390  0.49740  Biso   1.000  O
  O87      1.0000 0.14757  0.15390  0.00260  Biso   1.000  O
  O88      1.0000 0.85243  0.15390  0.49740  Biso   1.000  O
  O89      1.0000 0.26980  0.37170  0.85460  Biso   1.000  O
  O90      1.0000 0.73020  0.37170  0.64540  Biso   1.000  O
  O91      1.0000 0.76980  0.87170  0.85460  Biso   1.000  O
  O92      1.0000 0.23020  0.87170  0.64540  Biso   1.000  O
  O93      1.0000 0.73020  0.62830  0.14540  Biso   1.000  O
  O94      1.0000 0.26980  0.62830  0.35460  Biso   1.000  O
  O95      1.0000 0.23020  0.12830  0.14540  Biso   1.000  O
  O96      1.0000 0.76980  0.12830  0.35460  Biso   1.000  O
  O97      1.0000 0.20800  0.30210  0.82450  Biso   1.000  O
  O98      1.0000 0.79200  0.30210  0.67550  Biso   1.000  O
  O99      1.0000 0.70800  0.80210  0.82450  Biso   1.000  O
  O100     1.0000 0.29200  0.80210  0.67550  Biso   1.000  O
  O101     1.0000 0.79200  0.69790  0.17550  Biso   1.000  O
  O102     1.0000 0.20800  0.69790  0.32450  Biso   1.000  O
  O103     1.0000 0.29200  0.19790  0.17550  Biso   1.000  O
  O104     1.0000 0.70800  0.19790  0.32450  Biso   1.000  O
  O105     1.0000 0.25540  0.08500  0.84570  Biso   1.000  O
  O106     1.0000 0.74460  0.08500  0.65430  Biso   1.000  O
  O107     1.0000 0.75540  0.58500  0.84570  Biso   1.000  O
  O108     1.0000 0.24460  0.58500  0.65430  Biso   1.000  O
  O109     1.0000 0.74460  0.91500  0.15430  Biso   1.000  O
  O110     1.0000 0.25540  0.91500  0.34570  Biso   1.000  O
  O111     1.0000 0.24460  0.41500  0.15430  Biso   1.000  O
  O112     1.0000 0.75540  0.41500  0.34570  Biso   1.000  O
  O113     1.0000 0.31900  0.05500  0.94800  Biso   1.000  O
  O114     1.0000 0.68100  0.05500  0.55200  Biso   1.000  O
  O115     1.0000 0.81900  0.55500  0.94800  Biso   1.000  O
  O116     1.0000 0.18100  0.55500  0.55200  Biso   1.000  O
  O117     1.0000 0.68100  0.94500  0.05200  Biso   1.000  O
  O118     1.0000 0.31900  0.94500  0.44800  Biso   1.000  O
  O119     1.0000 0.18100  0.44500  0.05200  Biso   1.000  O
  O120     1.0000 0.81900  0.44500  0.44800  Biso   1.000  O
  O121     1.0000 0.37135  0.40410  0.19840  Biso   1.000  O
  O122     1.0000 0.62865  0.40410  0.30160  Biso   1.000  O
  O123     1.0000 0.87135  0.90410  0.19840  Biso   1.000  O
  O124     1.0000 0.12865  0.90410  0.30160  Biso   1.000  O
  O125     1.0000 0.62865  0.59590  0.80160  Biso   1.000  O
  O126     1.0000 0.37135  0.59590  0.69840  Biso   1.000  O
  O127     1.0000 0.12865  0.09590  0.80160  Biso   1.000  O
  O128     1.0000 0.87135  0.09590  0.69840  Biso   1.000  O
  H145     1.0000 0.33550  0.40060  0.18010  Biso   1.000  H
  H146     1.0000 0.66450  0.40060  0.31990  Biso   1.000  H
  H147     1.0000 0.83550  0.90060  0.18010  Biso   1.000  H
  H148     1.0000 0.16450  0.90060  0.31990  Biso   1.000  H
  H149     1.0000 0.66450  0.59940  0.81990  Biso   1.000  H
  H150     1.0000 0.33550  0.59940  0.68010  Biso   1.000  H
  H151     1.0000 0.16450  0.09940  0.81990  Biso   1.000  H
  H152     1.0000 0.83550  0.09940  0.68010  Biso   1.000  H
  H153     1.0000 0.38190  0.44340  0.20940  Biso   1.000  H
  H154     1.0000 0.61810  0.44340  0.29060  Biso   1.000  H
  H155     1.0000 0.88190  0.94340  0.20940  Biso   1.000  H
  H156     1.0000 0.11810  0.94340  0.29060  Biso   1.000  H
  H157     1.0000 0.61810  0.55660  0.79060  Biso   1.000  H
  H158     1.0000 0.38190  0.55660  0.70940  Biso   1.000  H
  H159     1.0000 0.11810  0.05660  0.79060  Biso   1.000  H
  H160     1.0000 0.88190  0.05660  0.70940  Biso   1.000  H
  O129     1.0000 0.50000  0.09140  0.25000  Biso   1.000  O
  O130     1.0000 0.00000  0.59140  0.25000  Biso   1.000  O
  O131     1.0000 0.50000  0.90860  0.75000  Biso   1.000  O
  O132     1.0000 0.00000  0.40860  0.75000  Biso   1.000  O
  O133     1.0000 0.40400  0.00300  0.21000  Biso   1.000  O
  O134     1.0000 0.59600  0.00300  0.29000  Biso   1.000  O
  O135     1.0000 0.90400  0.50300  0.21000  Biso   1.000  O
  O136     1.0000 0.09600  0.50300  0.29000  Biso   1.000  O
  O137     1.0000 0.59600  0.99700  0.79000  Biso   1.000  O
  O138     1.0000 0.40400  0.99700  0.71000  Biso   1.000  O
  O139     1.0000 0.09600  0.49700  0.79000  Biso   1.000  O
  O140     1.0000 0.90400  0.49700  0.71000  Biso   1.000  O
  O141     1.0000 0.98900  0.57300  0.01600  Biso   1.000  O
  O142     1.0000 0.01100  0.57300  0.48400  Biso   1.000  O
  O143     1.0000 0.48900  0.07300  0.01600  Biso   1.000  O
  O144     1.0000 0.51100  0.07300  0.48400  Biso   1.000  O
  O145     1.0000 0.01100  0.42700  0.98400  Biso   1.000  O
  O146     1.0000 0.98900  0.42700  0.51600  Biso   1.000  O
  O147     1.0000 0.51100  0.92700  0.98400  Biso   1.000  O
  O148     1.0000 0.48900  0.92700  0.51600  Biso   1.000  O
  C185     1.0000 0.27390  0.62730  0.96650  Biso   1.000  C
  C186     1.0000 0.72610  0.62730  0.53350  Biso   1.000  C
  C187     1.0000 0.77390  0.12730  0.96650  Biso   1.000  C
  C188     1.0000 0.22610  0.12730  0.53350  Biso   1.000  C
  C189     1.0000 0.72610  0.37270  0.03350  Biso   1.000  C
  C190     1.0000 0.27390  0.37270  0.46650  Biso   1.000  C
  C191     1.0000 0.22610  0.87270  0.03350  Biso   1.000  C
  C192     1.0000 0.77390  0.87270  0.46650  Biso   1.000  C
  H161     1.0000 0.30460  0.64770  0.00820  Biso   1.000  H
  H162     1.0000 0.69540  0.64770  0.49180  Biso   1.000  H
  H163     1.0000 0.80460  0.14770  0.00820  Biso   1.000  H
  H164     1.0000 0.19540  0.14770  0.49180  Biso   1.000  H
  H165     1.0000 0.69540  0.35230  0.99180  Biso   1.000  H
  H166     1.0000 0.30460  0.35230  0.50820  Biso   1.000  H
  H167     1.0000 0.19540  0.85230  0.99180  Biso   1.000  H
  H168     1.0000 0.80460  0.85230  0.50820  Biso   1.000  H
  H169     1.0000 0.24880  0.66010  0.93600  Biso   1.000  H
  H170     1.0000 0.75120  0.66010  0.56400  Biso   1.000  H
  H171     1.0000 0.74880  0.16010  0.93600  Biso   1.000  H
  H172     1.0000 0.25120  0.16010  0.56400  Biso   1.000  H
  H173     1.0000 0.75120  0.33990  0.06400  Biso   1.000  H
  H174     1.0000 0.24880  0.33990  0.43600  Biso   1.000  H
  H175     1.0000 0.25120  0.83990  0.06400  Biso   1.000  H
  H176     1.0000 0.74880  0.83990  0.43600  Biso   1.000  H
  C193     1.0000 0.24120  0.58110  0.01850  Biso   1.000  C
  C194     1.0000 0.75880  0.58110  0.48150  Biso   1.000  C
  C195     1.0000 0.74120  0.08110  0.01850  Biso   1.000  C
  C196     1.0000 0.25880  0.08110  0.48150  Biso   1.000  C
  C197     1.0000 0.75880  0.41890  0.98150  Biso   1.000  C
  C198     1.0000 0.24120  0.41890  0.51850  Biso   1.000  C
  C199     1.0000 0.25880  0.91890  0.98150  Biso   1.000  C
  C200     1.0000 0.74120  0.91890  0.51850  Biso   1.000  C
  H177     1.0000 0.26650  0.55020  0.05350  Biso   1.000  H
  H178     1.0000 0.73350  0.55020  0.44650  Biso   1.000  H
  H179     1.0000 0.76650  0.05020  0.05350  Biso   1.000  H
  H180     1.0000 0.23350  0.05020  0.44650  Biso   1.000  H
  H181     1.0000 0.73350  0.44980  0.94650  Biso   1.000  H
  H182     1.0000 0.26650  0.44980  0.55350  Biso   1.000  H
  H183     1.0000 0.23350  0.94980  0.94650  Biso   1.000  H
  H184     1.0000 0.76650  0.94980  0.55350  Biso   1.000  H
  H185     1.0000 0.21180  0.55860  0.97690  Biso   1.000  H
  H186     1.0000 0.78820  0.55860  0.52310  Biso   1.000  H
  H187     1.0000 0.71180  0.05860  0.97690  Biso   1.000  H
  H188     1.0000 0.28820  0.05860  0.52310  Biso   1.000  H
  H189     1.0000 0.78820  0.44140  0.02310  Biso   1.000  H
  H190     1.0000 0.21180  0.44140  0.47690  Biso   1.000  H
  H191     1.0000 0.28820  0.94140  0.02310  Biso   1.000  H
  H192     1.0000 0.71180  0.94140  0.47690  Biso   1.000  H
  O149     1.0000 0.45420  0.70630  0.02240  Biso   1.000  O
  O150     1.0000 0.54580  0.70630  0.47760  Biso   1.000  O
  O151     1.0000 0.95420  0.20630  0.02240  Biso   1.000  O
  O152     1.0000 0.04580  0.20630  0.47760  Biso   1.000  O
  O153     1.0000 0.54580  0.29370  0.97760  Biso   1.000  O
  O154     1.0000 0.45420  0.29370  0.52240  Biso   1.000  O
  O155     1.0000 0.04580  0.79370  0.97760  Biso   1.000  O
  O156     1.0000 0.95420  0.79370  0.52240  Biso   1.000  O
  O157     1.0000 0.48000  0.79580  0.06020  Biso   1.000  O
  O158     1.0000 0.52000  0.79580  0.43980  Biso   1.000  O
  O159     1.0000 0.98000  0.29580  0.06020  Biso   1.000  O
  O160     1.0000 0.02000  0.29580  0.43980  Biso   1.000  O
  O161     1.0000 0.52000  0.20420  0.93980  Biso   1.000  O
  O162     1.0000 0.48000  0.20420  0.56020  Biso   1.000  O
  O163     1.0000 0.02000  0.70420  0.93980  Biso   1.000  O
  O164     1.0000 0.98000  0.70420  0.56020  Biso   1.000  O
  O165     1.0000 0.25180  0.37660  0.90880  Biso   1.000  O
  O166     1.0000 0.74820  0.37660  0.59120  Biso   1.000  O
  O167     1.0000 0.75180  0.87660  0.90880  Biso   1.000  O
  O168     1.0000 0.24820  0.87660  0.59120  Biso   1.000  O
  O169     1.0000 0.74820  0.62340  0.09120  Biso   1.000  O
  O170     1.0000 0.25180  0.62340  0.40880  Biso   1.000  O
  O171     1.0000 0.24820  0.12340  0.09120  Biso   1.000  O
  O172     1.0000 0.75180  0.12340  0.40880  Biso   1.000  O
  O173     1.0000 0.33960  0.05400  0.92400  Biso   1.000  O
  O174     1.0000 0.66040  0.05400  0.57600  Biso   1.000  O
  O175     1.0000 0.83960  0.55400  0.92400  Biso   1.000  O
  O176     1.0000 0.16040  0.55400  0.57600  Biso   1.000  O
  O177     1.0000 0.66040  0.94600  0.07600  Biso   1.000  O
  O178     1.0000 0.33960  0.94600  0.42400  Biso   1.000  O
  O179     1.0000 0.16040  0.44600  0.07600  Biso   1.000  O
  O180     1.0000 0.83960  0.44600  0.42400  Biso   1.000  O
  O181     1.0000 0.42100  0.96600  0.12100  Biso   1.000  O
  O182     1.0000 0.57900  0.96600  0.37900  Biso   1.000  O
  O183     1.0000 0.92100  0.46600  0.12100  Biso   1.000  O
  O184     1.0000 0.07900  0.46600  0.37900  Biso   1.000  O
  O185     1.0000 0.57900  0.03400  0.87900  Biso   1.000  O
  O186     1.0000 0.42100  0.03400  0.62100  Biso   1.000  O
  O187     1.0000 0.07900  0.53400  0.87900  Biso   1.000  O
  O188     1.0000 0.92100  0.53400  0.62100  Biso   1.000  O
  O189     1.0000 0.36400  0.03600  0.20200  Biso   1.000  O
  O190     1.0000 0.63600  0.03600  0.29800  Biso   1.000  O
  O191     1.0000 0.86400  0.53600  0.20200  Biso   1.000  O
  O192     1.0000 0.13600  0.53600  0.29800  Biso   1.000  O
  O193     1.0000 0.63600  0.96400  0.79800  Biso   1.000  O
  O194     1.0000 0.36400  0.96400  0.70200  Biso   1.000  O
  O195     1.0000 0.13600  0.46400  0.79800  Biso   1.000  O
  O196     1.0000 0.86400  0.46400  0.70200  Biso   1.000  O
