data_image0
_cell_length_a       14.3577
_cell_length_b       14.3577
_cell_length_c       41.3854
_cell_angle_alpha    90
_cell_angle_beta     90
_cell_angle_gamma    90

_symmetry_space_group_name_H-M    "P 1"
_symmetry_int_tables_number       1

loop_
  _symmetry_equiv_pos_as_xyz
  'x, y, z'

loop_
  _atom_site_label
  _atom_site_occupancy
  _atom_site_fract_x
  _atom_site_fract_y
  _atom_site_fract_z
  _atom_site_thermal_displace_type
  _atom_site_B_iso_or_equiv
  _atom_site_type_symbol
  Cu1      1.0000 0.57567  0.44633  0.35532  Biso   1.000  Cu
  Cu2      1.0000 0.42433  0.05367  0.35532  Biso   1.000  Cu
  Cu3      1.0000 0.30367  0.82567  0.60532  Biso   1.000  Cu
  Cu4      1.0000 0.69633  0.67433  0.60532  Biso   1.000  Cu
  Cu5      1.0000 0.07567  0.94633  0.85532  Biso   1.000  Cu
  Cu6      1.0000 0.92433  0.55367  0.85532  Biso   1.000  Cu
  Cu7      1.0000 0.80367  0.32567  0.10532  Biso   1.000  Cu
  Cu8      1.0000 0.19633  0.17433  0.10532  Biso   1.000  Cu
  Cu9      1.0000 0.42433  0.55367  0.64468  Biso   1.000  Cu
  Cu10     1.0000 0.57567  0.94633  0.64468  Biso   1.000  Cu
  Cu11     1.0000 0.19633  0.67433  0.89468  Biso   1.000  Cu
  Cu12     1.0000 0.80367  0.82567  0.89468  Biso   1.000  Cu
  Cu13     1.0000 0.92433  0.05367  0.14468  Biso   1.000  Cu
  Cu14     1.0000 0.07567  0.44633  0.14468  Biso   1.000  Cu
  Cu15     1.0000 0.69633  0.17433  0.39468  Biso   1.000  Cu
  Cu16     1.0000 0.30367  0.32567  0.39468  Biso   1.000  Cu
  C1       1.0000 0.75320  0.55190  0.38920  Biso   1.000  C
  C2       1.0000 0.24680  0.94810  0.38920  Biso   1.000  C
  C3       1.0000 0.19810  0.00320  0.63920  Biso   1.000  C
  C4       1.0000 0.80190  0.49680  0.63920  Biso   1.000  C
  C5       1.0000 0.25320  0.05190  0.88920  Biso   1.000  C
  C6       1.0000 0.74680  0.44810  0.88920  Biso   1.000  C
  C7       1.0000 0.69810  0.50320  0.13920  Biso   1.000  C
  C8       1.0000 0.30190  0.99680  0.13920  Biso   1.000  C
  C9       1.0000 0.24680  0.44810  0.61080  Biso   1.000  C
  C10      1.0000 0.75320  0.05190  0.61080  Biso   1.000  C
  C11      1.0000 0.30190  0.49680  0.86080  Biso   1.000  C
  C12      1.0000 0.69810  0.00320  0.86080  Biso   1.000  C
  C13      1.0000 0.74680  0.94810  0.11080  Biso   1.000  C
  C14      1.0000 0.25320  0.55190  0.11080  Biso   1.000  C
  C15      1.0000 0.80190  0.99680  0.36080  Biso   1.000  C
  C16      1.0000 0.19810  0.50320  0.36080  Biso   1.000  C
  H1       1.0000 0.72360  0.55670  0.40910  Biso   1.000  H
  H2       1.0000 0.27640  0.94330  0.40910  Biso   1.000  H
  H3       1.0000 0.19330  0.97360  0.65910  Biso   1.000  H
  H4       1.0000 0.80670  0.52640  0.65910  Biso   1.000  H
  H5       1.0000 0.22360  0.05670  0.90910  Biso   1.000  H
  H6       1.0000 0.77640  0.44330  0.90910  Biso   1.000  H
  H7       1.0000 0.69330  0.47360  0.15910  Biso   1.000  H
  H8       1.0000 0.30670  0.02640  0.15910  Biso   1.000  H
  H9       1.0000 0.27640  0.44330  0.59090  Biso   1.000  H
  H10      1.0000 0.72360  0.05670  0.59090  Biso   1.000  H
  H11      1.0000 0.30670  0.52640  0.84090  Biso   1.000  H
  H12      1.0000 0.69330  0.97360  0.84090  Biso   1.000  H
  H13      1.0000 0.77640  0.94330  0.09090  Biso   1.000  H
  H14      1.0000 0.22360  0.55670  0.09090  Biso   1.000  H
  H15      1.0000 0.80670  0.02640  0.34090  Biso   1.000  H
  H16      1.0000 0.19330  0.47360  0.34090  Biso   1.000  H
  C17      1.0000 0.77600  0.52110  0.34010  Biso   1.000  C
  C18      1.0000 0.22400  0.97890  0.34010  Biso   1.000  C
  C19      1.0000 0.22890  0.02600  0.59010  Biso   1.000  C
  C20      1.0000 0.77110  0.47400  0.59010  Biso   1.000  C
  C21      1.0000 0.27600  0.02110  0.84010  Biso   1.000  C
  C22      1.0000 0.72400  0.47890  0.84010  Biso   1.000  C
  C23      1.0000 0.72890  0.52600  0.09010  Biso   1.000  C
  C24      1.0000 0.27110  0.97400  0.09010  Biso   1.000  C
  C25      1.0000 0.22400  0.47890  0.65990  Biso   1.000  C
  C26      1.0000 0.77600  0.02110  0.65990  Biso   1.000  C
  C27      1.0000 0.27110  0.47400  0.90990  Biso   1.000  C
  C28      1.0000 0.72890  0.02600  0.90990  Biso   1.000  C
  C29      1.0000 0.72400  0.97890  0.15990  Biso   1.000  C
  C30      1.0000 0.27600  0.52110  0.15990  Biso   1.000  C
  C31      1.0000 0.77110  0.97400  0.40990  Biso   1.000  C
  C32      1.0000 0.22890  0.52600  0.40990  Biso   1.000  C
  H17      1.0000 0.76980  0.50250  0.31870  Biso   1.000  H
  H18      1.0000 0.23020  0.99750  0.31870  Biso   1.000  H
  H19      1.0000 0.24750  0.01980  0.56870  Biso   1.000  H
  H20      1.0000 0.75250  0.48020  0.56870  Biso   1.000  H
  H21      1.0000 0.26980  0.00250  0.81870  Biso   1.000  H
  H22      1.0000 0.73020  0.49750  0.81870  Biso   1.000  H
  H23      1.0000 0.74750  0.51980  0.06870  Biso   1.000  H
  H24      1.0000 0.25250  0.98020  0.06870  Biso   1.000  H
  H25      1.0000 0.23020  0.49750  0.68130  Biso   1.000  H
  H26      1.0000 0.76980  0.00250  0.68130  Biso   1.000  H
  H27      1.0000 0.25250  0.48020  0.93130  Biso   1.000  H
  H28      1.0000 0.74750  0.01980  0.93130  Biso   1.000  H
  H29      1.0000 0.73020  0.99750  0.18130  Biso   1.000  H
  H30      1.0000 0.26980  0.50250  0.18130  Biso   1.000  H
  H31      1.0000 0.75250  0.98020  0.43130  Biso   1.000  H
  H32      1.0000 0.24750  0.51980  0.43130  Biso   1.000  H
  C33      1.0000 0.94480  0.56710  0.33740  Biso   1.000  C
  C34      1.0000 0.05520  0.93290  0.33740  Biso   1.000  C
  C35      1.0000 0.18290  0.19480  0.58740  Biso   1.000  C
  C36      1.0000 0.81710  0.30520  0.58740  Biso   1.000  C
  C37      1.0000 0.44480  0.06710  0.83740  Biso   1.000  C
  C38      1.0000 0.55520  0.43290  0.83740  Biso   1.000  C
  C39      1.0000 0.68290  0.69480  0.08740  Biso   1.000  C
  C40      1.0000 0.31710  0.80520  0.08740  Biso   1.000  C
  C41      1.0000 0.05520  0.43290  0.66260  Biso   1.000  C
  C42      1.0000 0.94480  0.06710  0.66260  Biso   1.000  C
  C43      1.0000 0.31710  0.30520  0.91260  Biso   1.000  C
  C44      1.0000 0.68290  0.19480  0.91260  Biso   1.000  C
  C45      1.0000 0.55520  0.93290  0.16260  Biso   1.000  C
  C46      1.0000 0.44480  0.56710  0.16260  Biso   1.000  C
  C47      1.0000 0.81710  0.80520  0.41260  Biso   1.000  C
  C48      1.0000 0.18290  0.69480  0.41260  Biso   1.000  C
  C49      1.0000 0.94600  0.66810  0.32650  Biso   1.000  C
  C50      1.0000 0.05400  0.83190  0.32650  Biso   1.000  C
  C51      1.0000 0.08190  0.19600  0.57650  Biso   1.000  C
  C52      1.0000 0.91810  0.30400  0.57650  Biso   1.000  C
  C53      1.0000 0.44600  0.16810  0.82650  Biso   1.000  C
  C54      1.0000 0.55400  0.33190  0.82650  Biso   1.000  C
  C55      1.0000 0.58190  0.69600  0.07650  Biso   1.000  C
  C56      1.0000 0.41810  0.80400  0.07650  Biso   1.000  C
  C57      1.0000 0.05400  0.33190  0.67350  Biso   1.000  C
  C58      1.0000 0.94600  0.16810  0.67350  Biso   1.000  C
  C59      1.0000 0.41810  0.30400  0.92350  Biso   1.000  C
  C60      1.0000 0.58190  0.19600  0.92350  Biso   1.000  C
  C61      1.0000 0.55400  0.83190  0.17350  Biso   1.000  C
  C62      1.0000 0.44600  0.66810  0.17350  Biso   1.000  C
  C63      1.0000 0.91810  0.80400  0.42350  Biso   1.000  C
  C64      1.0000 0.08190  0.69600  0.42350  Biso   1.000  C
  C65      1.0000 0.01730  0.69900  0.30230  Biso   1.000  C
  C66      1.0000 0.98270  0.80100  0.30230  Biso   1.000  C
  C67      1.0000 0.05100  0.26730  0.55230  Biso   1.000  C
  C68      1.0000 0.94900  0.23270  0.55230  Biso   1.000  C
  C69      1.0000 0.51730  0.19900  0.80230  Biso   1.000  C
  C70      1.0000 0.48270  0.30100  0.80230  Biso   1.000  C
  C71      1.0000 0.55100  0.76730  0.05230  Biso   1.000  C
  C72      1.0000 0.44900  0.73270  0.05230  Biso   1.000  C
  C73      1.0000 0.98270  0.30100  0.69770  Biso   1.000  C
  C74      1.0000 0.01730  0.19900  0.69770  Biso   1.000  C
  C75      1.0000 0.44900  0.23270  0.94770  Biso   1.000  C
  C76      1.0000 0.55100  0.26730  0.94770  Biso   1.000  C
  C77      1.0000 0.48270  0.80100  0.19770  Biso   1.000  C
  C78      1.0000 0.51730  0.69900  0.19770  Biso   1.000  C
  C79      1.0000 0.94900  0.73270  0.44770  Biso   1.000  C
  C80      1.0000 0.05100  0.76730  0.44770  Biso   1.000  C
  C81      1.0000 0.30580  0.67220  0.30450  Biso   1.000  C
  C82      1.0000 0.69420  0.82780  0.30450  Biso   1.000  C
  C83      1.0000 0.07780  0.55580  0.55450  Biso   1.000  C
  C84      1.0000 0.92220  0.94420  0.55450  Biso   1.000  C
  C85      1.0000 0.80580  0.17220  0.80450  Biso   1.000  C
  C86      1.0000 0.19420  0.32780  0.80450  Biso   1.000  C
  C87      1.0000 0.57780  0.05580  0.05450  Biso   1.000  C
  C88      1.0000 0.42220  0.44420  0.05450  Biso   1.000  C
  C89      1.0000 0.69420  0.32780  0.69550  Biso   1.000  C
  C90      1.0000 0.30580  0.17220  0.69550  Biso   1.000  C
  C91      1.0000 0.42220  0.94420  0.94550  Biso   1.000  C
  C92      1.0000 0.57780  0.55580  0.94550  Biso   1.000  C
  C93      1.0000 0.19420  0.82780  0.19550  Biso   1.000  C
  C94      1.0000 0.80580  0.67220  0.19550  Biso   1.000  C
  C95      1.0000 0.92220  0.44420  0.44550  Biso   1.000  C
  C96      1.0000 0.07780  0.05580  0.44550  Biso   1.000  C
  H33      1.0000 0.28660  0.61800  0.29220  Biso   1.000  H
  H34      1.0000 0.71340  0.88200  0.29220  Biso   1.000  H
  H35      1.0000 0.13200  0.53660  0.54220  Biso   1.000  H
  H36      1.0000 0.86800  0.96340  0.54220  Biso   1.000  H
  H37      1.0000 0.78660  0.11800  0.79220  Biso   1.000  H
  H38      1.0000 0.21340  0.38200  0.79220  Biso   1.000  H
  H39      1.0000 0.63200  0.03660  0.04220  Biso   1.000  H
  H40      1.0000 0.36800  0.46340  0.04220  Biso   1.000  H
  H41      1.0000 0.71340  0.38200  0.70780  Biso   1.000  H
  H42      1.0000 0.28660  0.11800  0.70780  Biso   1.000  H
  H43      1.0000 0.36800  0.96340  0.95780  Biso   1.000  H
  H44      1.0000 0.63200  0.53660  0.95780  Biso   1.000  H
  H45      1.0000 0.21340  0.88200  0.20780  Biso   1.000  H
  H46      1.0000 0.78660  0.61800  0.20780  Biso   1.000  H
  H47      1.0000 0.86800  0.46340  0.45780  Biso   1.000  H
  H48      1.0000 0.13200  0.03660  0.45780  Biso   1.000  H
  H49      1.0000 0.25270  0.69880  0.31570  Biso   1.000  H
  H50      1.0000 0.74730  0.80120  0.31570  Biso   1.000  H
  H51      1.0000 0.05120  0.50270  0.56570  Biso   1.000  H
  H52      1.0000 0.94880  0.99730  0.56570  Biso   1.000  H
  H53      1.0000 0.75270  0.19880  0.81570  Biso   1.000  H
  H54      1.0000 0.24730  0.30120  0.81570  Biso   1.000  H
  H55      1.0000 0.55120  0.00270  0.06570  Biso   1.000  H
  H56      1.0000 0.44880  0.49730  0.06570  Biso   1.000  H
  H57      1.0000 0.74730  0.30120  0.68430  Biso   1.000  H
  H58      1.0000 0.25270  0.19880  0.68430  Biso   1.000  H
  H59      1.0000 0.44880  0.99730  0.93430  Biso   1.000  H
  H60      1.0000 0.55120  0.50270  0.93430  Biso   1.000  H
  H61      1.0000 0.24730  0.80120  0.18430  Biso   1.000  H
  H62      1.0000 0.75270  0.69880  0.18430  Biso   1.000  H
  H63      1.0000 0.94880  0.49730  0.43430  Biso   1.000  H
  H64      1.0000 0.05120  0.00270  0.43430  Biso   1.000  H
  C97      1.0000 0.35570  0.74200  0.28420  Biso   1.000  C
  C98      1.0000 0.64430  0.75800  0.28420  Biso   1.000  C
  C99      1.0000 0.00800  0.60570  0.53420  Biso   1.000  C
  C100     1.0000 0.99200  0.89430  0.53420  Biso   1.000  C
  C101     1.0000 0.85570  0.24200  0.78420  Biso   1.000  C
  C102     1.0000 0.14430  0.25800  0.78420  Biso   1.000  C
  C103     1.0000 0.50800  0.10570  0.03420  Biso   1.000  C
  C104     1.0000 0.49200  0.39430  0.03420  Biso   1.000  C
  C105     1.0000 0.64430  0.25800  0.71580  Biso   1.000  C
  C106     1.0000 0.35570  0.24200  0.71580  Biso   1.000  C
  C107     1.0000 0.49200  0.89430  0.96580  Biso   1.000  C
  C108     1.0000 0.50800  0.60570  0.96580  Biso   1.000  C
  C109     1.0000 0.14430  0.75800  0.21580  Biso   1.000  C
  C110     1.0000 0.85570  0.74200  0.21580  Biso   1.000  C
  C111     1.0000 0.99200  0.39430  0.46580  Biso   1.000  C
  C112     1.0000 0.00800  0.10570  0.46580  Biso   1.000  C
  H65      1.0000 0.39730  0.71070  0.26930  Biso   1.000  H
  H66      1.0000 0.60270  0.78930  0.26930  Biso   1.000  H
  H67      1.0000 0.03930  0.64730  0.51930  Biso   1.000  H
  H68      1.0000 0.96070  0.85270  0.51930  Biso   1.000  H
  H69      1.0000 0.89730  0.21070  0.76930  Biso   1.000  H
  H70      1.0000 0.10270  0.28930  0.76930  Biso   1.000  H
  H71      1.0000 0.53930  0.14730  0.01930  Biso   1.000  H
  H72      1.0000 0.46070  0.35270  0.01930  Biso   1.000  H
  H73      1.0000 0.60270  0.28930  0.73070  Biso   1.000  H
  H74      1.0000 0.39730  0.21070  0.73070  Biso   1.000  H
  H75      1.0000 0.46070  0.85270  0.98070  Biso   1.000  H
  H76      1.0000 0.53930  0.64730  0.98070  Biso   1.000  H
  H77      1.0000 0.10270  0.78930  0.23070  Biso   1.000  H
  H78      1.0000 0.89730  0.71070  0.23070  Biso   1.000  H
  H79      1.0000 0.96070  0.35270  0.48070  Biso   1.000  H
  H80      1.0000 0.03930  0.14730  0.48070  Biso   1.000  H
  H81      1.0000 0.39270  0.78290  0.29780  Biso   1.000  H
  H82      1.0000 0.60730  0.71710  0.29780  Biso   1.000  H
  H83      1.0000 0.96710  0.64270  0.54780  Biso   1.000  H
  H84      1.0000 0.03290  0.85730  0.54780  Biso   1.000  H
  H85      1.0000 0.89270  0.28290  0.79780  Biso   1.000  H
  H86      1.0000 0.10730  0.21710  0.79780  Biso   1.000  H
  H87      1.0000 0.46710  0.14270  0.04780  Biso   1.000  H
  H88      1.0000 0.53290  0.35730  0.04780  Biso   1.000  H
  H89      1.0000 0.60730  0.21710  0.70220  Biso   1.000  H
  H90      1.0000 0.39270  0.28290  0.70220  Biso   1.000  H
  H91      1.0000 0.53290  0.85730  0.95220  Biso   1.000  H
  H92      1.0000 0.46710  0.64270  0.95220  Biso   1.000  H
  H93      1.0000 0.10730  0.71710  0.20220  Biso   1.000  H
  H94      1.0000 0.89270  0.78290  0.20220  Biso   1.000  H
  H95      1.0000 0.03290  0.35730  0.45220  Biso   1.000  H
  H96      1.0000 0.96710  0.14270  0.45220  Biso   1.000  H
  C113     1.0000 0.28490  0.79800  0.26580  Biso   1.000  C
  C114     1.0000 0.71510  0.70200  0.26580  Biso   1.000  C
  C115     1.0000 0.95200  0.53490  0.51580  Biso   1.000  C
  C116     1.0000 0.04800  0.96510  0.51580  Biso   1.000  C
  C117     1.0000 0.78490  0.29800  0.76580  Biso   1.000  C
  C118     1.0000 0.21510  0.20200  0.76580  Biso   1.000  C
  C119     1.0000 0.45200  0.03490  0.01580  Biso   1.000  C
  C120     1.0000 0.54800  0.46510  0.01580  Biso   1.000  C
  C121     1.0000 0.71510  0.20200  0.73420  Biso   1.000  C
  C122     1.0000 0.28490  0.29800  0.73420  Biso   1.000  C
  C123     1.0000 0.54800  0.96510  0.98420  Biso   1.000  C
  C124     1.0000 0.45200  0.53490  0.98420  Biso   1.000  C
  C125     1.0000 0.21510  0.70200  0.23420  Biso   1.000  C
  C126     1.0000 0.78490  0.79800  0.23420  Biso   1.000  C
  C127     1.0000 0.04800  0.46510  0.48420  Biso   1.000  C
  C128     1.0000 0.95200  0.03490  0.48420  Biso   1.000  C
  C129     1.0000 0.25500  0.73800  0.25770  Biso   1.000  C
  C130     1.0000 0.74500  0.76200  0.25770  Biso   1.000  C
  C131     1.0000 0.01200  0.50500  0.50770  Biso   1.000  C
  C132     1.0000 0.98800  0.99500  0.50770  Biso   1.000  C
  C133     1.0000 0.75500  0.23800  0.75770  Biso   1.000  C
  C134     1.0000 0.24500  0.26200  0.75770  Biso   1.000  C
  C135     1.0000 0.51200  0.00500  0.00770  Biso   1.000  C
  C136     1.0000 0.48800  0.49500  0.00770  Biso   1.000  C
  C137     1.0000 0.74500  0.26200  0.74230  Biso   1.000  C
  C138     1.0000 0.25500  0.23800  0.74230  Biso   1.000  C
  C139     1.0000 0.48800  0.99500  0.99230  Biso   1.000  C
  C140     1.0000 0.51200  0.50500  0.99230  Biso   1.000  C
  C141     1.0000 0.24500  0.76200  0.24230  Biso   1.000  C
  C142     1.0000 0.75500  0.73800  0.24230  Biso   1.000  C
  C143     1.0000 0.98800  0.49500  0.49230  Biso   1.000  C
  C144     1.0000 0.01200  0.00500  0.49230  Biso   1.000  C
  C145     1.0000 0.63240  0.27930  0.30332  Biso   1.000  C
  C146     1.0000 0.36760  0.22070  0.30332  Biso   1.000  C
  C147     1.0000 0.47070  0.88240  0.55332  Biso   1.000  C
  C148     1.0000 0.52930  0.61760  0.55332  Biso   1.000  C
  C149     1.0000 0.13240  0.77930  0.80332  Biso   1.000  C
  C150     1.0000 0.86760  0.72070  0.80332  Biso   1.000  C
  C151     1.0000 0.97070  0.38240  0.05332  Biso   1.000  C
  C152     1.0000 0.02930  0.11760  0.05332  Biso   1.000  C
  C153     1.0000 0.36760  0.72070  0.69668  Biso   1.000  C
  C154     1.0000 0.63240  0.77930  0.69668  Biso   1.000  C
  C155     1.0000 0.02930  0.61760  0.94668  Biso   1.000  C
  C156     1.0000 0.97070  0.88240  0.94668  Biso   1.000  C
  C157     1.0000 0.86760  0.22070  0.19668  Biso   1.000  C
  C158     1.0000 0.13240  0.27930  0.19668  Biso   1.000  C
  C159     1.0000 0.52930  0.11760  0.44668  Biso   1.000  C
  C160     1.0000 0.47070  0.38240  0.44668  Biso   1.000  C
  C161     1.0000 0.60410  0.36510  0.29061  Biso   1.000  C
  C162     1.0000 0.39590  0.13490  0.29061  Biso   1.000  C
  C163     1.0000 0.38490  0.85410  0.54061  Biso   1.000  C
  C164     1.0000 0.61510  0.64590  0.54061  Biso   1.000  C
  C165     1.0000 0.10410  0.86510  0.79061  Biso   1.000  C
  C166     1.0000 0.89590  0.63490  0.79061  Biso   1.000  C
  C167     1.0000 0.88490  0.35410  0.04061  Biso   1.000  C
  C168     1.0000 0.11510  0.14590  0.04061  Biso   1.000  C
  C169     1.0000 0.39590  0.63490  0.70939  Biso   1.000  C
  C170     1.0000 0.60410  0.86510  0.70939  Biso   1.000  C
  C171     1.0000 0.11510  0.64590  0.95939  Biso   1.000  C
  C172     1.0000 0.88490  0.85410  0.95939  Biso   1.000  C
  C173     1.0000 0.89590  0.13490  0.20939  Biso   1.000  C
  C174     1.0000 0.10410  0.36510  0.20939  Biso   1.000  C
  C175     1.0000 0.61510  0.14590  0.45939  Biso   1.000  C
  C176     1.0000 0.38490  0.35410  0.45939  Biso   1.000  C
  C177     1.0000 0.59910  0.37150  0.25694  Biso   1.000  C
  C178     1.0000 0.40090  0.12850  0.25694  Biso   1.000  C
  C179     1.0000 0.37850  0.84910  0.50694  Biso   1.000  C
  C180     1.0000 0.62150  0.65090  0.50694  Biso   1.000  C
  C181     1.0000 0.09910  0.87150  0.75694  Biso   1.000  C
  C182     1.0000 0.90090  0.62850  0.75694  Biso   1.000  C
  C183     1.0000 0.87850  0.34910  0.00694  Biso   1.000  C
  C184     1.0000 0.12150  0.15090  0.00694  Biso   1.000  C
  C185     1.0000 0.40090  0.62850  0.74306  Biso   1.000  C
  C186     1.0000 0.59910  0.87150  0.74306  Biso   1.000  C
  C187     1.0000 0.12150  0.65090  0.99306  Biso   1.000  C
  C188     1.0000 0.87850  0.84910  0.99306  Biso   1.000  C
  C189     1.0000 0.90090  0.12850  0.24306  Biso   1.000  C
  C190     1.0000 0.09910  0.37150  0.24306  Biso   1.000  C
  C191     1.0000 0.62150  0.15090  0.49306  Biso   1.000  C
  C192     1.0000 0.37850  0.34910  0.49306  Biso   1.000  C
  C193     1.0000 0.61370  0.29630  0.23770  Biso   1.000  C
  C194     1.0000 0.38630  0.20370  0.23770  Biso   1.000  C
  C195     1.0000 0.45370  0.86370  0.48770  Biso   1.000  C
  C196     1.0000 0.54630  0.63630  0.48770  Biso   1.000  C
  C197     1.0000 0.11370  0.79630  0.73770  Biso   1.000  C
  C198     1.0000 0.88630  0.70370  0.73770  Biso   1.000  C
  C199     1.0000 0.95370  0.36370  0.98770  Biso   1.000  C
  C200     1.0000 0.04630  0.13630  0.98770  Biso   1.000  C
  C201     1.0000 0.38630  0.70370  0.76230  Biso   1.000  C
  C202     1.0000 0.61370  0.79630  0.76230  Biso   1.000  C
  C203     1.0000 0.04630  0.63630  0.01230  Biso   1.000  C
  C204     1.0000 0.95370  0.86370  0.01230  Biso   1.000  C
  C205     1.0000 0.88630  0.20370  0.26230  Biso   1.000  C
  C206     1.0000 0.11370  0.29630  0.26230  Biso   1.000  C
  C207     1.0000 0.54630  0.13630  0.51230  Biso   1.000  C
  C208     1.0000 0.45370  0.36370  0.51230  Biso   1.000  C
  H97      1.0000 0.60790  0.30370  0.21550  Biso   1.000  H
  H98      1.0000 0.39210  0.19630  0.21550  Biso   1.000  H
  H99      1.0000 0.44630  0.85790  0.46550  Biso   1.000  H
  H100     1.0000 0.55370  0.64210  0.46550  Biso   1.000  H
  H101     1.0000 0.10790  0.80370  0.71550  Biso   1.000  H
  H102     1.0000 0.89210  0.69630  0.71550  Biso   1.000  H
  H103     1.0000 0.94630  0.35790  0.96550  Biso   1.000  H
  H104     1.0000 0.05370  0.14210  0.96550  Biso   1.000  H
  H105     1.0000 0.39210  0.69630  0.78450  Biso   1.000  H
  H106     1.0000 0.60790  0.80370  0.78450  Biso   1.000  H
  H107     1.0000 0.05370  0.64210  0.03450  Biso   1.000  H
  H108     1.0000 0.94630  0.85790  0.03450  Biso   1.000  H
  H109     1.0000 0.89210  0.19630  0.28450  Biso   1.000  H
  H110     1.0000 0.10790  0.30370  0.28450  Biso   1.000  H
  H111     1.0000 0.55370  0.14210  0.53450  Biso   1.000  H
  H112     1.0000 0.44630  0.35790  0.53450  Biso   1.000  H
  C209     1.0000 0.63600  0.21160  0.24925  Biso   1.000  C
  C210     1.0000 0.36400  0.28840  0.24925  Biso   1.000  C
  C211     1.0000 0.53840  0.88600  0.49925  Biso   1.000  C
  C212     1.0000 0.46160  0.61400  0.49925  Biso   1.000  C
  C213     1.0000 0.13600  0.71160  0.74925  Biso   1.000  C
  C214     1.0000 0.86400  0.78840  0.74925  Biso   1.000  C
  C215     1.0000 0.03840  0.38600  0.99925  Biso   1.000  C
  C216     1.0000 0.96160  0.11400  0.99925  Biso   1.000  C
  C217     1.0000 0.36400  0.78840  0.75075  Biso   1.000  C
  C218     1.0000 0.63600  0.71160  0.75075  Biso   1.000  C
  C219     1.0000 0.96160  0.61400  0.00075  Biso   1.000  C
  C220     1.0000 0.03840  0.88600  0.00075  Biso   1.000  C
  C221     1.0000 0.86400  0.28840  0.25075  Biso   1.000  C
  C222     1.0000 0.13600  0.21160  0.25075  Biso   1.000  C
  C223     1.0000 0.46160  0.11400  0.50075  Biso   1.000  C
  C224     1.0000 0.53840  0.38600  0.50075  Biso   1.000  C
  C225     1.0000 0.64910  0.20240  0.28403  Biso   1.000  C
  C226     1.0000 0.35090  0.29760  0.28403  Biso   1.000  C
  C227     1.0000 0.54760  0.89910  0.53403  Biso   1.000  C
  C228     1.0000 0.45240  0.60090  0.53403  Biso   1.000  C
  C229     1.0000 0.14910  0.70240  0.78403  Biso   1.000  C
  C230     1.0000 0.85090  0.79760  0.78403  Biso   1.000  C
  C231     1.0000 0.04760  0.39910  0.03403  Biso   1.000  C
  C232     1.0000 0.95240  0.10090  0.03403  Biso   1.000  C
  C233     1.0000 0.35090  0.79760  0.71597  Biso   1.000  C
  C234     1.0000 0.64910  0.70240  0.71597  Biso   1.000  C
  C235     1.0000 0.95240  0.60090  0.96597  Biso   1.000  C
  C236     1.0000 0.04760  0.89910  0.96597  Biso   1.000  C
  C237     1.0000 0.85090  0.29760  0.21597  Biso   1.000  C
  C238     1.0000 0.14910  0.20240  0.21597  Biso   1.000  C
  C239     1.0000 0.45240  0.10090  0.46597  Biso   1.000  C
  C240     1.0000 0.54760  0.39910  0.46597  Biso   1.000  C
  H113     1.0000 0.66820  0.14620  0.29300  Biso   1.000  H
  H114     1.0000 0.33180  0.35380  0.29300  Biso   1.000  H
  H115     1.0000 0.60380  0.91820  0.54300  Biso   1.000  H
  H116     1.0000 0.39620  0.58180  0.54300  Biso   1.000  H
  H117     1.0000 0.16820  0.64620  0.79300  Biso   1.000  H
  H118     1.0000 0.83180  0.85380  0.79300  Biso   1.000  H
  H119     1.0000 0.10380  0.41820  0.04300  Biso   1.000  H
  H120     1.0000 0.89620  0.08180  0.04300  Biso   1.000  H
  H121     1.0000 0.33180  0.85380  0.70700  Biso   1.000  H
  H122     1.0000 0.66820  0.64620  0.70700  Biso   1.000  H
  H123     1.0000 0.89620  0.58180  0.95700  Biso   1.000  H
  H124     1.0000 0.10380  0.91820  0.95700  Biso   1.000  H
  H125     1.0000 0.83180  0.35380  0.20700  Biso   1.000  H
  H126     1.0000 0.16820  0.14620  0.20700  Biso   1.000  H
  H127     1.0000 0.39620  0.08180  0.45700  Biso   1.000  H
  H128     1.0000 0.60380  0.41820  0.45700  Biso   1.000  H
  C241     1.0000 0.65330  0.26210  0.33950  Biso   1.000  C
  C242     1.0000 0.34670  0.23790  0.33950  Biso   1.000  C
  C243     1.0000 0.48790  0.90330  0.58950  Biso   1.000  C
  C244     1.0000 0.51210  0.59670  0.58950  Biso   1.000  C
  C245     1.0000 0.15330  0.76210  0.83950  Biso   1.000  C
  C246     1.0000 0.84670  0.73790  0.83950  Biso   1.000  C
  C247     1.0000 0.98790  0.40330  0.08950  Biso   1.000  C
  C248     1.0000 0.01210  0.09670  0.08950  Biso   1.000  C
  C249     1.0000 0.34670  0.73790  0.66050  Biso   1.000  C
  C250     1.0000 0.65330  0.76210  0.66050  Biso   1.000  C
  C251     1.0000 0.01210  0.59670  0.91050  Biso   1.000  C
  C252     1.0000 0.98790  0.90330  0.91050  Biso   1.000  C
  C253     1.0000 0.84670  0.23790  0.16050  Biso   1.000  C
  C254     1.0000 0.15330  0.26210  0.16050  Biso   1.000  C
  C255     1.0000 0.51210  0.09670  0.41050  Biso   1.000  C
  C256     1.0000 0.48790  0.40330  0.41050  Biso   1.000  C
  N1       1.0000 0.71000  0.51920  0.36143  Biso   1.000  N
  N2       1.0000 0.29000  0.98080  0.36143  Biso   1.000  N
  N3       1.0000 0.23080  0.96000  0.61143  Biso   1.000  N
  N4       1.0000 0.76920  0.54000  0.61143  Biso   1.000  N
  N5       1.0000 0.21000  0.01920  0.86143  Biso   1.000  N
  N6       1.0000 0.79000  0.48080  0.86143  Biso   1.000  N
  N7       1.0000 0.73080  0.46000  0.11143  Biso   1.000  N
  N8       1.0000 0.26920  0.04000  0.11143  Biso   1.000  N
  N9       1.0000 0.29000  0.48080  0.63857  Biso   1.000  N
  N10      1.0000 0.71000  0.01920  0.63857  Biso   1.000  N
  N11      1.0000 0.26920  0.54000  0.88857  Biso   1.000  N
  N12      1.0000 0.73080  0.96000  0.88857  Biso   1.000  N
  N13      1.0000 0.79000  0.98080  0.13857  Biso   1.000  N
  N14      1.0000 0.21000  0.51920  0.13857  Biso   1.000  N
  N15      1.0000 0.76920  0.04000  0.38857  Biso   1.000  N
  N16      1.0000 0.23080  0.46000  0.38857  Biso   1.000  N
  N17      1.0000 0.84000  0.57520  0.38425  Biso   1.000  N
  N18      1.0000 0.16000  0.92480  0.38425  Biso   1.000  N
  N19      1.0000 0.17480  0.09000  0.63425  Biso   1.000  N
  N20      1.0000 0.82520  0.41000  0.63425  Biso   1.000  N
  N21      1.0000 0.34000  0.07520  0.88425  Biso   1.000  N
  N22      1.0000 0.66000  0.42480  0.88425  Biso   1.000  N
  N23      1.0000 0.67480  0.59000  0.13425  Biso   1.000  N
  N24      1.0000 0.32520  0.91000  0.13425  Biso   1.000  N
  N25      1.0000 0.16000  0.42480  0.61575  Biso   1.000  N
  N26      1.0000 0.84000  0.07520  0.61575  Biso   1.000  N
  N27      1.0000 0.32520  0.41000  0.86575  Biso   1.000  N
  N28      1.0000 0.67480  0.09000  0.86575  Biso   1.000  N
  N29      1.0000 0.66000  0.92480  0.11575  Biso   1.000  N
  N30      1.0000 0.34000  0.57520  0.11575  Biso   1.000  N
  N31      1.0000 0.82520  0.91000  0.36575  Biso   1.000  N
  N32      1.0000 0.17480  0.59000  0.36575  Biso   1.000  N
  N33      1.0000 0.85190  0.55270  0.35309  Biso   1.000  N
  N34      1.0000 0.14810  0.94730  0.35309  Biso   1.000  N
  N35      1.0000 0.19730  0.10190  0.60309  Biso   1.000  N
  N36      1.0000 0.80270  0.39810  0.60309  Biso   1.000  N
  N37      1.0000 0.35190  0.05270  0.85309  Biso   1.000  N
  N38      1.0000 0.64810  0.44730  0.85309  Biso   1.000  N
  N39      1.0000 0.69730  0.60190  0.10309  Biso   1.000  N
  N40      1.0000 0.30270  0.89810  0.10309  Biso   1.000  N
  N41      1.0000 0.14810  0.44730  0.64691  Biso   1.000  N
  N42      1.0000 0.85190  0.05270  0.64691  Biso   1.000  N
  N43      1.0000 0.30270  0.39810  0.89691  Biso   1.000  N
  N44      1.0000 0.69730  0.10190  0.89691  Biso   1.000  N
  N45      1.0000 0.64810  0.94730  0.14691  Biso   1.000  N
  N46      1.0000 0.35190  0.55270  0.14691  Biso   1.000  N
  N47      1.0000 0.80270  0.89810  0.39691  Biso   1.000  N
  N48      1.0000 0.19730  0.60190  0.39691  Biso   1.000  N
  N49      1.0000 0.48880  0.55630  0.35026  Biso   1.000  N
  N50      1.0000 0.51120  0.94370  0.35026  Biso   1.000  N
  N51      1.0000 0.19370  0.73880  0.60026  Biso   1.000  N
  N52      1.0000 0.80630  0.76120  0.60026  Biso   1.000  N
  N53      1.0000 0.98880  0.05630  0.85026  Biso   1.000  N
  N54      1.0000 0.01120  0.44370  0.85026  Biso   1.000  N
  N55      1.0000 0.69370  0.23880  0.10026  Biso   1.000  N
  N56      1.0000 0.30630  0.26120  0.10026  Biso   1.000  N
  N57      1.0000 0.51120  0.44370  0.64974  Biso   1.000  N
  N58      1.0000 0.48880  0.05630  0.64974  Biso   1.000  N
  N59      1.0000 0.30630  0.76120  0.89974  Biso   1.000  N
  N60      1.0000 0.69370  0.73880  0.89974  Biso   1.000  N
  N61      1.0000 0.01120  0.94370  0.14974  Biso   1.000  N
  N62      1.0000 0.98880  0.55630  0.14974  Biso   1.000  N
  N63      1.0000 0.80630  0.26120  0.39974  Biso   1.000  N
  N64      1.0000 0.19370  0.23880  0.39974  Biso   1.000  N
  C257     1.0000 0.46140  0.61650  0.37271  Biso   1.000  C
  C258     1.0000 0.53860  0.88350  0.37271  Biso   1.000  C
  C259     1.0000 0.13350  0.71140  0.62271  Biso   1.000  C
  C260     1.0000 0.86650  0.78860  0.62271  Biso   1.000  C
  C261     1.0000 0.96140  0.11650  0.87271  Biso   1.000  C
  C262     1.0000 0.03860  0.38350  0.87271  Biso   1.000  C
  C263     1.0000 0.63350  0.21140  0.12271  Biso   1.000  C
  C264     1.0000 0.36650  0.28860  0.12271  Biso   1.000  C
  C265     1.0000 0.53860  0.38350  0.62729  Biso   1.000  C
  C266     1.0000 0.46140  0.11650  0.62729  Biso   1.000  C
  C267     1.0000 0.36650  0.78860  0.87729  Biso   1.000  C
  C268     1.0000 0.63350  0.71140  0.87729  Biso   1.000  C
  C269     1.0000 0.03860  0.88350  0.12729  Biso   1.000  C
  C270     1.0000 0.96140  0.61650  0.12729  Biso   1.000  C
  C271     1.0000 0.86650  0.28860  0.37729  Biso   1.000  C
  C272     1.0000 0.13350  0.21140  0.37729  Biso   1.000  C
  H129     1.0000 0.48140  0.61790  0.39410  Biso   1.000  H
  H130     1.0000 0.51860  0.88210  0.39410  Biso   1.000  H
  H131     1.0000 0.13210  0.73140  0.64410  Biso   1.000  H
  H132     1.0000 0.86790  0.76860  0.64410  Biso   1.000  H
  H133     1.0000 0.98140  0.11790  0.89410  Biso   1.000  H
  H134     1.0000 0.01860  0.38210  0.89410  Biso   1.000  H
  H135     1.0000 0.63210  0.23140  0.14410  Biso   1.000  H
  H136     1.0000 0.36790  0.26860  0.14410  Biso   1.000  H
  H137     1.0000 0.51860  0.38210  0.60590  Biso   1.000  H
  H138     1.0000 0.48140  0.11790  0.60590  Biso   1.000  H
  H139     1.0000 0.36790  0.76860  0.85590  Biso   1.000  H
  H140     1.0000 0.63210  0.73140  0.85590  Biso   1.000  H
  H141     1.0000 0.01860  0.88210  0.10590  Biso   1.000  H
  H142     1.0000 0.98140  0.61790  0.10590  Biso   1.000  H
  H143     1.0000 0.86790  0.26860  0.35590  Biso   1.000  H
  H144     1.0000 0.13210  0.23140  0.35590  Biso   1.000  H
  N65      1.0000 0.40030  0.67420  0.35930  Biso   1.000  N
  N66      1.0000 0.59970  0.82580  0.35930  Biso   1.000  N
  N67      1.0000 0.07580  0.65030  0.60930  Biso   1.000  N
  N68      1.0000 0.92420  0.84970  0.60930  Biso   1.000  N
  N69      1.0000 0.90030  0.17420  0.85930  Biso   1.000  N
  N70      1.0000 0.09970  0.32580  0.85930  Biso   1.000  N
  N71      1.0000 0.57580  0.15030  0.10930  Biso   1.000  N
  N72      1.0000 0.42420  0.34970  0.10930  Biso   1.000  N
  N73      1.0000 0.59970  0.32580  0.64070  Biso   1.000  N
  N74      1.0000 0.40030  0.17420  0.64070  Biso   1.000  N
  N75      1.0000 0.42420  0.84970  0.89070  Biso   1.000  N
  N76      1.0000 0.57580  0.65030  0.89070  Biso   1.000  N
  N77      1.0000 0.09970  0.82580  0.14070  Biso   1.000  N
  N78      1.0000 0.90030  0.67420  0.14070  Biso   1.000  N
  N79      1.0000 0.92420  0.34970  0.39070  Biso   1.000  N
  N80      1.0000 0.07580  0.15030  0.39070  Biso   1.000  N
  N81      1.0000 0.39000  0.64970  0.32854  Biso   1.000  N
  N82      1.0000 0.61000  0.85030  0.32854  Biso   1.000  N
  N83      1.0000 0.10030  0.64000  0.57854  Biso   1.000  N
  N84      1.0000 0.89970  0.86000  0.57854  Biso   1.000  N
  N85      1.0000 0.89000  0.14970  0.82854  Biso   1.000  N
  N86      1.0000 0.11000  0.35030  0.82854  Biso   1.000  N
  N87      1.0000 0.60030  0.14000  0.07854  Biso   1.000  N
  N88      1.0000 0.39970  0.36000  0.07854  Biso   1.000  N
  N89      1.0000 0.61000  0.35030  0.67146  Biso   1.000  N
  N90      1.0000 0.39000  0.14970  0.67146  Biso   1.000  N
  N91      1.0000 0.39970  0.86000  0.92146  Biso   1.000  N
  N92      1.0000 0.60030  0.64000  0.92146  Biso   1.000  N
  N93      1.0000 0.11000  0.85030  0.17146  Biso   1.000  N
  N94      1.0000 0.89000  0.64970  0.17146  Biso   1.000  N
  N95      1.0000 0.89970  0.36000  0.42146  Biso   1.000  N
  N96      1.0000 0.10030  0.14000  0.42146  Biso   1.000  N
  C273     1.0000 0.44470  0.57690  0.32297  Biso   1.000  C
  C274     1.0000 0.55530  0.92310  0.32297  Biso   1.000  C
  C275     1.0000 0.17310  0.69470  0.57297  Biso   1.000  C
  C276     1.0000 0.82690  0.80530  0.57297  Biso   1.000  C
  C277     1.0000 0.94470  0.07690  0.82297  Biso   1.000  C
  C278     1.0000 0.05530  0.42310  0.82297  Biso   1.000  C
  C279     1.0000 0.67310  0.19470  0.07297  Biso   1.000  C
  C280     1.0000 0.32690  0.30530  0.07297  Biso   1.000  C
  C281     1.0000 0.55530  0.42310  0.67703  Biso   1.000  C
  C282     1.0000 0.44470  0.07690  0.67703  Biso   1.000  C
  C283     1.0000 0.32690  0.80530  0.92703  Biso   1.000  C
  C284     1.0000 0.67310  0.69470  0.92703  Biso   1.000  C
  C285     1.0000 0.05530  0.92310  0.17703  Biso   1.000  C
  C286     1.0000 0.94470  0.57690  0.17703  Biso   1.000  C
  C287     1.0000 0.82690  0.30530  0.42703  Biso   1.000  C
  C288     1.0000 0.17310  0.19470  0.42703  Biso   1.000  C
  H145     1.0000 0.45100  0.54570  0.30340  Biso   1.000  H
  H146     1.0000 0.54900  0.95430  0.30340  Biso   1.000  H
  H147     1.0000 0.20430  0.70100  0.55340  Biso   1.000  H
  H148     1.0000 0.79570  0.79900  0.55340  Biso   1.000  H
  H149     1.0000 0.95100  0.04570  0.80340  Biso   1.000  H
  H150     1.0000 0.04900  0.45430  0.80340  Biso   1.000  H
  H151     1.0000 0.70430  0.20100  0.05340  Biso   1.000  H
  H152     1.0000 0.29570  0.29900  0.05340  Biso   1.000  H
  H153     1.0000 0.54900  0.45430  0.69660  Biso   1.000  H
  H154     1.0000 0.45100  0.04570  0.69660  Biso   1.000  H
  H155     1.0000 0.29570  0.79900  0.94660  Biso   1.000  H
  H156     1.0000 0.70430  0.70100  0.94660  Biso   1.000  H
  H157     1.0000 0.04900  0.95430  0.19660  Biso   1.000  H
  H158     1.0000 0.95100  0.54570  0.19660  Biso   1.000  H
  H159     1.0000 0.79570  0.29900  0.44660  Biso   1.000  H
  H160     1.0000 0.20430  0.20100  0.44660  Biso   1.000  H
  N97      1.0000 0.57980  0.45980  0.24099  Biso   1.000  N
  N98      1.0000 0.42020  0.04020  0.24099  Biso   1.000  N
  N99      1.0000 0.29020  0.82980  0.49099  Biso   1.000  N
  N100     1.0000 0.70980  0.67020  0.49099  Biso   1.000  N
  N101     1.0000 0.07980  0.95980  0.74099  Biso   1.000  N
  N102     1.0000 0.92020  0.54020  0.74099  Biso   1.000  N
  N103     1.0000 0.79020  0.32980  0.99099  Biso   1.000  N
  N104     1.0000 0.20980  0.17020  0.99099  Biso   1.000  N
  N105     1.0000 0.42020  0.54020  0.75901  Biso   1.000  N
  N106     1.0000 0.57980  0.95980  0.75901  Biso   1.000  N
  N107     1.0000 0.20980  0.67020  0.00901  Biso   1.000  N
  N108     1.0000 0.79020  0.82980  0.00901  Biso   1.000  N
  N109     1.0000 0.92020  0.04020  0.25901  Biso   1.000  N
  N110     1.0000 0.07980  0.45980  0.25901  Biso   1.000  N
  N111     1.0000 0.70980  0.17020  0.50901  Biso   1.000  N
  N112     1.0000 0.29020  0.32980  0.50901  Biso   1.000  N
  N113     1.0000 0.65150  0.13150  0.22972  Biso   1.000  N
  N114     1.0000 0.34850  0.36850  0.22972  Biso   1.000  N
  N115     1.0000 0.61850  0.90150  0.47972  Biso   1.000  N
  N116     1.0000 0.38150  0.59850  0.47972  Biso   1.000  N
  N117     1.0000 0.15150  0.63150  0.72972  Biso   1.000  N
  N118     1.0000 0.84850  0.86850  0.72972  Biso   1.000  N
  N119     1.0000 0.11850  0.40150  0.97972  Biso   1.000  N
  N120     1.0000 0.88150  0.09850  0.97972  Biso   1.000  N
  N121     1.0000 0.34850  0.86850  0.77028  Biso   1.000  N
  N122     1.0000 0.65150  0.63150  0.77028  Biso   1.000  N
  N123     1.0000 0.88150  0.59850  0.02028  Biso   1.000  N
  N124     1.0000 0.11850  0.90150  0.02028  Biso   1.000  N
  N125     1.0000 0.84850  0.36850  0.27028  Biso   1.000  N
  N126     1.0000 0.15150  0.13150  0.27028  Biso   1.000  N
  N127     1.0000 0.38150  0.09850  0.52028  Biso   1.000  N
  N128     1.0000 0.61850  0.40150  0.52028  Biso   1.000  N
  O1       1.0000 0.69610  0.19150  0.34686  Biso   1.000  O
  O2       1.0000 0.30390  0.30850  0.34686  Biso   1.000  O
  O3       1.0000 0.55850  0.94610  0.59686  Biso   1.000  O
  O4       1.0000 0.44150  0.55390  0.59686  Biso   1.000  O
  O5       1.0000 0.19610  0.69150  0.84686  Biso   1.000  O
  O6       1.0000 0.80390  0.80850  0.84686  Biso   1.000  O
  O7       1.0000 0.05850  0.44610  0.09686  Biso   1.000  O
  O8       1.0000 0.94150  0.05390  0.09686  Biso   1.000  O
  O9       1.0000 0.30390  0.80850  0.65314  Biso   1.000  O
  O10      1.0000 0.69610  0.69150  0.65314  Biso   1.000  O
  O11      1.0000 0.94150  0.55390  0.90314  Biso   1.000  O
  O12      1.0000 0.05850  0.94610  0.90314  Biso   1.000  O
  O13      1.0000 0.80390  0.30850  0.15314  Biso   1.000  O
  O14      1.0000 0.19610  0.19150  0.15314  Biso   1.000  O
  O15      1.0000 0.44150  0.05390  0.40314  Biso   1.000  O
  O16      1.0000 0.55850  0.44610  0.40314  Biso   1.000  O
  O17      1.0000 0.70140  0.17370  0.36651  Biso   1.000  O
  O18      1.0000 0.29860  0.32630  0.36651  Biso   1.000  O
  O19      1.0000 0.57630  0.95140  0.61651  Biso   1.000  O
  O20      1.0000 0.42370  0.54860  0.61651  Biso   1.000  O
  O21      1.0000 0.20140  0.67370  0.86651  Biso   1.000  O
  O22      1.0000 0.79860  0.82630  0.86651  Biso   1.000  O
  O23      1.0000 0.07630  0.45140  0.11651  Biso   1.000  O
  O24      1.0000 0.92370  0.04860  0.11651  Biso   1.000  O
  O25      1.0000 0.29860  0.82630  0.63349  Biso   1.000  O
  O26      1.0000 0.70140  0.67370  0.63349  Biso   1.000  O
  O27      1.0000 0.92370  0.54860  0.88349  Biso   1.000  O
  O28      1.0000 0.07630  0.95140  0.88349  Biso   1.000  O
  O29      1.0000 0.79860  0.32630  0.13349  Biso   1.000  O
  O30      1.0000 0.20140  0.17370  0.13349  Biso   1.000  O
  O31      1.0000 0.42370  0.04860  0.38349  Biso   1.000  O
  O32      1.0000 0.57630  0.45140  0.38349  Biso   1.000  O
  O33      1.0000 0.62640  0.31790  0.35968  Biso   1.000  O
  O34      1.0000 0.37360  0.18210  0.35968  Biso   1.000  O
  O35      1.0000 0.43210  0.87640  0.60968  Biso   1.000  O
  O36      1.0000 0.56790  0.62360  0.60968  Biso   1.000  O
  O37      1.0000 0.12640  0.81790  0.85968  Biso   1.000  O
  O38      1.0000 0.87360  0.68210  0.85968  Biso   1.000  O
  O39      1.0000 0.93210  0.37640  0.10968  Biso   1.000  O
  O40      1.0000 0.06790  0.12360  0.10968  Biso   1.000  O
  O41      1.0000 0.37360  0.68210  0.64032  Biso   1.000  O
  O42      1.0000 0.62640  0.81790  0.64032  Biso   1.000  O
  O43      1.0000 0.06790  0.62360  0.89032  Biso   1.000  O
  O44      1.0000 0.93210  0.87640  0.89032  Biso   1.000  O
  O45      1.0000 0.87360  0.18210  0.14032  Biso   1.000  O
  O46      1.0000 0.12640  0.31790  0.14032  Biso   1.000  O
  O47      1.0000 0.56790  0.12360  0.39032  Biso   1.000  O
  O48      1.0000 0.43210  0.37640  0.39032  Biso   1.000  O
  O49      1.0000 0.58660  0.43790  0.30816  Biso   1.000  O
  O50      1.0000 0.41340  0.06210  0.30816  Biso   1.000  O
  O51      1.0000 0.31210  0.83660  0.55816  Biso   1.000  O
  O52      1.0000 0.68790  0.66340  0.55816  Biso   1.000  O
  O53      1.0000 0.08660  0.93790  0.80816  Biso   1.000  O
  O54      1.0000 0.91340  0.56210  0.80816  Biso   1.000  O
  O55      1.0000 0.81210  0.33660  0.05816  Biso   1.000  O
  O56      1.0000 0.18790  0.16340  0.05816  Biso   1.000  O
  O57      1.0000 0.41340  0.56210  0.69184  Biso   1.000  O
  O58      1.0000 0.58660  0.93790  0.69184  Biso   1.000  O
  O59      1.0000 0.18790  0.66340  0.94184  Biso   1.000  O
  O60      1.0000 0.81210  0.83660  0.94184  Biso   1.000  O
  O61      1.0000 0.91340  0.06210  0.19184  Biso   1.000  O
  O62      1.0000 0.08660  0.43790  0.19184  Biso   1.000  O
  O63      1.0000 0.68790  0.16340  0.44184  Biso   1.000  O
  O64      1.0000 0.31210  0.33660  0.44184  Biso   1.000  O
  O65      1.0000 0.52580  0.51440  0.25298  Biso   1.000  O
  O66      1.0000 0.47420  0.98560  0.25298  Biso   1.000  O
  O67      1.0000 0.23560  0.77580  0.50298  Biso   1.000  O
  O68      1.0000 0.76440  0.72420  0.50298  Biso   1.000  O
  O69      1.0000 0.02580  0.01440  0.75298  Biso   1.000  O
  O70      1.0000 0.97420  0.48560  0.75298  Biso   1.000  O
  O71      1.0000 0.73560  0.27580  0.00298  Biso   1.000  O
  O72      1.0000 0.26440  0.22420  0.00298  Biso   1.000  O
  O73      1.0000 0.47420  0.48560  0.74702  Biso   1.000  O
  O74      1.0000 0.52580  0.01440  0.74702  Biso   1.000  O
  O75      1.0000 0.26440  0.72420  0.99702  Biso   1.000  O
  O76      1.0000 0.73560  0.77580  0.99702  Biso   1.000  O
  O77      1.0000 0.97420  0.98560  0.24702  Biso   1.000  O
  O78      1.0000 0.02580  0.51440  0.24702  Biso   1.000  O
  O79      1.0000 0.76440  0.22420  0.49702  Biso   1.000  O
  O80      1.0000 0.23560  0.27580  0.49702  Biso   1.000  O
  O81      1.0000 0.61700  0.47450  0.21553  Biso   1.000  O
  O82      1.0000 0.38300  0.02550  0.21553  Biso   1.000  O
  O83      1.0000 0.27550  0.86700  0.46553  Biso   1.000  O
  O84      1.0000 0.72450  0.63300  0.46553  Biso   1.000  O
  O85      1.0000 0.11700  0.97450  0.71553  Biso   1.000  O
  O86      1.0000 0.88300  0.52550  0.71553  Biso   1.000  O
  O87      1.0000 0.77550  0.36700  0.96553  Biso   1.000  O
  O88      1.0000 0.22450  0.13300  0.96553  Biso   1.000  O
  O89      1.0000 0.38300  0.52550  0.78447  Biso   1.000  O
  O90      1.0000 0.61700  0.97450  0.78447  Biso   1.000  O
  O91      1.0000 0.22450  0.63300  0.03447  Biso   1.000  O
  O92      1.0000 0.77550  0.86700  0.03447  Biso   1.000  O
  O93      1.0000 0.88300  0.02550  0.28447  Biso   1.000  O
  O94      1.0000 0.11700  0.47450  0.28447  Biso   1.000  O
  O95      1.0000 0.72450  0.13300  0.53447  Biso   1.000  O
  O96      1.0000 0.27550  0.36700  0.53447  Biso   1.000  O
  O97      1.0000 0.63190  0.13950  0.20078  Biso   1.000  O
  O98      1.0000 0.36810  0.36050  0.20078  Biso   1.000  O
  O99      1.0000 0.61050  0.88190  0.45078  Biso   1.000  O
  O100     1.0000 0.38950  0.61810  0.45078  Biso   1.000  O
  O101     1.0000 0.13190  0.63950  0.70078  Biso   1.000  O
  O102     1.0000 0.86810  0.86050  0.70078  Biso   1.000  O
  O103     1.0000 0.11050  0.38190  0.95078  Biso   1.000  O
  O104     1.0000 0.88950  0.11810  0.95078  Biso   1.000  O
  O105     1.0000 0.36810  0.86050  0.79922  Biso   1.000  O
  O106     1.0000 0.63190  0.63950  0.79922  Biso   1.000  O
  O107     1.0000 0.88950  0.61810  0.04922  Biso   1.000  O
  O108     1.0000 0.11050  0.88190  0.04922  Biso   1.000  O
  O109     1.0000 0.86810  0.36050  0.29922  Biso   1.000  O
  O110     1.0000 0.13190  0.13950  0.29922  Biso   1.000  O
  O111     1.0000 0.38950  0.11810  0.54922  Biso   1.000  O
  O112     1.0000 0.61050  0.38190  0.54922  Biso   1.000  O
  O113     1.0000 0.68220  0.05790  0.24130  Biso   1.000  O
  O114     1.0000 0.31780  0.44210  0.24130  Biso   1.000  O
  O115     1.0000 0.69210  0.93220  0.49130  Biso   1.000  O
  O116     1.0000 0.30790  0.56780  0.49130  Biso   1.000  O
  O117     1.0000 0.18220  0.55790  0.74130  Biso   1.000  O
  O118     1.0000 0.81780  0.94210  0.74130  Biso   1.000  O
  O119     1.0000 0.19210  0.43220  0.99130  Biso   1.000  O
  O120     1.0000 0.80790  0.06780  0.99130  Biso   1.000  O
  O121     1.0000 0.31780  0.94210  0.75870  Biso   1.000  O
  O122     1.0000 0.68220  0.55790  0.75870  Biso   1.000  O
  O123     1.0000 0.80790  0.56780  0.00870  Biso   1.000  O
  O124     1.0000 0.19210  0.93220  0.00870  Biso   1.000  O
  O125     1.0000 0.81780  0.44210  0.25870  Biso   1.000  O
  O126     1.0000 0.18220  0.05790  0.25870  Biso   1.000  O
  O127     1.0000 0.30790  0.06780  0.50870  Biso   1.000  O
  O128     1.0000 0.69210  0.43220  0.50870  Biso   1.000  O
  C289     1.0000 0.95000  0.65450  0.31760  Biso   1.000  C
  C290     1.0000 0.05000  0.84550  0.31760  Biso   1.000  C
  C291     1.0000 0.09550  0.20000  0.56760  Biso   1.000  C
  C292     1.0000 0.90450  0.30000  0.56760  Biso   1.000  C
  C293     1.0000 0.45000  0.15450  0.81760  Biso   1.000  C
  C294     1.0000 0.55000  0.34550  0.81760  Biso   1.000  C
  C295     1.0000 0.59550  0.70000  0.06760  Biso   1.000  C
  C296     1.0000 0.40450  0.80000  0.06760  Biso   1.000  C
  C297     1.0000 0.05000  0.34550  0.68240  Biso   1.000  C
  C298     1.0000 0.95000  0.15450  0.68240  Biso   1.000  C
  C299     1.0000 0.40450  0.30000  0.93240  Biso   1.000  C
  C300     1.0000 0.59550  0.20000  0.93240  Biso   1.000  C
  C301     1.0000 0.55000  0.84550  0.18240  Biso   1.000  C
  C302     1.0000 0.45000  0.65450  0.18240  Biso   1.000  C
  C303     1.0000 0.90450  0.80000  0.43240  Biso   1.000  C
  C304     1.0000 0.09550  0.70000  0.43240  Biso   1.000  C
  C305     1.0000 0.34800  0.72420  0.30830  Biso   1.000  C
  C306     1.0000 0.65200  0.77580  0.30830  Biso   1.000  C
  C307     1.0000 0.02580  0.59800  0.55830  Biso   1.000  C
  C308     1.0000 0.97420  0.90200  0.55830  Biso   1.000  C
  C309     1.0000 0.84800  0.22420  0.80830  Biso   1.000  C
  C310     1.0000 0.15200  0.27580  0.80830  Biso   1.000  C
  C311     1.0000 0.52580  0.09800  0.05830  Biso   1.000  C
  C312     1.0000 0.47420  0.40200  0.05830  Biso   1.000  C
  C313     1.0000 0.65200  0.27580  0.69170  Biso   1.000  C
  C314     1.0000 0.34800  0.22420  0.69170  Biso   1.000  C
  C315     1.0000 0.47420  0.90200  0.94170  Biso   1.000  C
  C316     1.0000 0.52580  0.59800  0.94170  Biso   1.000  C
  C317     1.0000 0.15200  0.77580  0.19170  Biso   1.000  C
  C318     1.0000 0.84800  0.72420  0.19170  Biso   1.000  C
  C319     1.0000 0.97420  0.40200  0.44170  Biso   1.000  C
  C320     1.0000 0.02580  0.09800  0.44170  Biso   1.000  C
  H161     1.0000 0.39410  0.77030  0.30230  Biso   1.000  H
  H162     1.0000 0.60590  0.72970  0.30230  Biso   1.000  H
  H163     1.0000 0.97970  0.64410  0.55230  Biso   1.000  H
  H164     1.0000 0.02030  0.85590  0.55230  Biso   1.000  H
  H165     1.0000 0.89410  0.27030  0.80230  Biso   1.000  H
  H166     1.0000 0.10590  0.22970  0.80230  Biso   1.000  H
  H167     1.0000 0.47970  0.14410  0.05230  Biso   1.000  H
  H168     1.0000 0.52030  0.35590  0.05230  Biso   1.000  H
  H169     1.0000 0.60590  0.22970  0.69770  Biso   1.000  H
  H170     1.0000 0.39410  0.27030  0.69770  Biso   1.000  H
  H171     1.0000 0.52030  0.85590  0.94770  Biso   1.000  H
  H172     1.0000 0.47970  0.64410  0.94770  Biso   1.000  H
  H173     1.0000 0.10590  0.72970  0.19770  Biso   1.000  H
  H174     1.0000 0.89410  0.77030  0.19770  Biso   1.000  H
  H175     1.0000 0.02030  0.35590  0.44770  Biso   1.000  H
  H176     1.0000 0.97970  0.14410  0.44770  Biso   1.000  H
  H177     1.0000 0.29770  0.75510  0.31980  Biso   1.000  H
  H178     1.0000 0.70230  0.74490  0.31980  Biso   1.000  H
  H179     1.0000 0.99490  0.54770  0.56980  Biso   1.000  H
  H180     1.0000 0.00510  0.95230  0.56980  Biso   1.000  H
  H181     1.0000 0.79770  0.25510  0.81980  Biso   1.000  H
  H182     1.0000 0.20230  0.24490  0.81980  Biso   1.000  H
  H183     1.0000 0.49490  0.04770  0.06980  Biso   1.000  H
  H184     1.0000 0.50510  0.45230  0.06980  Biso   1.000  H
  H185     1.0000 0.70230  0.24490  0.68020  Biso   1.000  H
  H186     1.0000 0.29770  0.25510  0.68020  Biso   1.000  H
  H187     1.0000 0.50510  0.95230  0.93020  Biso   1.000  H
  H188     1.0000 0.49490  0.54770  0.93020  Biso   1.000  H
  H189     1.0000 0.20230  0.74490  0.18020  Biso   1.000  H
  H190     1.0000 0.79770  0.75510  0.18020  Biso   1.000  H
  H191     1.0000 0.00510  0.45230  0.43020  Biso   1.000  H
  H192     1.0000 0.99490  0.04770  0.43020  Biso   1.000  H
  C321     1.0000 0.31200  0.67500  0.27910  Biso   1.000  C
  C322     1.0000 0.68800  0.82500  0.27910  Biso   1.000  C
  C323     1.0000 0.07500  0.56200  0.52910  Biso   1.000  C
  C324     1.0000 0.92500  0.93800  0.52910  Biso   1.000  C
  C325     1.0000 0.81200  0.17500  0.77910  Biso   1.000  C
  C326     1.0000 0.18800  0.32500  0.77910  Biso   1.000  C
  C327     1.0000 0.57500  0.06200  0.02910  Biso   1.000  C
  C328     1.0000 0.42500  0.43800  0.02910  Biso   1.000  C
  C329     1.0000 0.68800  0.32500  0.72090  Biso   1.000  C
  C330     1.0000 0.31200  0.17500  0.72090  Biso   1.000  C
  C331     1.0000 0.42500  0.93800  0.97090  Biso   1.000  C
  C332     1.0000 0.57500  0.56200  0.97090  Biso   1.000  C
  C333     1.0000 0.18800  0.82500  0.22090  Biso   1.000  C
  C334     1.0000 0.81200  0.67500  0.22090  Biso   1.000  C
  C335     1.0000 0.92500  0.43800  0.47090  Biso   1.000  C
  C336     1.0000 0.07500  0.06200  0.47090  Biso   1.000  C
  H193     1.0000 0.27330  0.62250  0.28590  Biso   1.000  H
  H194     1.0000 0.72670  0.87750  0.28590  Biso   1.000  H
  H195     1.0000 0.12750  0.52330  0.53590  Biso   1.000  H
  H196     1.0000 0.87250  0.97670  0.53590  Biso   1.000  H
  H197     1.0000 0.77330  0.12250  0.78590  Biso   1.000  H
  H198     1.0000 0.22670  0.37750  0.78590  Biso   1.000  H
  H199     1.0000 0.62750  0.02330  0.03590  Biso   1.000  H
  H200     1.0000 0.37250  0.47670  0.03590  Biso   1.000  H
  H201     1.0000 0.72670  0.37750  0.71410  Biso   1.000  H
  H202     1.0000 0.27330  0.12250  0.71410  Biso   1.000  H
  H203     1.0000 0.37250  0.97670  0.96410  Biso   1.000  H
  H204     1.0000 0.62750  0.52330  0.96410  Biso   1.000  H
  H205     1.0000 0.22670  0.87750  0.21410  Biso   1.000  H
  H206     1.0000 0.77330  0.62250  0.21410  Biso   1.000  H
  H207     1.0000 0.87250  0.47670  0.46410  Biso   1.000  H
  H208     1.0000 0.12750  0.02330  0.46410  Biso   1.000  H
  H209     1.0000 0.36360  0.65000  0.26680  Biso   1.000  H
  H210     1.0000 0.63640  0.85000  0.26680  Biso   1.000  H
  H211     1.0000 0.10000  0.61360  0.51680  Biso   1.000  H
  H212     1.0000 0.90000  0.88640  0.51680  Biso   1.000  H
  H213     1.0000 0.86360  0.15000  0.76680  Biso   1.000  H
  H214     1.0000 0.13640  0.35000  0.76680  Biso   1.000  H
  H215     1.0000 0.60000  0.11360  0.01680  Biso   1.000  H
  H216     1.0000 0.40000  0.38640  0.01680  Biso   1.000  H
  H217     1.0000 0.63640  0.35000  0.73320  Biso   1.000  H
  H218     1.0000 0.36360  0.15000  0.73320  Biso   1.000  H
  H219     1.0000 0.40000  0.88640  0.98320  Biso   1.000  H
  H220     1.0000 0.60000  0.61360  0.98320  Biso   1.000  H
  H221     1.0000 0.13640  0.85000  0.23320  Biso   1.000  H
  H222     1.0000 0.86360  0.65000  0.23320  Biso   1.000  H
  H223     1.0000 0.90000  0.38640  0.48320  Biso   1.000  H
  H224     1.0000 0.10000  0.11360  0.48320  Biso   1.000  H
