data_image0
_cell_length_a       33.955
_cell_length_b       18.64
_cell_length_c       23.194
_cell_angle_alpha    90
_cell_angle_beta     127.744
_cell_angle_gamma    90

_symmetry_space_group_name_H-M    "P 1"
_symmetry_int_tables_number       1

loop_
  _symmetry_equiv_pos_as_xyz
  'x, y, z'

loop_
  _atom_site_label
  _atom_site_occupancy
  _atom_site_fract_x
  _atom_site_fract_y
  _atom_site_fract_z
  _atom_site_thermal_displace_type
  _atom_site_B_iso_or_equiv
  _atom_site_type_symbol
  Cu1      1.0000 0.13986  0.81182  0.20526  Biso   1.000  Cu
  Cu2      1.0000 0.63986  0.31182  0.20526  Biso   1.000  Cu
  Cu3      1.0000 0.86014  0.81182  0.29474  Biso   1.000  Cu
  Cu4      1.0000 0.36014  0.31182  0.29474  Biso   1.000  Cu
  Cu5      1.0000 0.86014  0.18818  0.79474  Biso   1.000  Cu
  Cu6      1.0000 0.36014  0.68818  0.79474  Biso   1.000  Cu
  Cu7      1.0000 0.13986  0.18818  0.70526  Biso   1.000  Cu
  Cu8      1.0000 0.63986  0.68818  0.70526  Biso   1.000  Cu
  Cu9      1.0000 0.15946  0.61455  0.22660  Biso   1.000  Cu
  Cu10     1.0000 0.65946  0.11455  0.22660  Biso   1.000  Cu
  Cu11     1.0000 0.84054  0.61455  0.27340  Biso   1.000  Cu
  Cu12     1.0000 0.34054  0.11455  0.27340  Biso   1.000  Cu
  Cu13     1.0000 0.84054  0.38545  0.77340  Biso   1.000  Cu
  Cu14     1.0000 0.34054  0.88545  0.77340  Biso   1.000  Cu
  Cu15     1.0000 0.15946  0.38545  0.72660  Biso   1.000  Cu
  Cu16     1.0000 0.65946  0.88545  0.72660  Biso   1.000  Cu
  Cu17     1.0000 0.15709  0.61505  0.08467  Biso   1.000  Cu
  Cu18     1.0000 0.65709  0.11505  0.08467  Biso   1.000  Cu
  Cu19     1.0000 0.84291  0.61505  0.41533  Biso   1.000  Cu
  Cu20     1.0000 0.34291  0.11505  0.41533  Biso   1.000  Cu
  Cu21     1.0000 0.84291  0.38495  0.91533  Biso   1.000  Cu
  Cu22     1.0000 0.34291  0.88495  0.91533  Biso   1.000  Cu
  Cu23     1.0000 0.15709  0.38495  0.58467  Biso   1.000  Cu
  Cu24     1.0000 0.65709  0.88495  0.58467  Biso   1.000  Cu
  Cu25     1.0000 0.14615  0.81060  0.05080  Biso   1.000  Cu
  Cu26     1.0000 0.64615  0.31060  0.05080  Biso   1.000  Cu
  Cu27     1.0000 0.85385  0.81060  0.44920  Biso   1.000  Cu
  Cu28     1.0000 0.35385  0.31060  0.44920  Biso   1.000  Cu
  Cu29     1.0000 0.85385  0.18940  0.94920  Biso   1.000  Cu
  Cu30     1.0000 0.35385  0.68940  0.94920  Biso   1.000  Cu
  Cu31     1.0000 0.14615  0.18940  0.55080  Biso   1.000  Cu
  Cu32     1.0000 0.64615  0.68940  0.55080  Biso   1.000  Cu
  S1       1.0000 0.20769  0.86272  0.31682  Biso   1.000  S
  S2       1.0000 0.70769  0.36272  0.31682  Biso   1.000  S
  S3       1.0000 0.79231  0.86272  0.18318  Biso   1.000  S
  S4       1.0000 0.29231  0.36272  0.18318  Biso   1.000  S
  S5       1.0000 0.79231  0.13728  0.68318  Biso   1.000  S
  S6       1.0000 0.29231  0.63728  0.68318  Biso   1.000  S
  S7       1.0000 0.20769  0.13728  0.81682  Biso   1.000  S
  S8       1.0000 0.70769  0.63728  0.81682  Biso   1.000  S
  S9       1.0000 0.24409  0.56900  0.34735  Biso   1.000  S
  S10      1.0000 0.74409  0.06900  0.34735  Biso   1.000  S
  S11      1.0000 0.75591  0.56900  0.15265  Biso   1.000  S
  S12      1.0000 0.25591  0.06900  0.15265  Biso   1.000  S
  S13      1.0000 0.75591  0.43100  0.65265  Biso   1.000  S
  S14      1.0000 0.25591  0.93100  0.65265  Biso   1.000  S
  S15      1.0000 0.24409  0.43100  0.84735  Biso   1.000  S
  S16      1.0000 0.74409  0.93100  0.84735  Biso   1.000  S
  S17      1.0000 0.23005  0.57673  0.09789  Biso   1.000  S
  S18      1.0000 0.73005  0.07673  0.09789  Biso   1.000  S
  S19      1.0000 0.76995  0.57673  0.40211  Biso   1.000  S
  S20      1.0000 0.26995  0.07673  0.40211  Biso   1.000  S
  S21      1.0000 0.76995  0.42327  0.90211  Biso   1.000  S
  S22      1.0000 0.26995  0.92327  0.90211  Biso   1.000  S
  S23      1.0000 0.23005  0.42327  0.59789  Biso   1.000  S
  S24      1.0000 0.73005  0.92327  0.59789  Biso   1.000  S
  S25      1.0000 0.22045  0.87129  0.09025  Biso   1.000  S
  S26      1.0000 0.72045  0.37129  0.09025  Biso   1.000  S
  S27      1.0000 0.77955  0.87129  0.40975  Biso   1.000  S
  S28      1.0000 0.27955  0.37129  0.40975  Biso   1.000  S
  S29      1.0000 0.77955  0.12871  0.90975  Biso   1.000  S
  S30      1.0000 0.27955  0.62871  0.90975  Biso   1.000  S
  S31      1.0000 0.22045  0.12871  0.59025  Biso   1.000  S
  S32      1.0000 0.72045  0.62871  0.59025  Biso   1.000  S
  S33      1.0000 0.35393  0.74610  0.58234  Biso   1.000  S
  S34      1.0000 0.85393  0.24610  0.58234  Biso   1.000  S
  S35      1.0000 0.64607  0.74610  0.91766  Biso   1.000  S
  S36      1.0000 0.14607  0.24610  0.91766  Biso   1.000  S
  S37      1.0000 0.64607  0.25390  0.41766  Biso   1.000  S
  S38      1.0000 0.14607  0.75390  0.41766  Biso   1.000  S
  S39      1.0000 0.35393  0.25390  0.08234  Biso   1.000  S
  S40      1.0000 0.85393  0.75390  0.08234  Biso   1.000  S
  S41      1.0000 0.40678  0.50360  0.35870  Biso   1.000  S
  S42      1.0000 0.90678  0.00360  0.35870  Biso   1.000  S
  S43      1.0000 0.59322  0.50360  0.14130  Biso   1.000  S
  S44      1.0000 0.09322  0.00360  0.14130  Biso   1.000  S
  S45      1.0000 0.59322  0.49640  0.64130  Biso   1.000  S
  S46      1.0000 0.09322  0.99640  0.64130  Biso   1.000  S
  S47      1.0000 0.40678  0.49640  0.85870  Biso   1.000  S
  S48      1.0000 0.90678  0.99640  0.85870  Biso   1.000  S
  S49      1.0000 0.37331  0.73199  0.11568  Biso   1.000  S
  S50      1.0000 0.87331  0.23199  0.11568  Biso   1.000  S
  S51      1.0000 0.62669  0.73199  0.38432  Biso   1.000  S
  S52      1.0000 0.12669  0.23199  0.38432  Biso   1.000  S
  S53      1.0000 0.62669  0.26801  0.88432  Biso   1.000  S
  S54      1.0000 0.12669  0.76801  0.88432  Biso   1.000  S
  S55      1.0000 0.37331  0.26801  0.61568  Biso   1.000  S
  S56      1.0000 0.87331  0.76801  0.61568  Biso   1.000  S
  S57      1.0000 0.37564  0.96750  0.36229  Biso   1.000  S
  S58      1.0000 0.87564  0.46750  0.36229  Biso   1.000  S
  S59      1.0000 0.62436  0.96750  0.13771  Biso   1.000  S
  S60      1.0000 0.12436  0.46750  0.13771  Biso   1.000  S
  S61      1.0000 0.62436  0.03250  0.63771  Biso   1.000  S
  S62      1.0000 0.12436  0.53250  0.63771  Biso   1.000  S
  S63      1.0000 0.37564  0.03250  0.86229  Biso   1.000  S
  S64      1.0000 0.87564  0.53250  0.86229  Biso   1.000  S
  S65      1.0000 0.07408  0.71949  0.05897  Biso   1.000  S
  S66      1.0000 0.57408  0.21949  0.05897  Biso   1.000  S
  S67      1.0000 0.92592  0.71949  0.44103  Biso   1.000  S
  S68      1.0000 0.42592  0.21949  0.44103  Biso   1.000  S
  S69      1.0000 0.92592  0.28051  0.94103  Biso   1.000  S
  S70      1.0000 0.42592  0.78051  0.94103  Biso   1.000  S
  S71      1.0000 0.07408  0.28051  0.55897  Biso   1.000  S
  S72      1.0000 0.57408  0.78051  0.55897  Biso   1.000  S
  O1       1.0000 0.19020  0.70900  0.26770  Biso   1.000  O
  O2       1.0000 0.69020  0.20900  0.26770  Biso   1.000  O
  O3       1.0000 0.80980  0.70900  0.23230  Biso   1.000  O
  O4       1.0000 0.30980  0.20900  0.23230  Biso   1.000  O
  O5       1.0000 0.80980  0.29100  0.73230  Biso   1.000  O
  O6       1.0000 0.30980  0.79100  0.73230  Biso   1.000  O
  O7       1.0000 0.19020  0.29100  0.76770  Biso   1.000  O
  O8       1.0000 0.69020  0.79100  0.76770  Biso   1.000  O
  O9       1.0000 0.19820  0.60230  0.18900  Biso   1.000  O
  O10      1.0000 0.69820  0.10230  0.18900  Biso   1.000  O
  O11      1.0000 0.80180  0.60230  0.31100  Biso   1.000  O
  O12      1.0000 0.30180  0.10230  0.31100  Biso   1.000  O
  O13      1.0000 0.80180  0.39770  0.81100  Biso   1.000  O
  O14      1.0000 0.30180  0.89770  0.81100  Biso   1.000  O
  O15      1.0000 0.19820  0.39770  0.68900  Biso   1.000  O
  O16      1.0000 0.69820  0.89770  0.68900  Biso   1.000  O
  O17      1.0000 0.18500  0.72370  0.07990  Biso   1.000  O
  O18      1.0000 0.68500  0.22370  0.07990  Biso   1.000  O
  O19      1.0000 0.81500  0.72370  0.42010  Biso   1.000  O
  O20      1.0000 0.31500  0.22370  0.42010  Biso   1.000  O
  O21      1.0000 0.81500  0.27630  0.92010  Biso   1.000  O
  O22      1.0000 0.31500  0.77630  0.92010  Biso   1.000  O
  O23      1.0000 0.18500  0.27630  0.57990  Biso   1.000  O
  O24      1.0000 0.68500  0.77630  0.57990  Biso   1.000  O
  O25      1.0000 0.17470  0.83560  0.16660  Biso   1.000  O
  O26      1.0000 0.67470  0.33560  0.16660  Biso   1.000  O
  O27      1.0000 0.82530  0.83560  0.33340  Biso   1.000  O
  O28      1.0000 0.32530  0.33560  0.33340  Biso   1.000  O
  O29      1.0000 0.82530  0.16440  0.83340  Biso   1.000  O
  O30      1.0000 0.32530  0.66440  0.83340  Biso   1.000  O
  O31      1.0000 0.17470  0.16440  0.66660  Biso   1.000  O
  O32      1.0000 0.67470  0.66440  0.66660  Biso   1.000  O
  O33      1.0000 0.35490  0.68130  0.61880  Biso   1.000  O
  O34      1.0000 0.85490  0.18130  0.61880  Biso   1.000  O
  O35      1.0000 0.64510  0.68130  0.88120  Biso   1.000  O
  O36      1.0000 0.14510  0.18130  0.88120  Biso   1.000  O
  O37      1.0000 0.64510  0.31870  0.38120  Biso   1.000  O
  O38      1.0000 0.14510  0.81870  0.38120  Biso   1.000  O
  O39      1.0000 0.35490  0.31870  0.11880  Biso   1.000  O
  O40      1.0000 0.85490  0.81870  0.11880  Biso   1.000  O
  O41      1.0000 0.34320  0.80890  0.60790  Biso   1.000  O
  O42      1.0000 0.84320  0.30890  0.60790  Biso   1.000  O
  O43      1.0000 0.65680  0.80890  0.89210  Biso   1.000  O
  O44      1.0000 0.15680  0.30890  0.89210  Biso   1.000  O
  O45      1.0000 0.65680  0.19110  0.39210  Biso   1.000  O
  O46      1.0000 0.15680  0.69110  0.39210  Biso   1.000  O
  O47      1.0000 0.34320  0.19110  0.10790  Biso   1.000  O
  O48      1.0000 0.84320  0.69110  0.10790  Biso   1.000  O
  O49      1.0000 0.39710  0.75450  0.58560  Biso   1.000  O
  O50      1.0000 0.89710  0.25450  0.58560  Biso   1.000  O
  O51      1.0000 0.60290  0.75450  0.91440  Biso   1.000  O
  O52      1.0000 0.10290  0.25450  0.91440  Biso   1.000  O
  O53      1.0000 0.60290  0.24550  0.41440  Biso   1.000  O
  O54      1.0000 0.10290  0.74550  0.41440  Biso   1.000  O
  O55      1.0000 0.39710  0.24550  0.08560  Biso   1.000  O
  O56      1.0000 0.89710  0.74550  0.08560  Biso   1.000  O
  O57      1.0000 0.43090  0.55030  0.34460  Biso   1.000  O
  O58      1.0000 0.93090  0.05030  0.34460  Biso   1.000  O
  O59      1.0000 0.56910  0.55030  0.15540  Biso   1.000  O
  O60      1.0000 0.06910  0.05030  0.15540  Biso   1.000  O
  O61      1.0000 0.56910  0.44970  0.65540  Biso   1.000  O
  O62      1.0000 0.06910  0.94970  0.65540  Biso   1.000  O
  O63      1.0000 0.43090  0.44970  0.84460  Biso   1.000  O
  O64      1.0000 0.93090  0.94970  0.84460  Biso   1.000  O
  O65      1.0000 0.42650  0.49880  0.43380  Biso   1.000  O
  O66      1.0000 0.92650  0.99880  0.43380  Biso   1.000  O
  O67      1.0000 0.57350  0.49880  0.06620  Biso   1.000  O
  O68      1.0000 0.07350  0.99880  0.06620  Biso   1.000  O
  O69      1.0000 0.57350  0.50120  0.56620  Biso   1.000  O
  O70      1.0000 0.07350  0.00120  0.56620  Biso   1.000  O
  O71      1.0000 0.42650  0.50120  0.93380  Biso   1.000  O
  O72      1.0000 0.92650  0.00120  0.93380  Biso   1.000  O
  O73      1.0000 0.40420  0.43230  0.33500  Biso   1.000  O
  O74      1.0000 0.90420  0.93230  0.33500  Biso   1.000  O
  O75      1.0000 0.59580  0.43230  0.16500  Biso   1.000  O
  O76      1.0000 0.09580  0.93230  0.16500  Biso   1.000  O
  O77      1.0000 0.59580  0.56770  0.66500  Biso   1.000  O
  O78      1.0000 0.09580  0.06770  0.66500  Biso   1.000  O
  O79      1.0000 0.40420  0.56770  0.83500  Biso   1.000  O
  O80      1.0000 0.90420  0.06770  0.83500  Biso   1.000  O
  O81      1.0000 0.38010  0.80640  0.10460  Biso   1.000  O
  O82      1.0000 0.88010  0.30640  0.10460  Biso   1.000  O
  O83      1.0000 0.61990  0.80640  0.39540  Biso   1.000  O
  O84      1.0000 0.11990  0.30640  0.39540  Biso   1.000  O
  O85      1.0000 0.61990  0.19360  0.89540  Biso   1.000  O
  O86      1.0000 0.11990  0.69360  0.89540  Biso   1.000  O
  O87      1.0000 0.38010  0.19360  0.60460  Biso   1.000  O
  O88      1.0000 0.88010  0.69360  0.60460  Biso   1.000  O
  O89      1.0000 0.41070  0.70930  0.19100  Biso   1.000  O
  O90      1.0000 0.91070  0.20930  0.19100  Biso   1.000  O
  O91      1.0000 0.58930  0.70930  0.30900  Biso   1.000  O
  O92      1.0000 0.08930  0.20930  0.30900  Biso   1.000  O
  O93      1.0000 0.58930  0.29070  0.80900  Biso   1.000  O
  O94      1.0000 0.08930  0.79070  0.80900  Biso   1.000  O
  O95      1.0000 0.41070  0.29070  0.69100  Biso   1.000  O
  O96      1.0000 0.91070  0.79070  0.69100  Biso   1.000  O
  O97      1.0000 0.36840  0.68350  0.06320  Biso   1.000  O
  O98      1.0000 0.86840  0.18350  0.06320  Biso   1.000  O
  O99      1.0000 0.63160  0.68350  0.43680  Biso   1.000  O
  O100     1.0000 0.13160  0.18350  0.43680  Biso   1.000  O
  O101     1.0000 0.63160  0.31650  0.93680  Biso   1.000  O
  O102     1.0000 0.13160  0.81650  0.93680  Biso   1.000  O
  O103     1.0000 0.36840  0.31650  0.56320  Biso   1.000  O
  O104     1.0000 0.86840  0.81650  0.56320  Biso   1.000  O
  O105     1.0000 0.37640  0.02100  0.31580  Biso   1.000  O
  O106     1.0000 0.87640  0.52100  0.31580  Biso   1.000  O
  O107     1.0000 0.62360  0.02100  0.18420  Biso   1.000  O
  O108     1.0000 0.12360  0.52100  0.18420  Biso   1.000  O
  O109     1.0000 0.62360  0.97900  0.68420  Biso   1.000  O
  O110     1.0000 0.12360  0.47900  0.68420  Biso   1.000  O
  O111     1.0000 0.37640  0.97900  0.81580  Biso   1.000  O
  O112     1.0000 0.87640  0.47900  0.81580  Biso   1.000  O
  O113     1.0000 0.37830  0.99860  0.42090  Biso   1.000  O
  O114     1.0000 0.87830  0.49860  0.42090  Biso   1.000  O
  O115     1.0000 0.62170  0.99860  0.07910  Biso   1.000  O
  O116     1.0000 0.12170  0.49860  0.07910  Biso   1.000  O
  O117     1.0000 0.62170  0.00140  0.57910  Biso   1.000  O
  O118     1.0000 0.12170  0.50140  0.57910  Biso   1.000  O
  O119     1.0000 0.37830  0.00140  0.92090  Biso   1.000  O
  O120     1.0000 0.87830  0.50140  0.92090  Biso   1.000  O
  O121     1.0000 0.41240  0.91310  0.38510  Biso   1.000  O
  O122     1.0000 0.91240  0.41310  0.38510  Biso   1.000  O
  O123     1.0000 0.58760  0.91310  0.11490  Biso   1.000  O
  O124     1.0000 0.08760  0.41310  0.11490  Biso   1.000  O
  O125     1.0000 0.58760  0.08690  0.61490  Biso   1.000  O
  O126     1.0000 0.08760  0.58690  0.61490  Biso   1.000  O
  O127     1.0000 0.41240  0.08690  0.88510  Biso   1.000  O
  O128     1.0000 0.91240  0.58690  0.88510  Biso   1.000  O
  O129     1.0000 0.08090  0.77210  0.11090  Biso   1.000  O
  O130     1.0000 0.58090  0.27210  0.11090  Biso   1.000  O
  O131     1.0000 0.91910  0.77210  0.38910  Biso   1.000  O
  O132     1.0000 0.41910  0.27210  0.38910  Biso   1.000  O
  O133     1.0000 0.91910  0.22790  0.88910  Biso   1.000  O
  O134     1.0000 0.41910  0.72790  0.88910  Biso   1.000  O
  O135     1.0000 0.08090  0.22790  0.61090  Biso   1.000  O
  O136     1.0000 0.58090  0.72790  0.61090  Biso   1.000  O
  O137     1.0000 0.11020  0.66020  0.10130  Biso   1.000  O
  O138     1.0000 0.61020  0.16020  0.10130  Biso   1.000  O
  O139     1.0000 0.88980  0.66020  0.39870  Biso   1.000  O
  O140     1.0000 0.38980  0.16020  0.39870  Biso   1.000  O
  O141     1.0000 0.88980  0.33980  0.89870  Biso   1.000  O
  O142     1.0000 0.38980  0.83980  0.89870  Biso   1.000  O
  O143     1.0000 0.11020  0.33980  0.60130  Biso   1.000  O
  O144     1.0000 0.61020  0.83980  0.60130  Biso   1.000  O
  O145     1.0000 0.08530  0.75340  0.01230  Biso   1.000  O
  O146     1.0000 0.58530  0.25340  0.01230  Biso   1.000  O
  O147     1.0000 0.91470  0.75340  0.48770  Biso   1.000  O
  O148     1.0000 0.41470  0.25340  0.48770  Biso   1.000  O
  O149     1.0000 0.91470  0.24660  0.98770  Biso   1.000  O
  O150     1.0000 0.41470  0.74660  0.98770  Biso   1.000  O
  O151     1.0000 0.08530  0.24660  0.51230  Biso   1.000  O
  O152     1.0000 0.58530  0.74660  0.51230  Biso   1.000  O
  O153     1.0000 0.02300  0.69630  0.01260  Biso   1.000  O
  O154     1.0000 0.52300  0.19630  0.01260  Biso   1.000  O
  O155     1.0000 0.97700  0.69630  0.48740  Biso   1.000  O
  O156     1.0000 0.47700  0.19630  0.48740  Biso   1.000  O
  O157     1.0000 0.97700  0.30370  0.98740  Biso   1.000  O
  O158     1.0000 0.47700  0.80370  0.98740  Biso   1.000  O
  O159     1.0000 0.02300  0.30370  0.51260  Biso   1.000  O
  O160     1.0000 0.52300  0.80370  0.51260  Biso   1.000  O
  C1       1.0000 0.22610  0.71570  0.33750  Biso   1.000  C
  C2       1.0000 0.72610  0.21570  0.33750  Biso   1.000  C
  C3       1.0000 0.77390  0.71570  0.16250  Biso   1.000  C
  C4       1.0000 0.27390  0.21570  0.16250  Biso   1.000  C
  C5       1.0000 0.77390  0.28430  0.66250  Biso   1.000  C
  C6       1.0000 0.27390  0.78430  0.66250  Biso   1.000  C
  C7       1.0000 0.22610  0.28430  0.83750  Biso   1.000  C
  C8       1.0000 0.72610  0.78430  0.83750  Biso   1.000  C
  C9       1.0000 0.23950  0.78320  0.37060  Biso   1.000  C
  C10      1.0000 0.73950  0.28320  0.37060  Biso   1.000  C
  C11      1.0000 0.76050  0.78320  0.12940  Biso   1.000  C
  C12      1.0000 0.26050  0.28320  0.12940  Biso   1.000  C
  C13      1.0000 0.76050  0.21680  0.62940  Biso   1.000  C
  C14      1.0000 0.26050  0.71680  0.62940  Biso   1.000  C
  C15      1.0000 0.23950  0.21680  0.87060  Biso   1.000  C
  C16      1.0000 0.73950  0.71680  0.87060  Biso   1.000  C
  C17      1.0000 0.27560  0.79410  0.44500  Biso   1.000  C
  C18      1.0000 0.77560  0.29410  0.44500  Biso   1.000  C
  C19      1.0000 0.72440  0.79410  0.05500  Biso   1.000  C
  C20      1.0000 0.22440  0.29410  0.05500  Biso   1.000  C
  C21      1.0000 0.72440  0.20590  0.55500  Biso   1.000  C
  C22      1.0000 0.22440  0.70590  0.55500  Biso   1.000  C
  C23      1.0000 0.27560  0.20590  0.94500  Biso   1.000  C
  C24      1.0000 0.77560  0.70590  0.94500  Biso   1.000  C
  H1       1.0000 0.28140  0.83960  0.46520  Biso   1.000  H
  H2       1.0000 0.78140  0.33960  0.46520  Biso   1.000  H
  H3       1.0000 0.71860  0.83960  0.03480  Biso   1.000  H
  H4       1.0000 0.21860  0.33960  0.03480  Biso   1.000  H
  H5       1.0000 0.71860  0.16040  0.53480  Biso   1.000  H
  H6       1.0000 0.21860  0.66040  0.53480  Biso   1.000  H
  H7       1.0000 0.28140  0.16040  0.96520  Biso   1.000  H
  H8       1.0000 0.78140  0.66040  0.96520  Biso   1.000  H
  C25      1.0000 0.30310  0.73520  0.48850  Biso   1.000  C
  C26      1.0000 0.80310  0.23520  0.48850  Biso   1.000  C
  C27      1.0000 0.69690  0.73520  0.01150  Biso   1.000  C
  C28      1.0000 0.19690  0.23520  0.01150  Biso   1.000  C
  C29      1.0000 0.69690  0.26480  0.51150  Biso   1.000  C
  C30      1.0000 0.19690  0.76480  0.51150  Biso   1.000  C
  C31      1.0000 0.30310  0.26480  0.98850  Biso   1.000  C
  C32      1.0000 0.80310  0.76480  0.98850  Biso   1.000  C
  C33      1.0000 0.29320  0.66760  0.45660  Biso   1.000  C
  C34      1.0000 0.79320  0.16760  0.45660  Biso   1.000  C
  C35      1.0000 0.70680  0.66760  0.04340  Biso   1.000  C
  C36      1.0000 0.20680  0.16760  0.04340  Biso   1.000  C
  C37      1.0000 0.70680  0.33240  0.54340  Biso   1.000  C
  C38      1.0000 0.20680  0.83240  0.54340  Biso   1.000  C
  C39      1.0000 0.29320  0.33240  0.95660  Biso   1.000  C
  C40      1.0000 0.79320  0.83240  0.95660  Biso   1.000  C
  H9       1.0000 0.31210  0.62830  0.48520  Biso   1.000  H
  H10      1.0000 0.81210  0.12830  0.48520  Biso   1.000  H
  H11      1.0000 0.68790  0.62830  0.01480  Biso   1.000  H
  H12      1.0000 0.18790  0.12830  0.01480  Biso   1.000  H
  H13      1.0000 0.68790  0.37170  0.51480  Biso   1.000  H
  H14      1.0000 0.18790  0.87170  0.51480  Biso   1.000  H
  H15      1.0000 0.31210  0.37170  0.98520  Biso   1.000  H
  H16      1.0000 0.81210  0.87170  0.98520  Biso   1.000  H
  C41      1.0000 0.25550  0.65820  0.38240  Biso   1.000  C
  C42      1.0000 0.75550  0.15820  0.38240  Biso   1.000  C
  C43      1.0000 0.74450  0.65820  0.11760  Biso   1.000  C
  C44      1.0000 0.24450  0.15820  0.11760  Biso   1.000  C
  C45      1.0000 0.74450  0.34180  0.61760  Biso   1.000  C
  C46      1.0000 0.24450  0.84180  0.61760  Biso   1.000  C
  C47      1.0000 0.25550  0.34180  0.88240  Biso   1.000  C
  C48      1.0000 0.75550  0.84180  0.88240  Biso   1.000  C
  C49      1.0000 0.24440  0.57940  0.22710  Biso   1.000  C
  C50      1.0000 0.74440  0.07940  0.22710  Biso   1.000  C
  C51      1.0000 0.75560  0.57940  0.27290  Biso   1.000  C
  C52      1.0000 0.25560  0.07940  0.27290  Biso   1.000  C
  C53      1.0000 0.75560  0.42060  0.77290  Biso   1.000  C
  C54      1.0000 0.25560  0.92060  0.77290  Biso   1.000  C
  C55      1.0000 0.24440  0.42060  0.72710  Biso   1.000  C
  C56      1.0000 0.74440  0.92060  0.72710  Biso   1.000  C
  C57      1.0000 0.27340  0.56670  0.30320  Biso   1.000  C
  C58      1.0000 0.77340  0.06670  0.30320  Biso   1.000  C
  C59      1.0000 0.72660  0.56670  0.19680  Biso   1.000  C
  C60      1.0000 0.22660  0.06670  0.19680  Biso   1.000  C
  C61      1.0000 0.72660  0.43330  0.69680  Biso   1.000  C
  C62      1.0000 0.22660  0.93330  0.69680  Biso   1.000  C
  C63      1.0000 0.27340  0.43330  0.80320  Biso   1.000  C
  C64      1.0000 0.77340  0.93330  0.80320  Biso   1.000  C
  C65      1.0000 0.32200  0.54400  0.34290  Biso   1.000  C
  C66      1.0000 0.82200  0.04400  0.34290  Biso   1.000  C
  C67      1.0000 0.67800  0.54400  0.15710  Biso   1.000  C
  C68      1.0000 0.17800  0.04400  0.15710  Biso   1.000  C
  C69      1.0000 0.67800  0.45600  0.65710  Biso   1.000  C
  C70      1.0000 0.17800  0.95600  0.65710  Biso   1.000  C
  C71      1.0000 0.32200  0.45600  0.84290  Biso   1.000  C
  C72      1.0000 0.82200  0.95600  0.84290  Biso   1.000  C
  H17      1.0000 0.33990  0.53520  0.39260  Biso   1.000  H
  H18      1.0000 0.83990  0.03520  0.39260  Biso   1.000  H
  H19      1.0000 0.66010  0.53520  0.10740  Biso   1.000  H
  H20      1.0000 0.16010  0.03520  0.10740  Biso   1.000  H
  H21      1.0000 0.66010  0.46480  0.60740  Biso   1.000  H
  H22      1.0000 0.16010  0.96480  0.60740  Biso   1.000  H
  H23      1.0000 0.33990  0.46480  0.89260  Biso   1.000  H
  H24      1.0000 0.83990  0.96480  0.89260  Biso   1.000  H
  C73      1.0000 0.34520  0.53360  0.30980  Biso   1.000  C
  C74      1.0000 0.84520  0.03360  0.30980  Biso   1.000  C
  C75      1.0000 0.65480  0.53360  0.19020  Biso   1.000  C
  C76      1.0000 0.15480  0.03360  0.19020  Biso   1.000  C
  C77      1.0000 0.65480  0.46640  0.69020  Biso   1.000  C
  C78      1.0000 0.15480  0.96640  0.69020  Biso   1.000  C
  C79      1.0000 0.34520  0.46640  0.80980  Biso   1.000  C
  C80      1.0000 0.84520  0.96640  0.80980  Biso   1.000  C
  C81      1.0000 0.31660  0.54470  0.23440  Biso   1.000  C
  C82      1.0000 0.81660  0.04470  0.23440  Biso   1.000  C
  C83      1.0000 0.68340  0.54470  0.26560  Biso   1.000  C
  C84      1.0000 0.18340  0.04470  0.26560  Biso   1.000  C
  C85      1.0000 0.68340  0.45530  0.76560  Biso   1.000  C
  C86      1.0000 0.18340  0.95530  0.76560  Biso   1.000  C
  C87      1.0000 0.31660  0.45530  0.73440  Biso   1.000  C
  C88      1.0000 0.81660  0.95530  0.73440  Biso   1.000  C
  H25      1.0000 0.33060  0.53680  0.21080  Biso   1.000  H
  H26      1.0000 0.83060  0.03680  0.21080  Biso   1.000  H
  H27      1.0000 0.66940  0.53680  0.28920  Biso   1.000  H
  H28      1.0000 0.16940  0.03680  0.28920  Biso   1.000  H
  H29      1.0000 0.66940  0.46320  0.78920  Biso   1.000  H
  H30      1.0000 0.16940  0.96320  0.78920  Biso   1.000  H
  H31      1.0000 0.33060  0.46320  0.71080  Biso   1.000  H
  H32      1.0000 0.83060  0.96320  0.71080  Biso   1.000  H
  C89      1.0000 0.26720  0.56740  0.19440  Biso   1.000  C
  C90      1.0000 0.76720  0.06740  0.19440  Biso   1.000  C
  C91      1.0000 0.73280  0.56740  0.30560  Biso   1.000  C
  C92      1.0000 0.23280  0.06740  0.30560  Biso   1.000  C
  C93      1.0000 0.73280  0.43260  0.80560  Biso   1.000  C
  C94      1.0000 0.23280  0.93260  0.80560  Biso   1.000  C
  C95      1.0000 0.26720  0.43260  0.69440  Biso   1.000  C
  C96      1.0000 0.76720  0.93260  0.69440  Biso   1.000  C
  C97      1.0000 0.22680  0.72470  0.08730  Biso   1.000  C
  C98      1.0000 0.72680  0.22470  0.08730  Biso   1.000  C
  C99      1.0000 0.77320  0.72470  0.41270  Biso   1.000  C
  C100     1.0000 0.27320  0.22470  0.41270  Biso   1.000  C
  C101     1.0000 0.77320  0.27530  0.91270  Biso   1.000  C
  C102     1.0000 0.27320  0.77530  0.91270  Biso   1.000  C
  C103     1.0000 0.22680  0.27530  0.58730  Biso   1.000  C
  C104     1.0000 0.72680  0.77530  0.58730  Biso   1.000  C
  C105     1.0000 0.25180  0.66130  0.09340  Biso   1.000  C
  C106     1.0000 0.75180  0.16130  0.09340  Biso   1.000  C
  C107     1.0000 0.74820  0.66130  0.40660  Biso   1.000  C
  C108     1.0000 0.24820  0.16130  0.40660  Biso   1.000  C
  C109     1.0000 0.74820  0.33870  0.90660  Biso   1.000  C
  C110     1.0000 0.24820  0.83870  0.90660  Biso   1.000  C
  C111     1.0000 0.25180  0.33870  0.59340  Biso   1.000  C
  C112     1.0000 0.75180  0.83870  0.59340  Biso   1.000  C
  C113     1.0000 0.29510  0.66450  0.09870  Biso   1.000  C
  C114     1.0000 0.79510  0.16450  0.09870  Biso   1.000  C
  C115     1.0000 0.70490  0.66450  0.40130  Biso   1.000  C
  C116     1.0000 0.20490  0.16450  0.40130  Biso   1.000  C
  C117     1.0000 0.70490  0.33550  0.90130  Biso   1.000  C
  C118     1.0000 0.20490  0.83550  0.90130  Biso   1.000  C
  C119     1.0000 0.29510  0.33550  0.59870  Biso   1.000  C
  C120     1.0000 0.79510  0.83550  0.59870  Biso   1.000  C
  H33      1.0000 0.31070  0.62210  0.10160  Biso   1.000  H
  H34      1.0000 0.81070  0.12210  0.10160  Biso   1.000  H
  H35      1.0000 0.68930  0.62210  0.39840  Biso   1.000  H
  H36      1.0000 0.18930  0.12210  0.39840  Biso   1.000  H
  H37      1.0000 0.68930  0.37790  0.89840  Biso   1.000  H
  H38      1.0000 0.18930  0.87790  0.89840  Biso   1.000  H
  H39      1.0000 0.31070  0.37790  0.60160  Biso   1.000  H
  H40      1.0000 0.81070  0.87790  0.60160  Biso   1.000  H
  C121     1.0000 0.31500  0.72900  0.09950  Biso   1.000  C
  C122     1.0000 0.81500  0.22900  0.09950  Biso   1.000  C
  C123     1.0000 0.68500  0.72900  0.40050  Biso   1.000  C
  C124     1.0000 0.18500  0.22900  0.40050  Biso   1.000  C
  C125     1.0000 0.68500  0.27100  0.90050  Biso   1.000  C
  C126     1.0000 0.18500  0.77100  0.90050  Biso   1.000  C
  C127     1.0000 0.31500  0.27100  0.59950  Biso   1.000  C
  C128     1.0000 0.81500  0.77100  0.59950  Biso   1.000  C
  C129     1.0000 0.29290  0.79330  0.09820  Biso   1.000  C
  C130     1.0000 0.79290  0.29330  0.09820  Biso   1.000  C
  C131     1.0000 0.70710  0.79330  0.40180  Biso   1.000  C
  C132     1.0000 0.20710  0.29330  0.40180  Biso   1.000  C
  C133     1.0000 0.70710  0.20670  0.90180  Biso   1.000  C
  C134     1.0000 0.20710  0.70670  0.90180  Biso   1.000  C
  C135     1.0000 0.29290  0.20670  0.59820  Biso   1.000  C
  C136     1.0000 0.79290  0.70670  0.59820  Biso   1.000  C
  H41      1.0000 0.30740  0.83710  0.10150  Biso   1.000  H
  H42      1.0000 0.80740  0.33710  0.10150  Biso   1.000  H
  H43      1.0000 0.69260  0.83710  0.39850  Biso   1.000  H
  H44      1.0000 0.19260  0.33710  0.39850  Biso   1.000  H
  H45      1.0000 0.69260  0.16290  0.89850  Biso   1.000  H
  H46      1.0000 0.19260  0.66290  0.89850  Biso   1.000  H
  H47      1.0000 0.30740  0.16290  0.60150  Biso   1.000  H
  H48      1.0000 0.80740  0.66290  0.60150  Biso   1.000  H
  C137     1.0000 0.24920  0.79160  0.09180  Biso   1.000  C
  C138     1.0000 0.74920  0.29160  0.09180  Biso   1.000  C
  C139     1.0000 0.75080  0.79160  0.40820  Biso   1.000  C
  C140     1.0000 0.25080  0.29160  0.40820  Biso   1.000  C
  C141     1.0000 0.75080  0.20840  0.90820  Biso   1.000  C
  C142     1.0000 0.25080  0.70840  0.90820  Biso   1.000  C
  C143     1.0000 0.24920  0.20840  0.59180  Biso   1.000  C
  C144     1.0000 0.74920  0.70840  0.59180  Biso   1.000  C
  C145     1.0000 0.21940  0.86490  0.20980  Biso   1.000  C
  C146     1.0000 0.71940  0.36490  0.20980  Biso   1.000  C
  C147     1.0000 0.78060  0.86490  0.29020  Biso   1.000  C
  C148     1.0000 0.28060  0.36490  0.29020  Biso   1.000  C
  C149     1.0000 0.78060  0.13510  0.79020  Biso   1.000  C
  C150     1.0000 0.28060  0.63510  0.79020  Biso   1.000  C
  C151     1.0000 0.21940  0.13510  0.70980  Biso   1.000  C
  C152     1.0000 0.71940  0.63510  0.70980  Biso   1.000  C
  C153     1.0000 0.24800  0.88190  0.18620  Biso   1.000  C
  C154     1.0000 0.74800  0.38190  0.18620  Biso   1.000  C
  C155     1.0000 0.75200  0.88190  0.31380  Biso   1.000  C
  C156     1.0000 0.25200  0.38190  0.31380  Biso   1.000  C
  C157     1.0000 0.75200  0.11810  0.81380  Biso   1.000  C
  C158     1.0000 0.25200  0.61810  0.81380  Biso   1.000  C
  C159     1.0000 0.24800  0.11810  0.68620  Biso   1.000  C
  C160     1.0000 0.74800  0.61810  0.68620  Biso   1.000  C
  C161     1.0000 0.29470  0.91230  0.23110  Biso   1.000  C
  C162     1.0000 0.79470  0.41230  0.23110  Biso   1.000  C
  C163     1.0000 0.70530  0.91230  0.26890  Biso   1.000  C
  C164     1.0000 0.20530  0.41230  0.26890  Biso   1.000  C
  C165     1.0000 0.70530  0.08770  0.76890  Biso   1.000  C
  C166     1.0000 0.20530  0.58770  0.76890  Biso   1.000  C
  C167     1.0000 0.29470  0.08770  0.73110  Biso   1.000  C
  C168     1.0000 0.79470  0.58770  0.73110  Biso   1.000  C
  H49      1.0000 0.31220  0.92340  0.21340  Biso   1.000  H
  H50      1.0000 0.81220  0.42340  0.21340  Biso   1.000  H
  H51      1.0000 0.68780  0.92340  0.28660  Biso   1.000  H
  H52      1.0000 0.18780  0.42340  0.28660  Biso   1.000  H
  H53      1.0000 0.68780  0.07660  0.78660  Biso   1.000  H
  H54      1.0000 0.18780  0.57660  0.78660  Biso   1.000  H
  H55      1.0000 0.31220  0.07660  0.71340  Biso   1.000  H
  H56      1.0000 0.81220  0.57660  0.71340  Biso   1.000  H
  C169     1.0000 0.31510  0.92600  0.30330  Biso   1.000  C
  C170     1.0000 0.81510  0.42600  0.30330  Biso   1.000  C
  C171     1.0000 0.68490  0.92600  0.19670  Biso   1.000  C
  C172     1.0000 0.18490  0.42600  0.19670  Biso   1.000  C
  C173     1.0000 0.68490  0.07400  0.69670  Biso   1.000  C
  C174     1.0000 0.18490  0.57400  0.69670  Biso   1.000  C
  C175     1.0000 0.31510  0.07400  0.80330  Biso   1.000  C
  C176     1.0000 0.81510  0.57400  0.80330  Biso   1.000  C
  C177     1.0000 0.28950  0.91130  0.32920  Biso   1.000  C
  C178     1.0000 0.78950  0.41130  0.32920  Biso   1.000  C
  C179     1.0000 0.71050  0.91130  0.17080  Biso   1.000  C
  C180     1.0000 0.21050  0.41130  0.17080  Biso   1.000  C
  C181     1.0000 0.71050  0.08870  0.67080  Biso   1.000  C
  C182     1.0000 0.21050  0.58870  0.67080  Biso   1.000  C
  C183     1.0000 0.28950  0.08870  0.82920  Biso   1.000  C
  C184     1.0000 0.78950  0.58870  0.82920  Biso   1.000  C
  H57      1.0000 0.30350  0.92120  0.37760  Biso   1.000  H
  H58      1.0000 0.80350  0.42120  0.37760  Biso   1.000  H
  H59      1.0000 0.69650  0.92120  0.12240  Biso   1.000  H
  H60      1.0000 0.19650  0.42120  0.12240  Biso   1.000  H
  H61      1.0000 0.69650  0.07880  0.62240  Biso   1.000  H
  H62      1.0000 0.19650  0.57880  0.62240  Biso   1.000  H
  H63      1.0000 0.30350  0.07880  0.87760  Biso   1.000  H
  H64      1.0000 0.80350  0.57880  0.87760  Biso   1.000  H
  C185     1.0000 0.24170  0.88110  0.28250  Biso   1.000  C
  C186     1.0000 0.74170  0.38110  0.28250  Biso   1.000  C
  C187     1.0000 0.75830  0.88110  0.21750  Biso   1.000  C
  C188     1.0000 0.25830  0.38110  0.21750  Biso   1.000  C
  C189     1.0000 0.75830  0.11890  0.71750  Biso   1.000  C
  C190     1.0000 0.25830  0.61890  0.71750  Biso   1.000  C
  C191     1.0000 0.24170  0.11890  0.78250  Biso   1.000  C
  C192     1.0000 0.74170  0.61890  0.78250  Biso   1.000  C
  O161     1.0000 0.10070  0.79610  0.24100  Biso   1.000  O
  O162     1.0000 0.60070  0.29610  0.24100  Biso   1.000  O
  O163     1.0000 0.89930  0.79610  0.25900  Biso   1.000  O
  O164     1.0000 0.39930  0.29610  0.25900  Biso   1.000  O
  O165     1.0000 0.89930  0.20390  0.75900  Biso   1.000  O
  O166     1.0000 0.39930  0.70390  0.75900  Biso   1.000  O
  O167     1.0000 0.10070  0.20390  0.74100  Biso   1.000  O
  O168     1.0000 0.60070  0.70390  0.74100  Biso   1.000  O
  O169     1.0000 0.11830  0.62560  0.25910  Biso   1.000  O
  O170     1.0000 0.61830  0.12560  0.25910  Biso   1.000  O
  O171     1.0000 0.88170  0.62560  0.24090  Biso   1.000  O
  O172     1.0000 0.38170  0.12560  0.24090  Biso   1.000  O
  O173     1.0000 0.88170  0.37440  0.74090  Biso   1.000  O
  O174     1.0000 0.38170  0.87440  0.74090  Biso   1.000  O
  O175     1.0000 0.11830  0.37440  0.75910  Biso   1.000  O
  O176     1.0000 0.61830  0.87440  0.75910  Biso   1.000  O
  O177     1.0000 0.11090  0.60690  0.97850  Biso   1.000  O
  O178     1.0000 0.61090  0.10690  0.97850  Biso   1.000  O
  O179     1.0000 0.88910  0.60690  0.52150  Biso   1.000  O
  O180     1.0000 0.38910  0.10690  0.52150  Biso   1.000  O
  O181     1.0000 0.88910  0.39310  0.02150  Biso   1.000  O
  O182     1.0000 0.38910  0.89310  0.02150  Biso   1.000  O
  O183     1.0000 0.11090  0.39310  0.47850  Biso   1.000  O
  O184     1.0000 0.61090  0.89310  0.47850  Biso   1.000  O
  O185     1.0000 0.10590  0.89840  0.01560  Biso   1.000  O
  O186     1.0000 0.60590  0.39840  0.01560  Biso   1.000  O
  O187     1.0000 0.89410  0.89840  0.48440  Biso   1.000  O
  O188     1.0000 0.39410  0.39840  0.48440  Biso   1.000  O
  O189     1.0000 0.89410  0.10160  0.98440  Biso   1.000  O
  O190     1.0000 0.39410  0.60160  0.98440  Biso   1.000  O
  O191     1.0000 0.10590  0.10160  0.51560  Biso   1.000  O
  O192     1.0000 0.60590  0.60160  0.51560  Biso   1.000  O
  N1       1.0000 0.40180  0.72850  0.32900  Biso   1.000  N
  N2       1.0000 0.90180  0.22850  0.32900  Biso   1.000  N
  N3       1.0000 0.59820  0.72850  0.17100  Biso   1.000  N
  N4       1.0000 0.09820  0.22850  0.17100  Biso   1.000  N
  N5       1.0000 0.59820  0.27150  0.67100  Biso   1.000  N
  N6       1.0000 0.09820  0.77150  0.67100  Biso   1.000  N
  N7       1.0000 0.40180  0.27150  0.82900  Biso   1.000  N
  N8       1.0000 0.90180  0.77150  0.82900  Biso   1.000  N
  H65      1.0000 0.41560  0.72050  0.30860  Biso   1.000  H
  H66      1.0000 0.91560  0.22050  0.30860  Biso   1.000  H
  H67      1.0000 0.58440  0.72050  0.19140  Biso   1.000  H
  H68      1.0000 0.08440  0.22050  0.19140  Biso   1.000  H
  H69      1.0000 0.58440  0.27950  0.69140  Biso   1.000  H
  H70      1.0000 0.08440  0.77950  0.69140  Biso   1.000  H
  H71      1.0000 0.41560  0.27950  0.80860  Biso   1.000  H
  H72      1.0000 0.91560  0.77950  0.80860  Biso   1.000  H
  C193     1.0000 0.34820  0.72800  0.28780  Biso   1.000  C
  C194     1.0000 0.84820  0.22800  0.28780  Biso   1.000  C
  C195     1.0000 0.65180  0.72800  0.21220  Biso   1.000  C
  C196     1.0000 0.15180  0.22800  0.21220  Biso   1.000  C
  C197     1.0000 0.65180  0.27200  0.71220  Biso   1.000  C
  C198     1.0000 0.15180  0.77200  0.71220  Biso   1.000  C
  C199     1.0000 0.34820  0.27200  0.78780  Biso   1.000  C
  C200     1.0000 0.84820  0.77200  0.78780  Biso   1.000  C
  H73      1.0000 0.32720  0.72130  0.23750  Biso   1.000  H
  H74      1.0000 0.82720  0.22130  0.23750  Biso   1.000  H
  H75      1.0000 0.67280  0.72130  0.26250  Biso   1.000  H
  H76      1.0000 0.17280  0.22130  0.26250  Biso   1.000  H
  H77      1.0000 0.67280  0.27870  0.76250  Biso   1.000  H
  H78      1.0000 0.17280  0.77870  0.76250  Biso   1.000  H
  H79      1.0000 0.32720  0.27870  0.73750  Biso   1.000  H
  H80      1.0000 0.82720  0.77870  0.73750  Biso   1.000  H
  C201     1.0000 0.33180  0.73640  0.32060  Biso   1.000  C
  C202     1.0000 0.83180  0.23640  0.32060  Biso   1.000  C
  C203     1.0000 0.66820  0.73640  0.17940  Biso   1.000  C
  C204     1.0000 0.16820  0.23640  0.17940  Biso   1.000  C
  C205     1.0000 0.66820  0.26360  0.67940  Biso   1.000  C
  C206     1.0000 0.16820  0.76360  0.67940  Biso   1.000  C
  C207     1.0000 0.33180  0.26360  0.82060  Biso   1.000  C
  C208     1.0000 0.83180  0.76360  0.82060  Biso   1.000  C
  H81      1.0000 0.29750  0.74050  0.29390  Biso   1.000  H
  H82      1.0000 0.79750  0.24050  0.29390  Biso   1.000  H
  H83      1.0000 0.70250  0.74050  0.20610  Biso   1.000  H
  H84      1.0000 0.20250  0.24050  0.20610  Biso   1.000  H
  H85      1.0000 0.70250  0.25950  0.70610  Biso   1.000  H
  H86      1.0000 0.20250  0.75950  0.70610  Biso   1.000  H
  H87      1.0000 0.29750  0.25950  0.79390  Biso   1.000  H
  H88      1.0000 0.79750  0.75950  0.79390  Biso   1.000  H
  C209     1.0000 0.35940  0.74050  0.39260  Biso   1.000  C
  C210     1.0000 0.85940  0.24050  0.39260  Biso   1.000  C
  C211     1.0000 0.64060  0.74050  0.10740  Biso   1.000  C
  C212     1.0000 0.14060  0.24050  0.10740  Biso   1.000  C
  C213     1.0000 0.64060  0.25950  0.60740  Biso   1.000  C
  C214     1.0000 0.14060  0.75950  0.60740  Biso   1.000  C
  C215     1.0000 0.35940  0.25950  0.89260  Biso   1.000  C
  C216     1.0000 0.85940  0.75950  0.89260  Biso   1.000  C
  H89      1.0000 0.34550  0.74060  0.41690  Biso   1.000  H
  H90      1.0000 0.84550  0.24060  0.41690  Biso   1.000  H
  H91      1.0000 0.65450  0.74060  0.08310  Biso   1.000  H
  H92      1.0000 0.15450  0.24060  0.08310  Biso   1.000  H
  H93      1.0000 0.65450  0.25940  0.58310  Biso   1.000  H
  H94      1.0000 0.15450  0.75940  0.58310  Biso   1.000  H
  H95      1.0000 0.34550  0.25940  0.91690  Biso   1.000  H
  H96      1.0000 0.84550  0.75940  0.91690  Biso   1.000  H
  C217     1.0000 0.41250  0.74460  0.43090  Biso   1.000  C
  C218     1.0000 0.91250  0.24460  0.43090  Biso   1.000  C
  C219     1.0000 0.58750  0.74460  0.06910  Biso   1.000  C
  C220     1.0000 0.08750  0.24460  0.06910  Biso   1.000  C
  C221     1.0000 0.58750  0.25540  0.56910  Biso   1.000  C
  C222     1.0000 0.08750  0.75540  0.56910  Biso   1.000  C
  C223     1.0000 0.41250  0.25540  0.93090  Biso   1.000  C
  C224     1.0000 0.91250  0.75540  0.93090  Biso   1.000  C
  H97      1.0000 0.43440  0.75000  0.48130  Biso   1.000  H
  H98      1.0000 0.93440  0.25000  0.48130  Biso   1.000  H
  H99      1.0000 0.56560  0.75000  0.01870  Biso   1.000  H
  H100     1.0000 0.06560  0.25000  0.01870  Biso   1.000  H
  H101     1.0000 0.56560  0.25000  0.51870  Biso   1.000  H
  H102     1.0000 0.06560  0.75000  0.51870  Biso   1.000  H
  H103     1.0000 0.43440  0.25000  0.98130  Biso   1.000  H
  H104     1.0000 0.93440  0.75000  0.98130  Biso   1.000  H
  C225     1.0000 0.42740  0.74100  0.39630  Biso   1.000  C
  C226     1.0000 0.92740  0.24100  0.39630  Biso   1.000  C
  C227     1.0000 0.57260  0.74100  0.10370  Biso   1.000  C
  C228     1.0000 0.07260  0.24100  0.10370  Biso   1.000  C
  C229     1.0000 0.57260  0.25900  0.60370  Biso   1.000  C
  C230     1.0000 0.07260  0.75900  0.60370  Biso   1.000  C
  C231     1.0000 0.42740  0.25900  0.89630  Biso   1.000  C
  C232     1.0000 0.92740  0.75900  0.89630  Biso   1.000  C
  H105     1.0000 0.46140  0.74810  0.42120  Biso   1.000  H
  H106     1.0000 0.96140  0.24810  0.42120  Biso   1.000  H
  H107     1.0000 0.53860  0.74810  0.07880  Biso   1.000  H
  H108     1.0000 0.03860  0.24810  0.07880  Biso   1.000  H
  H109     1.0000 0.53860  0.25190  0.57880  Biso   1.000  H
  H110     1.0000 0.03860  0.75190  0.57880  Biso   1.000  H
  H111     1.0000 0.46140  0.25190  0.92120  Biso   1.000  H
  H112     1.0000 0.96140  0.75190  0.92120  Biso   1.000  H
  O193     1.0000 0.48790  0.62250  0.52970  Biso   1.000  O
  O194     1.0000 0.98790  0.12250  0.52970  Biso   1.000  O
  O195     1.0000 0.51210  0.62250  0.97030  Biso   1.000  O
  O196     1.0000 0.01210  0.12250  0.97030  Biso   1.000  O
  O197     1.0000 0.51210  0.37750  0.47030  Biso   1.000  O
  O198     1.0000 0.01210  0.87750  0.47030  Biso   1.000  O
  O199     1.0000 0.48790  0.37750  0.02970  Biso   1.000  O
  O200     1.0000 0.98790  0.87750  0.02970  Biso   1.000  O
  O201     1.0000 0.31210  0.52200  0.57320  Biso   1.000  O
  O202     1.0000 0.81210  0.02200  0.57320  Biso   1.000  O
  O203     1.0000 0.68790  0.52200  0.92680  Biso   1.000  O
  O204     1.0000 0.18790  0.02200  0.92680  Biso   1.000  O
  O205     1.0000 0.68790  0.47800  0.42680  Biso   1.000  O
  O206     1.0000 0.18790  0.97800  0.42680  Biso   1.000  O
  O207     1.0000 0.31210  0.47800  0.07320  Biso   1.000  O
  O208     1.0000 0.81210  0.97800  0.07320  Biso   1.000  O
  O209     1.0000 0.29130  0.95630  0.54100  Biso   1.000  O
  O210     1.0000 0.79130  0.45630  0.54100  Biso   1.000  O
  O211     1.0000 0.70870  0.95630  0.95900  Biso   1.000  O
  O212     1.0000 0.20870  0.45630  0.95900  Biso   1.000  O
  O213     1.0000 0.70870  0.04370  0.45900  Biso   1.000  O
  O214     1.0000 0.20870  0.54370  0.45900  Biso   1.000  O
  O215     1.0000 0.29130  0.04370  0.04100  Biso   1.000  O
  O216     1.0000 0.79130  0.54370  0.04100  Biso   1.000  O
  O217     1.0000 0.00760  0.75760  0.86190  Biso   1.000  O
  O218     1.0000 0.50760  0.25760  0.86190  Biso   1.000  O
  O219     1.0000 0.99240  0.75760  0.63810  Biso   1.000  O
  O220     1.0000 0.49240  0.25760  0.63810  Biso   1.000  O
  O221     1.0000 0.99240  0.24240  0.13810  Biso   1.000  O
  O222     1.0000 0.49240  0.74240  0.13810  Biso   1.000  O
  O223     1.0000 0.00760  0.24240  0.36190  Biso   1.000  O
  O224     1.0000 0.50760  0.74240  0.36190  Biso   1.000  O
  O225     1.0000 0.01400  0.57280  0.91550  Biso   1.000  O
  O226     1.0000 0.51400  0.07280  0.91550  Biso   1.000  O
  O227     1.0000 0.98600  0.57280  0.58450  Biso   1.000  O
  O228     1.0000 0.48600  0.07280  0.58450  Biso   1.000  O
  O229     1.0000 0.98600  0.42720  0.08450  Biso   1.000  O
  O230     1.0000 0.48600  0.92720  0.08450  Biso   1.000  O
  O231     1.0000 0.01400  0.42720  0.41550  Biso   1.000  O
  O232     1.0000 0.51400  0.92720  0.41550  Biso   1.000  O
  O233     1.0000 0.11860  0.00080  0.94890  Biso   1.000  O
  O234     1.0000 0.61860  0.50080  0.94890  Biso   1.000  O
  O235     1.0000 0.88140  0.00080  0.55110  Biso   1.000  O
  O236     1.0000 0.38140  0.50080  0.55110  Biso   1.000  O
  O237     1.0000 0.88140  0.99920  0.05110  Biso   1.000  O
  O238     1.0000 0.38140  0.49920  0.05110  Biso   1.000  O
  O239     1.0000 0.11860  0.99920  0.44890  Biso   1.000  O
  O240     1.0000 0.61860  0.49920  0.44890  Biso   1.000  O
  O241     1.0000 0.40770  0.88600  0.24600  Biso   1.000  O
  O242     1.0000 0.90770  0.38600  0.24600  Biso   1.000  O
  O243     1.0000 0.59230  0.88600  0.25400  Biso   1.000  O
  O244     1.0000 0.09230  0.38600  0.25400  Biso   1.000  O
  O245     1.0000 0.59230  0.11400  0.75400  Biso   1.000  O
  O246     1.0000 0.09230  0.61400  0.75400  Biso   1.000  O
  O247     1.0000 0.40770  0.11400  0.74600  Biso   1.000  O
  O248     1.0000 0.90770  0.61400  0.74600  Biso   1.000  O
  O249     1.0000 0.37370  0.98300  0.56800  Biso   1.000  O
  O250     1.0000 0.87370  0.48300  0.56800  Biso   1.000  O
  O251     1.0000 0.62630  0.98300  0.93200  Biso   1.000  O
  O252     1.0000 0.12630  0.48300  0.93200  Biso   1.000  O
  O253     1.0000 0.62630  0.01700  0.43200  Biso   1.000  O
  O254     1.0000 0.12630  0.51700  0.43200  Biso   1.000  O
  O255     1.0000 0.37370  0.01700  0.06800  Biso   1.000  O
  O256     1.0000 0.87370  0.51700  0.06800  Biso   1.000  O
  O257     1.0000 0.01020  0.41100  0.93900  Biso   1.000  O
  O258     1.0000 0.51020  0.91100  0.93900  Biso   1.000  O
  O259     1.0000 0.98980  0.41100  0.56100  Biso   1.000  O
  O260     1.0000 0.48980  0.91100  0.56100  Biso   1.000  O
  O261     1.0000 0.98980  0.58900  0.06100  Biso   1.000  O
  O262     1.0000 0.48980  0.08900  0.06100  Biso   1.000  O
  O263     1.0000 0.01020  0.58900  0.43900  Biso   1.000  O
  O264     1.0000 0.51020  0.08900  0.43900  Biso   1.000  O
  O265     1.0000 0.06530  0.11400  0.91400  Biso   1.000  O
  O266     1.0000 0.56530  0.61400  0.91400  Biso   1.000  O
  O267     1.0000 0.93470  0.11400  0.58600  Biso   1.000  O
  O268     1.0000 0.43470  0.61400  0.58600  Biso   1.000  O
  O269     1.0000 0.93470  0.88600  0.08600  Biso   1.000  O
  O270     1.0000 0.43470  0.38600  0.08600  Biso   1.000  O
  O271     1.0000 0.06530  0.88600  0.41400  Biso   1.000  O
  O272     1.0000 0.56530  0.38600  0.41400  Biso   1.000  O
  O273     1.0000 0.39040  0.88800  0.52400  Biso   1.000  O
  O274     1.0000 0.89040  0.38800  0.52400  Biso   1.000  O
  O275     1.0000 0.60960  0.88800  0.97600  Biso   1.000  O
  O276     1.0000 0.10960  0.38800  0.97600  Biso   1.000  O
  O277     1.0000 0.60960  0.11200  0.47600  Biso   1.000  O
  O278     1.0000 0.10960  0.61200  0.47600  Biso   1.000  O
  O279     1.0000 0.39040  0.11200  0.02400  Biso   1.000  O
  O280     1.0000 0.89040  0.61200  0.02400  Biso   1.000  O
  O281     1.0000 0.00150  0.77100  0.14000  Biso   1.000  O
  O282     1.0000 0.50150  0.27100  0.14000  Biso   1.000  O
  O283     1.0000 0.99850  0.77100  0.36000  Biso   1.000  O
  O284     1.0000 0.49850  0.27100  0.36000  Biso   1.000  O
  O285     1.0000 0.99850  0.22900  0.86000  Biso   1.000  O
  O286     1.0000 0.49850  0.72900  0.86000  Biso   1.000  O
  O287     1.0000 0.00150  0.22900  0.64000  Biso   1.000  O
  O288     1.0000 0.50150  0.72900  0.64000  Biso   1.000  O
  O289     1.0000 0.01500  0.88690  0.88000  Biso   1.000  O
  O290     1.0000 0.51500  0.38690  0.88000  Biso   1.000  O
  O291     1.0000 0.98500  0.88690  0.62000  Biso   1.000  O
  O292     1.0000 0.48500  0.38690  0.62000  Biso   1.000  O
  O293     1.0000 0.98500  0.11310  0.12000  Biso   1.000  O
  O294     1.0000 0.48500  0.61310  0.12000  Biso   1.000  O
  O295     1.0000 0.01500  0.11310  0.38000  Biso   1.000  O
  O296     1.0000 0.51500  0.61310  0.38000  Biso   1.000  O
  O297     1.0000 0.08600  0.51300  0.28600  Biso   1.000  O
  O298     1.0000 0.58600  0.01300  0.28600  Biso   1.000  O
  O299     1.0000 0.91400  0.51300  0.21400  Biso   1.000  O
  O300     1.0000 0.41400  0.01300  0.21400  Biso   1.000  O
  O301     1.0000 0.91400  0.48700  0.71400  Biso   1.000  O
  O302     1.0000 0.41400  0.98700  0.71400  Biso   1.000  O
  O303     1.0000 0.08600  0.48700  0.78600  Biso   1.000  O
  O304     1.0000 0.58600  0.98700  0.78600  Biso   1.000  O
  O305     1.0000 0.37350  0.95400  0.18300  Biso   1.000  O
  O306     1.0000 0.87350  0.45400  0.18300  Biso   1.000  O
  O307     1.0000 0.62650  0.95400  0.31700  Biso   1.000  O
  O308     1.0000 0.12650  0.45400  0.31700  Biso   1.000  O
  O309     1.0000 0.62650  0.04600  0.81700  Biso   1.000  O
  O310     1.0000 0.12650  0.54600  0.81700  Biso   1.000  O
  O311     1.0000 0.37350  0.04600  0.68300  Biso   1.000  O
  O312     1.0000 0.87350  0.54600  0.68300  Biso   1.000  O
