data_image0
_cell_length_a       31.038
_cell_length_b       31.038
_cell_length_c       20.6449
_cell_angle_alpha    90
_cell_angle_beta     90
_cell_angle_gamma    90

_symmetry_space_group_name_H-M    "P 1"
_symmetry_int_tables_number       1

loop_
  _symmetry_equiv_pos_as_xyz
  'x, y, z'

loop_
  _atom_site_label
  _atom_site_occupancy
  _atom_site_fract_x
  _atom_site_fract_y
  _atom_site_fract_z
  _atom_site_thermal_displace_type
  _atom_site_B_iso_or_equiv
  _atom_site_type_symbol
  Cu1      1.0000 0.64125  0.25919  0.00000  Biso   1.000  Cu
  Cu2      1.0000 0.74081  0.64125  0.00000  Biso   1.000  Cu
  Cu3      1.0000 0.35875  0.74081  0.00000  Biso   1.000  Cu
  Cu4      1.0000 0.25919  0.35875  0.00000  Biso   1.000  Cu
  Cu5      1.0000 0.14125  0.75919  0.50000  Biso   1.000  Cu
  Cu6      1.0000 0.24081  0.14125  0.50000  Biso   1.000  Cu
  Cu7      1.0000 0.85875  0.24081  0.50000  Biso   1.000  Cu
  Cu8      1.0000 0.75919  0.85875  0.50000  Biso   1.000  Cu
  Cu9      1.0000 0.00000  0.50000  0.18594  Biso   1.000  Cu
  Cu10     1.0000 0.50000  0.00000  0.18594  Biso   1.000  Cu
  Cu11     1.0000 0.50000  0.00000  0.68594  Biso   1.000  Cu
  Cu12     1.0000 0.00000  0.50000  0.68594  Biso   1.000  Cu
  Cu13     1.0000 0.00000  0.50000  0.81406  Biso   1.000  Cu
  Cu14     1.0000 0.50000  0.00000  0.81406  Biso   1.000  Cu
  Cu15     1.0000 0.50000  0.00000  0.31406  Biso   1.000  Cu
  Cu16     1.0000 0.00000  0.50000  0.31406  Biso   1.000  Cu
  Cu17     1.0000 0.62599  0.17507  0.00000  Biso   1.000  Cu
  Cu18     1.0000 0.82493  0.62599  0.00000  Biso   1.000  Cu
  Cu19     1.0000 0.37401  0.82493  0.00000  Biso   1.000  Cu
  Cu20     1.0000 0.17507  0.37401  0.00000  Biso   1.000  Cu
  Cu21     1.0000 0.12599  0.67507  0.50000  Biso   1.000  Cu
  Cu22     1.0000 0.32493  0.12599  0.50000  Biso   1.000  Cu
  Cu23     1.0000 0.87401  0.32493  0.50000  Biso   1.000  Cu
  Cu24     1.0000 0.67507  0.87401  0.50000  Biso   1.000  Cu
  O1       1.0000 0.65230  0.32800  0.00000  Biso   1.000  O
  O2       1.0000 0.67200  0.65230  0.00000  Biso   1.000  O
  O3       1.0000 0.34770  0.67200  0.00000  Biso   1.000  O
  O4       1.0000 0.32800  0.34770  0.00000  Biso   1.000  O
  O5       1.0000 0.15230  0.82800  0.50000  Biso   1.000  O
  O6       1.0000 0.17200  0.15230  0.50000  Biso   1.000  O
  O7       1.0000 0.84770  0.17200  0.50000  Biso   1.000  O
  O8       1.0000 0.82800  0.84770  0.50000  Biso   1.000  O
  O9       1.0000 0.68518  0.24668  0.06550  Biso   1.000  O
  O10      1.0000 0.75332  0.68518  0.06550  Biso   1.000  O
  O11      1.0000 0.31482  0.75332  0.06550  Biso   1.000  O
  O12      1.0000 0.24668  0.31482  0.06550  Biso   1.000  O
  O13      1.0000 0.18518  0.74668  0.56550  Biso   1.000  O
  O14      1.0000 0.25332  0.18518  0.56550  Biso   1.000  O
  O15      1.0000 0.81482  0.25332  0.56550  Biso   1.000  O
  O16      1.0000 0.74668  0.81482  0.56550  Biso   1.000  O
  O17      1.0000 0.31482  0.75332  0.93450  Biso   1.000  O
  O18      1.0000 0.24668  0.31482  0.93450  Biso   1.000  O
  O19      1.0000 0.68518  0.24668  0.93450  Biso   1.000  O
  O20      1.0000 0.75332  0.68518  0.93450  Biso   1.000  O
  O21      1.0000 0.81482  0.25332  0.43450  Biso   1.000  O
  O22      1.0000 0.74668  0.81482  0.43450  Biso   1.000  O
  O23      1.0000 0.18518  0.74668  0.43450  Biso   1.000  O
  O24      1.0000 0.25332  0.18518  0.43450  Biso   1.000  O
  O25      1.0000 0.96256  0.45106  0.19020  Biso   1.000  O
  O26      1.0000 0.54894  0.96256  0.19020  Biso   1.000  O
  O27      1.0000 0.03744  0.54894  0.19020  Biso   1.000  O
  O28      1.0000 0.45106  0.03744  0.19020  Biso   1.000  O
  O29      1.0000 0.46256  0.95106  0.69020  Biso   1.000  O
  O30      1.0000 0.04894  0.46256  0.69020  Biso   1.000  O
  O31      1.0000 0.53744  0.04894  0.69020  Biso   1.000  O
  O32      1.0000 0.95106  0.53744  0.69020  Biso   1.000  O
  O33      1.0000 0.03744  0.54894  0.80980  Biso   1.000  O
  O34      1.0000 0.45106  0.03744  0.80980  Biso   1.000  O
  O35      1.0000 0.96256  0.45106  0.80980  Biso   1.000  O
  O36      1.0000 0.54894  0.96256  0.80980  Biso   1.000  O
  O37      1.0000 0.53744  0.04894  0.30980  Biso   1.000  O
  O38      1.0000 0.95106  0.53744  0.30980  Biso   1.000  O
  O39      1.0000 0.46256  0.95106  0.30980  Biso   1.000  O
  O40      1.0000 0.04894  0.46256  0.30980  Biso   1.000  O
  O41      1.0000 0.75865  0.90538  0.43360  Biso   1.000  O
  O42      1.0000 0.09462  0.75865  0.43360  Biso   1.000  O
  O43      1.0000 0.24135  0.09462  0.43360  Biso   1.000  O
  O44      1.0000 0.90538  0.24135  0.43360  Biso   1.000  O
  O45      1.0000 0.25865  0.40538  0.93360  Biso   1.000  O
  O46      1.0000 0.59462  0.25865  0.93360  Biso   1.000  O
  O47      1.0000 0.74135  0.59462  0.93360  Biso   1.000  O
  O48      1.0000 0.40538  0.74135  0.93360  Biso   1.000  O
  O49      1.0000 0.24135  0.09462  0.56640  Biso   1.000  O
  O50      1.0000 0.90538  0.24135  0.56640  Biso   1.000  O
  O51      1.0000 0.75865  0.90538  0.56640  Biso   1.000  O
  O52      1.0000 0.09462  0.75865  0.56640  Biso   1.000  O
  O53      1.0000 0.74135  0.59462  0.06640  Biso   1.000  O
  O54      1.0000 0.40538  0.74135  0.06640  Biso   1.000  O
  O55      1.0000 0.25865  0.40538  0.06640  Biso   1.000  O
  O56      1.0000 0.59462  0.25865  0.06640  Biso   1.000  O
  O57      1.0000 0.96028  0.44837  0.29860  Biso   1.000  O
  O58      1.0000 0.55163  0.96028  0.29860  Biso   1.000  O
  O59      1.0000 0.03972  0.55163  0.29860  Biso   1.000  O
  O60      1.0000 0.44837  0.03972  0.29860  Biso   1.000  O
  O61      1.0000 0.46028  0.94837  0.79860  Biso   1.000  O
  O62      1.0000 0.05163  0.46028  0.79860  Biso   1.000  O
  O63      1.0000 0.53972  0.05163  0.79860  Biso   1.000  O
  O64      1.0000 0.94837  0.53972  0.79860  Biso   1.000  O
  O65      1.0000 0.03972  0.55163  0.70140  Biso   1.000  O
  O66      1.0000 0.44837  0.03972  0.70140  Biso   1.000  O
  O67      1.0000 0.96028  0.44837  0.70140  Biso   1.000  O
  O68      1.0000 0.55163  0.96028  0.70140  Biso   1.000  O
  O69      1.0000 0.53972  0.05163  0.20140  Biso   1.000  O
  O70      1.0000 0.94837  0.53972  0.20140  Biso   1.000  O
  O71      1.0000 0.46028  0.94837  0.20140  Biso   1.000  O
  O72      1.0000 0.05163  0.46028  0.20140  Biso   1.000  O
  O73      1.0000 0.66991  0.17545  0.06590  Biso   1.000  O
  O74      1.0000 0.82455  0.66991  0.06590  Biso   1.000  O
  O75      1.0000 0.33009  0.82455  0.06590  Biso   1.000  O
  O76      1.0000 0.17545  0.33009  0.06590  Biso   1.000  O
  O77      1.0000 0.16991  0.67545  0.56590  Biso   1.000  O
  O78      1.0000 0.32455  0.16991  0.56590  Biso   1.000  O
  O79      1.0000 0.83009  0.32455  0.56590  Biso   1.000  O
  O80      1.0000 0.67545  0.83009  0.56590  Biso   1.000  O
  O81      1.0000 0.33009  0.82455  0.93410  Biso   1.000  O
  O82      1.0000 0.17545  0.33009  0.93410  Biso   1.000  O
  O83      1.0000 0.66991  0.17545  0.93410  Biso   1.000  O
  O84      1.0000 0.82455  0.66991  0.93410  Biso   1.000  O
  O85      1.0000 0.83009  0.32455  0.43410  Biso   1.000  O
  O86      1.0000 0.67545  0.83009  0.43410  Biso   1.000  O
  O87      1.0000 0.16991  0.67545  0.43410  Biso   1.000  O
  O88      1.0000 0.32455  0.16991  0.43410  Biso   1.000  O
  O89      1.0000 0.69010  0.91887  0.43360  Biso   1.000  O
  O90      1.0000 0.08113  0.69010  0.43360  Biso   1.000  O
  O91      1.0000 0.30990  0.08113  0.43360  Biso   1.000  O
  O92      1.0000 0.91887  0.30990  0.43360  Biso   1.000  O
  O93      1.0000 0.19010  0.41887  0.93360  Biso   1.000  O
  O94      1.0000 0.58113  0.19010  0.93360  Biso   1.000  O
  O95      1.0000 0.80990  0.58113  0.93360  Biso   1.000  O
  O96      1.0000 0.41887  0.80990  0.93360  Biso   1.000  O
  O97      1.0000 0.30990  0.08113  0.56640  Biso   1.000  O
  O98      1.0000 0.91887  0.30990  0.56640  Biso   1.000  O
  O99      1.0000 0.69010  0.91887  0.56640  Biso   1.000  O
  O100     1.0000 0.08113  0.69010  0.56640  Biso   1.000  O
  O101     1.0000 0.80990  0.58113  0.06640  Biso   1.000  O
  O102     1.0000 0.41887  0.80990  0.06640  Biso   1.000  O
  O103     1.0000 0.19010  0.41887  0.06640  Biso   1.000  O
  O104     1.0000 0.58113  0.19010  0.06640  Biso   1.000  O
  C1       1.0000 0.72410  0.19830  0.13460  Biso   1.000  C
  C2       1.0000 0.80170  0.72410  0.13460  Biso   1.000  C
  C3       1.0000 0.27590  0.80170  0.13460  Biso   1.000  C
  C4       1.0000 0.19830  0.27590  0.13460  Biso   1.000  C
  C5       1.0000 0.22410  0.69830  0.63460  Biso   1.000  C
  C6       1.0000 0.30170  0.22410  0.63460  Biso   1.000  C
  C7       1.0000 0.77590  0.30170  0.63460  Biso   1.000  C
  C8       1.0000 0.69830  0.77590  0.63460  Biso   1.000  C
  C9       1.0000 0.27590  0.80170  0.86540  Biso   1.000  C
  C10      1.0000 0.19830  0.27590  0.86540  Biso   1.000  C
  C11      1.0000 0.72410  0.19830  0.86540  Biso   1.000  C
  C12      1.0000 0.80170  0.72410  0.86540  Biso   1.000  C
  C13      1.0000 0.77590  0.30170  0.36540  Biso   1.000  C
  C14      1.0000 0.69830  0.77590  0.36540  Biso   1.000  C
  C15      1.0000 0.22410  0.69830  0.36540  Biso   1.000  C
  C16      1.0000 0.30170  0.22410  0.36540  Biso   1.000  C
  C17      1.0000 0.75170  0.23210  0.14670  Biso   1.000  C
  C18      1.0000 0.76790  0.75170  0.14670  Biso   1.000  C
  C19      1.0000 0.24830  0.76790  0.14670  Biso   1.000  C
  C20      1.0000 0.23210  0.24830  0.14670  Biso   1.000  C
  C21      1.0000 0.25170  0.73210  0.64670  Biso   1.000  C
  C22      1.0000 0.26790  0.25170  0.64670  Biso   1.000  C
  C23      1.0000 0.74830  0.26790  0.64670  Biso   1.000  C
  C24      1.0000 0.73210  0.74830  0.64670  Biso   1.000  C
  C25      1.0000 0.24830  0.76790  0.85330  Biso   1.000  C
  C26      1.0000 0.23210  0.24830  0.85330  Biso   1.000  C
  C27      1.0000 0.75170  0.23210  0.85330  Biso   1.000  C
  C28      1.0000 0.76790  0.75170  0.85330  Biso   1.000  C
  C29      1.0000 0.74830  0.26790  0.35330  Biso   1.000  C
  C30      1.0000 0.73210  0.74830  0.35330  Biso   1.000  C
  C31      1.0000 0.25170  0.73210  0.35330  Biso   1.000  C
  C32      1.0000 0.26790  0.25170  0.35330  Biso   1.000  C
  H1       1.0000 0.74710  0.25770  0.12440  Biso   1.000  H
  H2       1.0000 0.74230  0.74710  0.12440  Biso   1.000  H
  H3       1.0000 0.25290  0.74230  0.12440  Biso   1.000  H
  H4       1.0000 0.25770  0.25290  0.12440  Biso   1.000  H
  H5       1.0000 0.24710  0.75770  0.62440  Biso   1.000  H
  H6       1.0000 0.24230  0.24710  0.62440  Biso   1.000  H
  H7       1.0000 0.75290  0.24230  0.62440  Biso   1.000  H
  H8       1.0000 0.75770  0.75290  0.62440  Biso   1.000  H
  H9       1.0000 0.25290  0.74230  0.87560  Biso   1.000  H
  H10      1.0000 0.25770  0.25290  0.87560  Biso   1.000  H
  H11      1.0000 0.74710  0.25770  0.87560  Biso   1.000  H
  H12      1.0000 0.74230  0.74710  0.87560  Biso   1.000  H
  H13      1.0000 0.75290  0.24230  0.37560  Biso   1.000  H
  H14      1.0000 0.75770  0.75290  0.37560  Biso   1.000  H
  H15      1.0000 0.24710  0.75770  0.37560  Biso   1.000  H
  H16      1.0000 0.24230  0.24710  0.37560  Biso   1.000  H
  C33      1.0000 0.72880  0.15870  0.16790  Biso   1.000  C
  C34      1.0000 0.84130  0.72880  0.16790  Biso   1.000  C
  C35      1.0000 0.27120  0.84130  0.16790  Biso   1.000  C
  C36      1.0000 0.15870  0.27120  0.16790  Biso   1.000  C
  C37      1.0000 0.22880  0.65870  0.66790  Biso   1.000  C
  C38      1.0000 0.34130  0.22880  0.66790  Biso   1.000  C
  C39      1.0000 0.77120  0.34130  0.66790  Biso   1.000  C
  C40      1.0000 0.65870  0.77120  0.66790  Biso   1.000  C
  C41      1.0000 0.27120  0.84130  0.83210  Biso   1.000  C
  C42      1.0000 0.15870  0.27120  0.83210  Biso   1.000  C
  C43      1.0000 0.72880  0.15870  0.83210  Biso   1.000  C
  C44      1.0000 0.84130  0.72880  0.83210  Biso   1.000  C
  C45      1.0000 0.77120  0.34130  0.33210  Biso   1.000  C
  C46      1.0000 0.65870  0.77120  0.33210  Biso   1.000  C
  C47      1.0000 0.22880  0.65870  0.33210  Biso   1.000  C
  C48      1.0000 0.34130  0.22880  0.33210  Biso   1.000  C
  H17      1.0000 0.71210  0.13460  0.15870  Biso   1.000  H
  H18      1.0000 0.86540  0.71210  0.15870  Biso   1.000  H
  H19      1.0000 0.28790  0.86540  0.15870  Biso   1.000  H
  H20      1.0000 0.13460  0.28790  0.15870  Biso   1.000  H
  H21      1.0000 0.21210  0.63460  0.65870  Biso   1.000  H
  H22      1.0000 0.36540  0.21210  0.65870  Biso   1.000  H
  H23      1.0000 0.78790  0.36540  0.65870  Biso   1.000  H
  H24      1.0000 0.63460  0.78790  0.65870  Biso   1.000  H
  H25      1.0000 0.28790  0.86540  0.84130  Biso   1.000  H
  H26      1.0000 0.13460  0.28790  0.84130  Biso   1.000  H
  H27      1.0000 0.71210  0.13460  0.84130  Biso   1.000  H
  H28      1.0000 0.86540  0.71210  0.84130  Biso   1.000  H
  H29      1.0000 0.78790  0.36540  0.34130  Biso   1.000  H
  H30      1.0000 0.63460  0.78790  0.34130  Biso   1.000  H
  H31      1.0000 0.21210  0.63460  0.34130  Biso   1.000  H
  H32      1.0000 0.36540  0.21210  0.34130  Biso   1.000  H
  C49      1.0000 0.92090  0.39790  0.23820  Biso   1.000  C
  C50      1.0000 0.60210  0.92090  0.23820  Biso   1.000  C
  C51      1.0000 0.07910  0.60210  0.23820  Biso   1.000  C
  C52      1.0000 0.39790  0.07910  0.23820  Biso   1.000  C
  C53      1.0000 0.42090  0.89790  0.73820  Biso   1.000  C
  C54      1.0000 0.10210  0.42090  0.73820  Biso   1.000  C
  C55      1.0000 0.57910  0.10210  0.73820  Biso   1.000  C
  C56      1.0000 0.89790  0.57910  0.73820  Biso   1.000  C
  C57      1.0000 0.07910  0.60210  0.76180  Biso   1.000  C
  C58      1.0000 0.39790  0.07910  0.76180  Biso   1.000  C
  C59      1.0000 0.92090  0.39790  0.76180  Biso   1.000  C
  C60      1.0000 0.60210  0.92090  0.76180  Biso   1.000  C
  C61      1.0000 0.57910  0.10210  0.26180  Biso   1.000  C
  C62      1.0000 0.89790  0.57910  0.26180  Biso   1.000  C
  C63      1.0000 0.42090  0.89790  0.26180  Biso   1.000  C
  C64      1.0000 0.10210  0.42090  0.26180  Biso   1.000  C
  C65      1.0000 0.86630  0.32600  0.22580  Biso   1.000  C
  C66      1.0000 0.67400  0.86630  0.22580  Biso   1.000  C
  C67      1.0000 0.13370  0.67400  0.22580  Biso   1.000  C
  C68      1.0000 0.32600  0.13370  0.22580  Biso   1.000  C
  C69      1.0000 0.36630  0.82600  0.72580  Biso   1.000  C
  C70      1.0000 0.17400  0.36630  0.72580  Biso   1.000  C
  C71      1.0000 0.63370  0.17400  0.72580  Biso   1.000  C
  C72      1.0000 0.82600  0.63370  0.72580  Biso   1.000  C
  C73      1.0000 0.13370  0.67400  0.77420  Biso   1.000  C
  C74      1.0000 0.32600  0.13370  0.77420  Biso   1.000  C
  C75      1.0000 0.86630  0.32600  0.77420  Biso   1.000  C
  C76      1.0000 0.67400  0.86630  0.77420  Biso   1.000  C
  C77      1.0000 0.63370  0.17400  0.27420  Biso   1.000  C
  C78      1.0000 0.82600  0.63370  0.27420  Biso   1.000  C
  C79      1.0000 0.36630  0.82600  0.27420  Biso   1.000  C
  C80      1.0000 0.17400  0.36630  0.27420  Biso   1.000  C
  O105     1.0000 0.00000  0.50000  0.08300  Biso   1.000  O
  O106     1.0000 0.50000  0.00000  0.08300  Biso   1.000  O
  O107     1.0000 0.50000  0.00000  0.58300  Biso   1.000  O
  O108     1.0000 0.00000  0.50000  0.58300  Biso   1.000  O
  O109     1.0000 0.00000  0.50000  0.91700  Biso   1.000  O
  O110     1.0000 0.50000  0.00000  0.91700  Biso   1.000  O
  O111     1.0000 0.50000  0.00000  0.41700  Biso   1.000  O
  O112     1.0000 0.00000  0.50000  0.41700  Biso   1.000  O
  C81      1.0000 0.78650  0.23060  0.19050  Biso   1.000  C
  C82      1.0000 0.76940  0.78650  0.19050  Biso   1.000  C
  C83      1.0000 0.21350  0.76940  0.19050  Biso   1.000  C
  C84      1.0000 0.23060  0.21350  0.19050  Biso   1.000  C
  C85      1.0000 0.28650  0.73060  0.69050  Biso   1.000  C
  C86      1.0000 0.26940  0.28650  0.69050  Biso   1.000  C
  C87      1.0000 0.71350  0.26940  0.69050  Biso   1.000  C
  C88      1.0000 0.73060  0.71350  0.69050  Biso   1.000  C
  C89      1.0000 0.21350  0.76940  0.80950  Biso   1.000  C
  C90      1.0000 0.23060  0.21350  0.80950  Biso   1.000  C
  C91      1.0000 0.78650  0.23060  0.80950  Biso   1.000  C
  C92      1.0000 0.76940  0.78650  0.80950  Biso   1.000  C
  C93      1.0000 0.71350  0.26940  0.30950  Biso   1.000  C
  C94      1.0000 0.73060  0.71350  0.30950  Biso   1.000  C
  C95      1.0000 0.28650  0.73060  0.30950  Biso   1.000  C
  C96      1.0000 0.26940  0.28650  0.30950  Biso   1.000  C
  C97      1.0000 0.94860  0.43530  0.24690  Biso   1.000  C
  C98      1.0000 0.56470  0.94860  0.24690  Biso   1.000  C
  C99      1.0000 0.05140  0.56470  0.24690  Biso   1.000  C
  C100     1.0000 0.43530  0.05140  0.24690  Biso   1.000  C
  C101     1.0000 0.44860  0.93530  0.74690  Biso   1.000  C
  C102     1.0000 0.06470  0.44860  0.74690  Biso   1.000  C
  C103     1.0000 0.55140  0.06470  0.74690  Biso   1.000  C
  C104     1.0000 0.93530  0.55140  0.74690  Biso   1.000  C
  C105     1.0000 0.05140  0.56470  0.75310  Biso   1.000  C
  C106     1.0000 0.43530  0.05140  0.75310  Biso   1.000  C
  C107     1.0000 0.94860  0.43530  0.75310  Biso   1.000  C
  C108     1.0000 0.56470  0.94860  0.75310  Biso   1.000  C
  C109     1.0000 0.55140  0.06470  0.25310  Biso   1.000  C
  C110     1.0000 0.93530  0.55140  0.25310  Biso   1.000  C
  C111     1.0000 0.44860  0.93530  0.25310  Biso   1.000  C
  C112     1.0000 0.06470  0.44860  0.25310  Biso   1.000  C
  C113     1.0000 0.89940  0.38780  0.17390  Biso   1.000  C
  C114     1.0000 0.61220  0.89940  0.17390  Biso   1.000  C
  C115     1.0000 0.10060  0.61220  0.17390  Biso   1.000  C
  C116     1.0000 0.38780  0.10060  0.17390  Biso   1.000  C
  C117     1.0000 0.39940  0.88780  0.67390  Biso   1.000  C
  C118     1.0000 0.11220  0.39940  0.67390  Biso   1.000  C
  C119     1.0000 0.60060  0.11220  0.67390  Biso   1.000  C
  C120     1.0000 0.88780  0.60060  0.67390  Biso   1.000  C
  C121     1.0000 0.10060  0.61220  0.82610  Biso   1.000  C
  C122     1.0000 0.38780  0.10060  0.82610  Biso   1.000  C
  C123     1.0000 0.89940  0.38780  0.82610  Biso   1.000  C
  C124     1.0000 0.61220  0.89940  0.82610  Biso   1.000  C
  C125     1.0000 0.60060  0.11220  0.32610  Biso   1.000  C
  C126     1.0000 0.88780  0.60060  0.32610  Biso   1.000  C
  C127     1.0000 0.39940  0.88780  0.32610  Biso   1.000  C
  C128     1.0000 0.11220  0.39940  0.32610  Biso   1.000  C
  H33      1.0000 0.90290  0.40510  0.13750  Biso   1.000  H
  H34      1.0000 0.59490  0.90290  0.13750  Biso   1.000  H
  H35      1.0000 0.09710  0.59490  0.13750  Biso   1.000  H
  H36      1.0000 0.40510  0.09710  0.13750  Biso   1.000  H
  H37      1.0000 0.40290  0.90510  0.63750  Biso   1.000  H
  H38      1.0000 0.09490  0.40290  0.63750  Biso   1.000  H
  H39      1.0000 0.59710  0.09490  0.63750  Biso   1.000  H
  H40      1.0000 0.90510  0.59710  0.63750  Biso   1.000  H
  H41      1.0000 0.09710  0.59490  0.86250  Biso   1.000  H
  H42      1.0000 0.40510  0.09710  0.86250  Biso   1.000  H
  H43      1.0000 0.90290  0.40510  0.86250  Biso   1.000  H
  H44      1.0000 0.59490  0.90290  0.86250  Biso   1.000  H
  H45      1.0000 0.59710  0.09490  0.36250  Biso   1.000  H
  H46      1.0000 0.90510  0.59710  0.36250  Biso   1.000  H
  H47      1.0000 0.40290  0.90510  0.36250  Biso   1.000  H
  H48      1.0000 0.09490  0.40290  0.36250  Biso   1.000  H
  C129     1.0000 0.88410  0.33820  0.28560  Biso   1.000  C
  C130     1.0000 0.66180  0.88410  0.28560  Biso   1.000  C
  C131     1.0000 0.11590  0.66180  0.28560  Biso   1.000  C
  C132     1.0000 0.33820  0.11590  0.28560  Biso   1.000  C
  C133     1.0000 0.38410  0.83820  0.78560  Biso   1.000  C
  C134     1.0000 0.16180  0.38410  0.78560  Biso   1.000  C
  C135     1.0000 0.61590  0.16180  0.78560  Biso   1.000  C
  C136     1.0000 0.83820  0.61590  0.78560  Biso   1.000  C
  C137     1.0000 0.11590  0.66180  0.71440  Biso   1.000  C
  C138     1.0000 0.33820  0.11590  0.71440  Biso   1.000  C
  C139     1.0000 0.88410  0.33820  0.71440  Biso   1.000  C
  C140     1.0000 0.66180  0.88410  0.71440  Biso   1.000  C
  C141     1.0000 0.61590  0.16180  0.21440  Biso   1.000  C
  C142     1.0000 0.83820  0.61590  0.21440  Biso   1.000  C
  C143     1.0000 0.38410  0.83820  0.21440  Biso   1.000  C
  C144     1.0000 0.16180  0.38410  0.21440  Biso   1.000  C
  H49      1.0000 0.87930  0.32160  0.32230  Biso   1.000  H
  H50      1.0000 0.67840  0.87930  0.32230  Biso   1.000  H
  H51      1.0000 0.12070  0.67840  0.32230  Biso   1.000  H
  H52      1.0000 0.32160  0.12070  0.32230  Biso   1.000  H
  H53      1.0000 0.37930  0.82160  0.82230  Biso   1.000  H
  H54      1.0000 0.17840  0.37930  0.82230  Biso   1.000  H
  H55      1.0000 0.62070  0.17840  0.82230  Biso   1.000  H
  H56      1.0000 0.82160  0.62070  0.82230  Biso   1.000  H
  H57      1.0000 0.12070  0.67840  0.67770  Biso   1.000  H
  H58      1.0000 0.32160  0.12070  0.67770  Biso   1.000  H
  H59      1.0000 0.87930  0.32160  0.67770  Biso   1.000  H
  H60      1.0000 0.67840  0.87930  0.67770  Biso   1.000  H
  H61      1.0000 0.62070  0.17840  0.17770  Biso   1.000  H
  H62      1.0000 0.82160  0.62070  0.17770  Biso   1.000  H
  H63      1.0000 0.37930  0.82160  0.17770  Biso   1.000  H
  H64      1.0000 0.17840  0.37930  0.17770  Biso   1.000  H
  C145     1.0000 0.68890  0.20930  0.08230  Biso   1.000  C
  C146     1.0000 0.79070  0.68890  0.08230  Biso   1.000  C
  C147     1.0000 0.31110  0.79070  0.08230  Biso   1.000  C
  C148     1.0000 0.20930  0.31110  0.08230  Biso   1.000  C
  C149     1.0000 0.18890  0.70930  0.58230  Biso   1.000  C
  C150     1.0000 0.29070  0.18890  0.58230  Biso   1.000  C
  C151     1.0000 0.81110  0.29070  0.58230  Biso   1.000  C
  C152     1.0000 0.70930  0.81110  0.58230  Biso   1.000  C
  C153     1.0000 0.31110  0.79070  0.91770  Biso   1.000  C
  C154     1.0000 0.20930  0.31110  0.91770  Biso   1.000  C
  C155     1.0000 0.68890  0.20930  0.91770  Biso   1.000  C
  C156     1.0000 0.79070  0.68890  0.91770  Biso   1.000  C
  C157     1.0000 0.81110  0.29070  0.41770  Biso   1.000  C
  C158     1.0000 0.70930  0.81110  0.41770  Biso   1.000  C
  C159     1.0000 0.18890  0.70930  0.41770  Biso   1.000  C
  C160     1.0000 0.29070  0.18890  0.41770  Biso   1.000  C
  C161     1.0000 0.72630  0.92810  0.42150  Biso   1.000  C
  C162     1.0000 0.07190  0.72630  0.42150  Biso   1.000  C
  C163     1.0000 0.27370  0.07190  0.42150  Biso   1.000  C
  C164     1.0000 0.92810  0.27370  0.42150  Biso   1.000  C
  C165     1.0000 0.22630  0.42810  0.92150  Biso   1.000  C
  C166     1.0000 0.57190  0.22630  0.92150  Biso   1.000  C
  C167     1.0000 0.77370  0.57190  0.92150  Biso   1.000  C
  C168     1.0000 0.42810  0.77370  0.92150  Biso   1.000  C
  C169     1.0000 0.27370  0.07190  0.57850  Biso   1.000  C
  C170     1.0000 0.92810  0.27370  0.57850  Biso   1.000  C
  C171     1.0000 0.72630  0.92810  0.57850  Biso   1.000  C
  C172     1.0000 0.07190  0.72630  0.57850  Biso   1.000  C
  C173     1.0000 0.77370  0.57190  0.07850  Biso   1.000  C
  C174     1.0000 0.42810  0.77370  0.07850  Biso   1.000  C
  C175     1.0000 0.22630  0.42810  0.07850  Biso   1.000  C
  C176     1.0000 0.57190  0.22630  0.07850  Biso   1.000  C
  C177     1.0000 0.76240  0.15890  0.21810  Biso   1.000  C
  C178     1.0000 0.84110  0.76240  0.21810  Biso   1.000  C
  C179     1.0000 0.23760  0.84110  0.21810  Biso   1.000  C
  C180     1.0000 0.15890  0.23760  0.21810  Biso   1.000  C
  C181     1.0000 0.26240  0.65890  0.71810  Biso   1.000  C
  C182     1.0000 0.34110  0.26240  0.71810  Biso   1.000  C
  C183     1.0000 0.73760  0.34110  0.71810  Biso   1.000  C
  C184     1.0000 0.65890  0.73760  0.71810  Biso   1.000  C
  C185     1.0000 0.23760  0.84110  0.78190  Biso   1.000  C
  C186     1.0000 0.15890  0.23760  0.78190  Biso   1.000  C
  C187     1.0000 0.76240  0.15890  0.78190  Biso   1.000  C
  C188     1.0000 0.84110  0.76240  0.78190  Biso   1.000  C
  C189     1.0000 0.73760  0.34110  0.28190  Biso   1.000  C
  C190     1.0000 0.65890  0.73760  0.28190  Biso   1.000  C
  C191     1.0000 0.26240  0.65890  0.28190  Biso   1.000  C
  C192     1.0000 0.34110  0.26240  0.28190  Biso   1.000  C
  C193     1.0000 0.69770  0.98810  0.36060  Biso   1.000  C
  C194     1.0000 0.01190  0.69770  0.36060  Biso   1.000  C
  C195     1.0000 0.30230  0.01190  0.36060  Biso   1.000  C
  C196     1.0000 0.98810  0.30230  0.36060  Biso   1.000  C
  C197     1.0000 0.19770  0.48810  0.86060  Biso   1.000  C
  C198     1.0000 0.51190  0.19770  0.86060  Biso   1.000  C
  C199     1.0000 0.80230  0.51190  0.86060  Biso   1.000  C
  C200     1.0000 0.48810  0.80230  0.86060  Biso   1.000  C
  C201     1.0000 0.30230  0.01190  0.63940  Biso   1.000  C
  C202     1.0000 0.98810  0.30230  0.63940  Biso   1.000  C
  C203     1.0000 0.69770  0.98810  0.63940  Biso   1.000  C
  C204     1.0000 0.01190  0.69770  0.63940  Biso   1.000  C
  C205     1.0000 0.80230  0.51190  0.13940  Biso   1.000  C
  C206     1.0000 0.48810  0.80230  0.13940  Biso   1.000  C
  C207     1.0000 0.19770  0.48810  0.13940  Biso   1.000  C
  C208     1.0000 0.51190  0.19770  0.13940  Biso   1.000  C
  H65      1.0000 0.67070  0.98000  0.37590  Biso   1.000  H
  H66      1.0000 0.02000  0.67070  0.37590  Biso   1.000  H
  H67      1.0000 0.32930  0.02000  0.37590  Biso   1.000  H
  H68      1.0000 0.98000  0.32930  0.37590  Biso   1.000  H
  H69      1.0000 0.17070  0.48000  0.87590  Biso   1.000  H
  H70      1.0000 0.52000  0.17070  0.87590  Biso   1.000  H
  H71      1.0000 0.82930  0.52000  0.87590  Biso   1.000  H
  H72      1.0000 0.48000  0.82930  0.87590  Biso   1.000  H
  H73      1.0000 0.32930  0.02000  0.62410  Biso   1.000  H
  H74      1.0000 0.98000  0.32930  0.62410  Biso   1.000  H
  H75      1.0000 0.67070  0.98000  0.62410  Biso   1.000  H
  H76      1.0000 0.02000  0.67070  0.62410  Biso   1.000  H
  H77      1.0000 0.82930  0.52000  0.12410  Biso   1.000  H
  H78      1.0000 0.48000  0.82930  0.12410  Biso   1.000  H
  H79      1.0000 0.17070  0.48000  0.12410  Biso   1.000  H
  H80      1.0000 0.52000  0.17070  0.12410  Biso   1.000  H
  C209     1.0000 0.77580  0.97840  0.36560  Biso   1.000  C
  C210     1.0000 0.02160  0.77580  0.36560  Biso   1.000  C
  C211     1.0000 0.22420  0.02160  0.36560  Biso   1.000  C
  C212     1.0000 0.97840  0.22420  0.36560  Biso   1.000  C
  C213     1.0000 0.27580  0.47840  0.86560  Biso   1.000  C
  C214     1.0000 0.52160  0.27580  0.86560  Biso   1.000  C
  C215     1.0000 0.72420  0.52160  0.86560  Biso   1.000  C
  C216     1.0000 0.47840  0.72420  0.86560  Biso   1.000  C
  C217     1.0000 0.22420  0.02160  0.63440  Biso   1.000  C
  C218     1.0000 0.97840  0.22420  0.63440  Biso   1.000  C
  C219     1.0000 0.77580  0.97840  0.63440  Biso   1.000  C
  C220     1.0000 0.02160  0.77580  0.63440  Biso   1.000  C
  C221     1.0000 0.72420  0.52160  0.13440  Biso   1.000  C
  C222     1.0000 0.47840  0.72420  0.13440  Biso   1.000  C
  C223     1.0000 0.27580  0.47840  0.13440  Biso   1.000  C
  C224     1.0000 0.52160  0.27580  0.13440  Biso   1.000  C
  H81      1.0000 0.79940  0.96260  0.38020  Biso   1.000  H
  H82      1.0000 0.03740  0.79940  0.38020  Biso   1.000  H
  H83      1.0000 0.20060  0.03740  0.38020  Biso   1.000  H
  H84      1.0000 0.96260  0.20060  0.38020  Biso   1.000  H
  H85      1.0000 0.29940  0.46260  0.88020  Biso   1.000  H
  H86      1.0000 0.53740  0.29940  0.88020  Biso   1.000  H
  H87      1.0000 0.70060  0.53740  0.88020  Biso   1.000  H
  H88      1.0000 0.46260  0.70060  0.88020  Biso   1.000  H
  H89      1.0000 0.20060  0.03740  0.61980  Biso   1.000  H
  H90      1.0000 0.96260  0.20060  0.61980  Biso   1.000  H
  H91      1.0000 0.79940  0.96260  0.61980  Biso   1.000  H
  H92      1.0000 0.03740  0.79940  0.61980  Biso   1.000  H
  H93      1.0000 0.70060  0.53740  0.11980  Biso   1.000  H
  H94      1.0000 0.46260  0.70060  0.11980  Biso   1.000  H
  H95      1.0000 0.29940  0.46260  0.11980  Biso   1.000  H
  H96      1.0000 0.53740  0.29940  0.11980  Biso   1.000  H
  C225     1.0000 0.81760  0.26330  0.20880  Biso   1.000  C
  C226     1.0000 0.73670  0.81760  0.20880  Biso   1.000  C
  C227     1.0000 0.18240  0.73670  0.20880  Biso   1.000  C
  C228     1.0000 0.26330  0.18240  0.20880  Biso   1.000  C
  C229     1.0000 0.31760  0.76330  0.70880  Biso   1.000  C
  C230     1.0000 0.23670  0.31760  0.70880  Biso   1.000  C
  C231     1.0000 0.68240  0.23670  0.70880  Biso   1.000  C
  C232     1.0000 0.76330  0.68240  0.70880  Biso   1.000  C
  C233     1.0000 0.18240  0.73670  0.79120  Biso   1.000  C
  C234     1.0000 0.26330  0.18240  0.79120  Biso   1.000  C
  C235     1.0000 0.81760  0.26330  0.79120  Biso   1.000  C
  C236     1.0000 0.73670  0.81760  0.79120  Biso   1.000  C
  C237     1.0000 0.68240  0.23670  0.29120  Biso   1.000  C
  C238     1.0000 0.76330  0.68240  0.29120  Biso   1.000  C
  C239     1.0000 0.31760  0.76330  0.29120  Biso   1.000  C
  C240     1.0000 0.23670  0.31760  0.29120  Biso   1.000  C
  C241     1.0000 0.90910  0.37540  0.28960  Biso   1.000  C
  C242     1.0000 0.62460  0.90910  0.28960  Biso   1.000  C
  C243     1.0000 0.09090  0.62460  0.28960  Biso   1.000  C
  C244     1.0000 0.37540  0.09090  0.28960  Biso   1.000  C
  C245     1.0000 0.40910  0.87540  0.78960  Biso   1.000  C
  C246     1.0000 0.12460  0.40910  0.78960  Biso   1.000  C
  C247     1.0000 0.59090  0.12460  0.78960  Biso   1.000  C
  C248     1.0000 0.87540  0.59090  0.78960  Biso   1.000  C
  C249     1.0000 0.09090  0.62460  0.71040  Biso   1.000  C
  C250     1.0000 0.37540  0.09090  0.71040  Biso   1.000  C
  C251     1.0000 0.90910  0.37540  0.71040  Biso   1.000  C
  C252     1.0000 0.62460  0.90910  0.71040  Biso   1.000  C
  C253     1.0000 0.59090  0.12460  0.21040  Biso   1.000  C
  C254     1.0000 0.87540  0.59090  0.21040  Biso   1.000  C
  C255     1.0000 0.40910  0.87540  0.21040  Biso   1.000  C
  C256     1.0000 0.12460  0.40910  0.21040  Biso   1.000  C
  H97      1.0000 0.91780  0.38480  0.33030  Biso   1.000  H
  H98      1.0000 0.61520  0.91780  0.33030  Biso   1.000  H
  H99      1.0000 0.08220  0.61520  0.33030  Biso   1.000  H
  H100     1.0000 0.38480  0.08220  0.33030  Biso   1.000  H
  H101     1.0000 0.41780  0.88480  0.83030  Biso   1.000  H
  H102     1.0000 0.11520  0.41780  0.83030  Biso   1.000  H
  H103     1.0000 0.58220  0.11520  0.83030  Biso   1.000  H
  H104     1.0000 0.88480  0.58220  0.83030  Biso   1.000  H
  H105     1.0000 0.08220  0.61520  0.66970  Biso   1.000  H
  H106     1.0000 0.38480  0.08220  0.66970  Biso   1.000  H
  H107     1.0000 0.91780  0.38480  0.66970  Biso   1.000  H
  H108     1.0000 0.61520  0.91780  0.66970  Biso   1.000  H
  H109     1.0000 0.58220  0.11520  0.16970  Biso   1.000  H
  H110     1.0000 0.88480  0.58220  0.16970  Biso   1.000  H
  H111     1.0000 0.41780  0.88480  0.16970  Biso   1.000  H
  H112     1.0000 0.11520  0.41780  0.16970  Biso   1.000  H
  C257     1.0000 0.79150  0.19030  0.22430  Biso   1.000  C
  C258     1.0000 0.80970  0.79150  0.22430  Biso   1.000  C
  C259     1.0000 0.20850  0.80970  0.22430  Biso   1.000  C
  C260     1.0000 0.19030  0.20850  0.22430  Biso   1.000  C
  C261     1.0000 0.29150  0.69030  0.72430  Biso   1.000  C
  C262     1.0000 0.30970  0.29150  0.72430  Biso   1.000  C
  C263     1.0000 0.70850  0.30970  0.72430  Biso   1.000  C
  C264     1.0000 0.69030  0.70850  0.72430  Biso   1.000  C
  C265     1.0000 0.20850  0.80970  0.77570  Biso   1.000  C
  C266     1.0000 0.19030  0.20850  0.77570  Biso   1.000  C
  C267     1.0000 0.79150  0.19030  0.77570  Biso   1.000  C
  C268     1.0000 0.80970  0.79150  0.77570  Biso   1.000  C
  C269     1.0000 0.70850  0.30970  0.27570  Biso   1.000  C
  C270     1.0000 0.69030  0.70850  0.27570  Biso   1.000  C
  C271     1.0000 0.29150  0.69030  0.27570  Biso   1.000  C
  C272     1.0000 0.30970  0.29150  0.27570  Biso   1.000  C
  H113     1.0000 0.81530  0.18610  0.25090  Biso   1.000  H
  H114     1.0000 0.81390  0.81530  0.25090  Biso   1.000  H
  H115     1.0000 0.18470  0.81390  0.25090  Biso   1.000  H
  H116     1.0000 0.18610  0.18470  0.25090  Biso   1.000  H
  H117     1.0000 0.31530  0.68610  0.75090  Biso   1.000  H
  H118     1.0000 0.31390  0.31530  0.75090  Biso   1.000  H
  H119     1.0000 0.68470  0.31390  0.75090  Biso   1.000  H
  H120     1.0000 0.68610  0.68470  0.75090  Biso   1.000  H
  H121     1.0000 0.18470  0.81390  0.74910  Biso   1.000  H
  H122     1.0000 0.18610  0.18470  0.74910  Biso   1.000  H
  H123     1.0000 0.81530  0.18610  0.74910  Biso   1.000  H
  H124     1.0000 0.81390  0.81530  0.74910  Biso   1.000  H
  H125     1.0000 0.68470  0.31390  0.24910  Biso   1.000  H
  H126     1.0000 0.68610  0.68470  0.24910  Biso   1.000  H
  H127     1.0000 0.31530  0.68610  0.24910  Biso   1.000  H
  H128     1.0000 0.31390  0.31530  0.24910  Biso   1.000  H
  C273     1.0000 0.83750  0.29050  0.21710  Biso   1.000  C
  C274     1.0000 0.70950  0.83750  0.21710  Biso   1.000  C
  C275     1.0000 0.16250  0.70950  0.21710  Biso   1.000  C
  C276     1.0000 0.29050  0.16250  0.21710  Biso   1.000  C
  C277     1.0000 0.33750  0.79050  0.71710  Biso   1.000  C
  C278     1.0000 0.20950  0.33750  0.71710  Biso   1.000  C
  C279     1.0000 0.66250  0.20950  0.71710  Biso   1.000  C
  C280     1.0000 0.79050  0.66250  0.71710  Biso   1.000  C
  C281     1.0000 0.16250  0.70950  0.78290  Biso   1.000  C
  C282     1.0000 0.29050  0.16250  0.78290  Biso   1.000  C
  C283     1.0000 0.83750  0.29050  0.78290  Biso   1.000  C
  C284     1.0000 0.70950  0.83750  0.78290  Biso   1.000  C
  C285     1.0000 0.66250  0.20950  0.28290  Biso   1.000  C
  C286     1.0000 0.79050  0.66250  0.28290  Biso   1.000  C
  C287     1.0000 0.33750  0.79050  0.28290  Biso   1.000  C
  C288     1.0000 0.20950  0.33750  0.28290  Biso   1.000  C
  C289     1.0000 0.77990  0.01890  0.32880  Biso   1.000  C
  C290     1.0000 0.98110  0.77990  0.32880  Biso   1.000  C
  C291     1.0000 0.22010  0.98110  0.32880  Biso   1.000  C
  C292     1.0000 0.01890  0.22010  0.32880  Biso   1.000  C
  C293     1.0000 0.27990  0.51890  0.82880  Biso   1.000  C
  C294     1.0000 0.48110  0.27990  0.82880  Biso   1.000  C
  C295     1.0000 0.72010  0.48110  0.82880  Biso   1.000  C
  C296     1.0000 0.51890  0.72010  0.82880  Biso   1.000  C
  C297     1.0000 0.22010  0.98110  0.67120  Biso   1.000  C
  C298     1.0000 0.01890  0.22010  0.67120  Biso   1.000  C
  C299     1.0000 0.77990  0.01890  0.67120  Biso   1.000  C
  C300     1.0000 0.98110  0.77990  0.67120  Biso   1.000  C
  C301     1.0000 0.72010  0.48110  0.17120  Biso   1.000  C
  C302     1.0000 0.51890  0.72010  0.17120  Biso   1.000  C
  C303     1.0000 0.27990  0.51890  0.17120  Biso   1.000  C
  C304     1.0000 0.48110  0.27990  0.17120  Biso   1.000  C
  H129     1.0000 0.80660  0.03000  0.31700  Biso   1.000  H
  H130     1.0000 0.97000  0.80660  0.31700  Biso   1.000  H
  H131     1.0000 0.19340  0.97000  0.31700  Biso   1.000  H
  H132     1.0000 0.03000  0.19340  0.31700  Biso   1.000  H
  H133     1.0000 0.30660  0.53000  0.81700  Biso   1.000  H
  H134     1.0000 0.47000  0.30660  0.81700  Biso   1.000  H
  H135     1.0000 0.69340  0.47000  0.81700  Biso   1.000  H
  H136     1.0000 0.53000  0.69340  0.81700  Biso   1.000  H
  H137     1.0000 0.19340  0.97000  0.68300  Biso   1.000  H
  H138     1.0000 0.03000  0.19340  0.68300  Biso   1.000  H
  H139     1.0000 0.80660  0.03000  0.68300  Biso   1.000  H
  H140     1.0000 0.97000  0.80660  0.68300  Biso   1.000  H
  H141     1.0000 0.69340  0.47000  0.18300  Biso   1.000  H
  H142     1.0000 0.53000  0.69340  0.18300  Biso   1.000  H
  H143     1.0000 0.30660  0.53000  0.18300  Biso   1.000  H
  H144     1.0000 0.47000  0.30660  0.18300  Biso   1.000  H
  C305     1.0000 0.73620  0.96690  0.37550  Biso   1.000  C
  C306     1.0000 0.03310  0.73620  0.37550  Biso   1.000  C
  C307     1.0000 0.26380  0.03310  0.37550  Biso   1.000  C
  C308     1.0000 0.96690  0.26380  0.37550  Biso   1.000  C
  C309     1.0000 0.23620  0.46690  0.87550  Biso   1.000  C
  C310     1.0000 0.53310  0.23620  0.87550  Biso   1.000  C
  C311     1.0000 0.76380  0.53310  0.87550  Biso   1.000  C
  C312     1.0000 0.46690  0.76380  0.87550  Biso   1.000  C
  C313     1.0000 0.26380  0.03310  0.62450  Biso   1.000  C
  C314     1.0000 0.96690  0.26380  0.62450  Biso   1.000  C
  C315     1.0000 0.73620  0.96690  0.62450  Biso   1.000  C
  C316     1.0000 0.03310  0.73620  0.62450  Biso   1.000  C
  C317     1.0000 0.76380  0.53310  0.12450  Biso   1.000  C
  C318     1.0000 0.46690  0.76380  0.12450  Biso   1.000  C
  C319     1.0000 0.23620  0.46690  0.12450  Biso   1.000  C
  C320     1.0000 0.53310  0.23620  0.12450  Biso   1.000  C
  O113     1.0000 0.61680  0.10400  0.00000  Biso   1.000  O
  O114     1.0000 0.89600  0.61680  0.00000  Biso   1.000  O
  O115     1.0000 0.38320  0.89600  0.00000  Biso   1.000  O
  O116     1.0000 0.10400  0.38320  0.00000  Biso   1.000  O
  O117     1.0000 0.11680  0.60400  0.50000  Biso   1.000  O
  O118     1.0000 0.39600  0.11680  0.50000  Biso   1.000  O
  O119     1.0000 0.88320  0.39600  0.50000  Biso   1.000  O
  O120     1.0000 0.60400  0.88320  0.50000  Biso   1.000  O
  C321     1.0000 0.73970  0.04070  0.31200  Biso   1.000  C
  C322     1.0000 0.95930  0.73970  0.31200  Biso   1.000  C
  C323     1.0000 0.26030  0.95930  0.31200  Biso   1.000  C
  C324     1.0000 0.04070  0.26030  0.31200  Biso   1.000  C
  C325     1.0000 0.23970  0.54070  0.81200  Biso   1.000  C
  C326     1.0000 0.45930  0.23970  0.81200  Biso   1.000  C
  C327     1.0000 0.76030  0.45930  0.81200  Biso   1.000  C
  C328     1.0000 0.54070  0.76030  0.81200  Biso   1.000  C
  C329     1.0000 0.26030  0.95930  0.68800  Biso   1.000  C
  C330     1.0000 0.04070  0.26030  0.68800  Biso   1.000  C
  C331     1.0000 0.73970  0.04070  0.68800  Biso   1.000  C
  C332     1.0000 0.95930  0.73970  0.68800  Biso   1.000  C
  C333     1.0000 0.76030  0.45930  0.18800  Biso   1.000  C
  C334     1.0000 0.54070  0.76030  0.18800  Biso   1.000  C
  C335     1.0000 0.23970  0.54070  0.18800  Biso   1.000  C
  C336     1.0000 0.45930  0.23970  0.18800  Biso   1.000  C
  C337     1.0000 0.87370  0.35010  0.17350  Biso   1.000  C
  C338     1.0000 0.64990  0.87370  0.17350  Biso   1.000  C
  C339     1.0000 0.12630  0.64990  0.17350  Biso   1.000  C
  C340     1.0000 0.35010  0.12630  0.17350  Biso   1.000  C
  C341     1.0000 0.37370  0.85010  0.67350  Biso   1.000  C
  C342     1.0000 0.14990  0.37370  0.67350  Biso   1.000  C
  C343     1.0000 0.62630  0.14990  0.67350  Biso   1.000  C
  C344     1.0000 0.85010  0.62630  0.67350  Biso   1.000  C
  C345     1.0000 0.12630  0.64990  0.82650  Biso   1.000  C
  C346     1.0000 0.35010  0.12630  0.82650  Biso   1.000  C
  C347     1.0000 0.87370  0.35010  0.82650  Biso   1.000  C
  C348     1.0000 0.64990  0.87370  0.82650  Biso   1.000  C
  C349     1.0000 0.62630  0.14990  0.32650  Biso   1.000  C
  C350     1.0000 0.85010  0.62630  0.32650  Biso   1.000  C
  C351     1.0000 0.37370  0.85010  0.32650  Biso   1.000  C
  C352     1.0000 0.14990  0.37370  0.32650  Biso   1.000  C
  H145     1.0000 0.86130  0.34170  0.13450  Biso   1.000  H
  H146     1.0000 0.65830  0.86130  0.13450  Biso   1.000  H
  H147     1.0000 0.13870  0.65830  0.13450  Biso   1.000  H
  H148     1.0000 0.34170  0.13870  0.13450  Biso   1.000  H
  H149     1.0000 0.36130  0.84170  0.63450  Biso   1.000  H
  H150     1.0000 0.15830  0.36130  0.63450  Biso   1.000  H
  H151     1.0000 0.63870  0.15830  0.63450  Biso   1.000  H
  H152     1.0000 0.84170  0.63870  0.63450  Biso   1.000  H
  H153     1.0000 0.13870  0.65830  0.86550  Biso   1.000  H
  H154     1.0000 0.34170  0.13870  0.86550  Biso   1.000  H
  H155     1.0000 0.86130  0.34170  0.86550  Biso   1.000  H
  H156     1.0000 0.65830  0.86130  0.86550  Biso   1.000  H
  H157     1.0000 0.63870  0.15830  0.36550  Biso   1.000  H
  H158     1.0000 0.84170  0.63870  0.36550  Biso   1.000  H
  H159     1.0000 0.36130  0.84170  0.36550  Biso   1.000  H
  H160     1.0000 0.15830  0.36130  0.36550  Biso   1.000  H
  C353     1.0000 0.70470  0.02160  0.32150  Biso   1.000  C
  C354     1.0000 0.97840  0.70470  0.32150  Biso   1.000  C
  C355     1.0000 0.29530  0.97840  0.32150  Biso   1.000  C
  C356     1.0000 0.02160  0.29530  0.32150  Biso   1.000  C
  C357     1.0000 0.20470  0.52160  0.82150  Biso   1.000  C
  C358     1.0000 0.47840  0.20470  0.82150  Biso   1.000  C
  C359     1.0000 0.79530  0.47840  0.82150  Biso   1.000  C
  C360     1.0000 0.52160  0.79530  0.82150  Biso   1.000  C
  C361     1.0000 0.29530  0.97840  0.67850  Biso   1.000  C
  C362     1.0000 0.02160  0.29530  0.67850  Biso   1.000  C
  C363     1.0000 0.70470  0.02160  0.67850  Biso   1.000  C
  C364     1.0000 0.97840  0.70470  0.67850  Biso   1.000  C
  C365     1.0000 0.79530  0.47840  0.17850  Biso   1.000  C
  C366     1.0000 0.52160  0.79530  0.17850  Biso   1.000  C
  C367     1.0000 0.20470  0.52160  0.17850  Biso   1.000  C
  C368     1.0000 0.47840  0.20470  0.17850  Biso   1.000  C
  H161     1.0000 0.68100  0.03190  0.29880  Biso   1.000  H
  H162     1.0000 0.96810  0.68100  0.29880  Biso   1.000  H
  H163     1.0000 0.31900  0.96810  0.29880  Biso   1.000  H
  H164     1.0000 0.03190  0.31900  0.29880  Biso   1.000  H
  H165     1.0000 0.18100  0.53190  0.79880  Biso   1.000  H
  H166     1.0000 0.46810  0.18100  0.79880  Biso   1.000  H
  H167     1.0000 0.81900  0.46810  0.79880  Biso   1.000  H
  H168     1.0000 0.53190  0.81900  0.79880  Biso   1.000  H
  H169     1.0000 0.31900  0.96810  0.70120  Biso   1.000  H
  H170     1.0000 0.03190  0.31900  0.70120  Biso   1.000  H
  H171     1.0000 0.68100  0.03190  0.70120  Biso   1.000  H
  H172     1.0000 0.96810  0.68100  0.70120  Biso   1.000  H
  H173     1.0000 0.81900  0.46810  0.20120  Biso   1.000  H
  H174     1.0000 0.53190  0.81900  0.20120  Biso   1.000  H
  H175     1.0000 0.18100  0.53190  0.20120  Biso   1.000  H
  H176     1.0000 0.46810  0.18100  0.20120  Biso   1.000  H
  C369     1.0000 0.75300  0.08170  0.27370  Biso   1.000  C
  C370     1.0000 0.91830  0.75300  0.27370  Biso   1.000  C
  C371     1.0000 0.24700  0.91830  0.27370  Biso   1.000  C
  C372     1.0000 0.08170  0.24700  0.27370  Biso   1.000  C
  C373     1.0000 0.25300  0.58170  0.77370  Biso   1.000  C
  C374     1.0000 0.41830  0.25300  0.77370  Biso   1.000  C
  C375     1.0000 0.74700  0.41830  0.77370  Biso   1.000  C
  C376     1.0000 0.58170  0.74700  0.77370  Biso   1.000  C
  C377     1.0000 0.24700  0.91830  0.72630  Biso   1.000  C
  C378     1.0000 0.08170  0.24700  0.72630  Biso   1.000  C
  C379     1.0000 0.75300  0.08170  0.72630  Biso   1.000  C
  C380     1.0000 0.91830  0.75300  0.72630  Biso   1.000  C
  C381     1.0000 0.74700  0.41830  0.22630  Biso   1.000  C
  C382     1.0000 0.58170  0.74700  0.22630  Biso   1.000  C
  C383     1.0000 0.25300  0.58170  0.22630  Biso   1.000  C
  C384     1.0000 0.41830  0.25300  0.22630  Biso   1.000  C
  C385     1.0000 0.75750  0.11350  0.25350  Biso   1.000  C
  C386     1.0000 0.88650  0.75750  0.25350  Biso   1.000  C
  C387     1.0000 0.24250  0.88650  0.25350  Biso   1.000  C
  C388     1.0000 0.11350  0.24250  0.25350  Biso   1.000  C
  C389     1.0000 0.25750  0.61350  0.75350  Biso   1.000  C
  C390     1.0000 0.38650  0.25750  0.75350  Biso   1.000  C
  C391     1.0000 0.74250  0.38650  0.75350  Biso   1.000  C
  C392     1.0000 0.61350  0.74250  0.75350  Biso   1.000  C
  C393     1.0000 0.24250  0.88650  0.74650  Biso   1.000  C
  C394     1.0000 0.11350  0.24250  0.74650  Biso   1.000  C
  C395     1.0000 0.75750  0.11350  0.74650  Biso   1.000  C
  C396     1.0000 0.88650  0.75750  0.74650  Biso   1.000  C
  C397     1.0000 0.74250  0.38650  0.24650  Biso   1.000  C
  C398     1.0000 0.61350  0.74250  0.24650  Biso   1.000  C
  C399     1.0000 0.25750  0.61350  0.24650  Biso   1.000  C
  C400     1.0000 0.38650  0.25750  0.24650  Biso   1.000  C
