data_image0
_cell_length_a       31.3382
_cell_length_b       31.3382
_cell_length_c       39.0786
_cell_angle_alpha    90
_cell_angle_beta     90
_cell_angle_gamma    90

_symmetry_space_group_name_H-M    "P 1"
_symmetry_int_tables_number       1

loop_
  _symmetry_equiv_pos_as_xyz
  'x, y, z'

loop_
  _atom_site_label
  _atom_site_occupancy
  _atom_site_fract_x
  _atom_site_fract_y
  _atom_site_fract_z
  _atom_site_thermal_displace_type
  _atom_site_B_iso_or_equiv
  _atom_site_type_symbol
  Cu1      1.0000 0.37931  0.12069  0.00000  Biso   1.000  Cu
  Cu2      1.0000 0.87931  0.37931  0.00000  Biso   1.000  Cu
  Cu3      1.0000 0.37931  0.87931  0.50000  Biso   1.000  Cu
  Cu4      1.0000 0.62069  0.87931  0.00000  Biso   1.000  Cu
  Cu5      1.0000 0.87931  0.62069  0.50000  Biso   1.000  Cu
  Cu6      1.0000 0.12069  0.37931  0.50000  Biso   1.000  Cu
  Cu7      1.0000 0.12069  0.62069  0.00000  Biso   1.000  Cu
  Cu8      1.0000 0.62069  0.12069  0.50000  Biso   1.000  Cu
  Cu9      1.0000 0.31960  0.18040  0.00000  Biso   1.000  Cu
  Cu10     1.0000 0.81960  0.31960  0.00000  Biso   1.000  Cu
  Cu11     1.0000 0.31960  0.81960  0.50000  Biso   1.000  Cu
  Cu12     1.0000 0.68040  0.81960  0.00000  Biso   1.000  Cu
  Cu13     1.0000 0.81960  0.68040  0.50000  Biso   1.000  Cu
  Cu14     1.0000 0.18040  0.31960  0.50000  Biso   1.000  Cu
  Cu15     1.0000 0.18040  0.68040  0.00000  Biso   1.000  Cu
  Cu16     1.0000 0.68040  0.18040  0.50000  Biso   1.000  Cu
  O1       1.0000 0.34392  0.09381  0.03570  Biso   1.000  O
  O2       1.0000 0.90619  0.34392  0.03570  Biso   1.000  O
  O3       1.0000 0.34392  0.90619  0.46430  Biso   1.000  O
  O4       1.0000 0.65608  0.90619  0.03570  Biso   1.000  O
  O5       1.0000 0.90619  0.65608  0.46430  Biso   1.000  O
  O6       1.0000 0.09381  0.34392  0.46430  Biso   1.000  O
  O7       1.0000 0.09381  0.65608  0.03570  Biso   1.000  O
  O8       1.0000 0.65608  0.09381  0.46430  Biso   1.000  O
  O9       1.0000 0.84392  0.59381  0.53570  Biso   1.000  O
  O10      1.0000 0.40619  0.84392  0.53570  Biso   1.000  O
  O11      1.0000 0.84392  0.40619  0.96430  Biso   1.000  O
  O12      1.0000 0.15608  0.40619  0.53570  Biso   1.000  O
  O13      1.0000 0.40619  0.15608  0.96430  Biso   1.000  O
  O14      1.0000 0.59381  0.84392  0.96430  Biso   1.000  O
  O15      1.0000 0.59381  0.15608  0.53570  Biso   1.000  O
  O16      1.0000 0.15608  0.59381  0.96430  Biso   1.000  O
  O17      1.0000 0.65608  0.90619  0.96430  Biso   1.000  O
  O18      1.0000 0.09381  0.65608  0.96430  Biso   1.000  O
  O19      1.0000 0.65608  0.09381  0.53570  Biso   1.000  O
  O20      1.0000 0.34392  0.09381  0.96430  Biso   1.000  O
  O21      1.0000 0.09381  0.34392  0.53570  Biso   1.000  O
  O22      1.0000 0.90619  0.65608  0.53570  Biso   1.000  O
  O23      1.0000 0.90619  0.34392  0.96430  Biso   1.000  O
  O24      1.0000 0.34392  0.90619  0.53570  Biso   1.000  O
  O25      1.0000 0.15608  0.40619  0.46430  Biso   1.000  O
  O26      1.0000 0.59381  0.15608  0.46430  Biso   1.000  O
  O27      1.0000 0.15608  0.59381  0.03570  Biso   1.000  O
  O28      1.0000 0.84392  0.59381  0.46430  Biso   1.000  O
  O29      1.0000 0.59381  0.84392  0.03570  Biso   1.000  O
  O30      1.0000 0.40619  0.15608  0.03570  Biso   1.000  O
  O31      1.0000 0.40619  0.84392  0.46430  Biso   1.000  O
  O32      1.0000 0.84392  0.40619  0.03570  Biso   1.000  O
  O33      1.0000 0.42772  0.07228  0.00000  Biso   1.000  O
  O34      1.0000 0.92772  0.42772  0.00000  Biso   1.000  O
  O35      1.0000 0.42772  0.92772  0.50000  Biso   1.000  O
  O36      1.0000 0.57228  0.92772  0.00000  Biso   1.000  O
  O37      1.0000 0.92772  0.57228  0.50000  Biso   1.000  O
  O38      1.0000 0.07228  0.42772  0.50000  Biso   1.000  O
  O39      1.0000 0.07228  0.57228  0.00000  Biso   1.000  O
  O40      1.0000 0.57228  0.07228  0.50000  Biso   1.000  O
  O41      1.0000 0.29285  0.14574  0.03535  Biso   1.000  O
  O42      1.0000 0.85426  0.29285  0.03535  Biso   1.000  O
  O43      1.0000 0.29285  0.85426  0.46465  Biso   1.000  O
  O44      1.0000 0.70715  0.85426  0.03535  Biso   1.000  O
  O45      1.0000 0.85426  0.70715  0.46465  Biso   1.000  O
  O46      1.0000 0.14574  0.29285  0.46465  Biso   1.000  O
  O47      1.0000 0.14574  0.70715  0.03535  Biso   1.000  O
  O48      1.0000 0.70715  0.14574  0.46465  Biso   1.000  O
  O49      1.0000 0.79285  0.64574  0.53535  Biso   1.000  O
  O50      1.0000 0.35426  0.79285  0.53535  Biso   1.000  O
  O51      1.0000 0.79285  0.35426  0.96465  Biso   1.000  O
  O52      1.0000 0.20715  0.35426  0.53535  Biso   1.000  O
  O53      1.0000 0.35426  0.20715  0.96465  Biso   1.000  O
  O54      1.0000 0.64574  0.79285  0.96465  Biso   1.000  O
  O55      1.0000 0.64574  0.20715  0.53535  Biso   1.000  O
  O56      1.0000 0.20715  0.64574  0.96465  Biso   1.000  O
  O57      1.0000 0.70715  0.85426  0.96465  Biso   1.000  O
  O58      1.0000 0.14574  0.70715  0.96465  Biso   1.000  O
  O59      1.0000 0.70715  0.14574  0.53535  Biso   1.000  O
  O60      1.0000 0.29285  0.14574  0.96465  Biso   1.000  O
  O61      1.0000 0.14574  0.29285  0.53535  Biso   1.000  O
  O62      1.0000 0.85426  0.70715  0.53535  Biso   1.000  O
  O63      1.0000 0.85426  0.29285  0.96465  Biso   1.000  O
  O64      1.0000 0.29285  0.85426  0.53535  Biso   1.000  O
  O65      1.0000 0.20715  0.35426  0.46465  Biso   1.000  O
  O66      1.0000 0.64574  0.20715  0.46465  Biso   1.000  O
  O67      1.0000 0.20715  0.64574  0.03535  Biso   1.000  O
  O68      1.0000 0.79285  0.64574  0.46465  Biso   1.000  O
  O69      1.0000 0.64574  0.79285  0.03535  Biso   1.000  O
  O70      1.0000 0.35426  0.20715  0.03535  Biso   1.000  O
  O71      1.0000 0.35426  0.79285  0.46465  Biso   1.000  O
  O72      1.0000 0.79285  0.35426  0.03535  Biso   1.000  O
  O73      1.0000 0.27133  0.22867  0.00000  Biso   1.000  O
  O74      1.0000 0.77133  0.27133  0.00000  Biso   1.000  O
  O75      1.0000 0.27133  0.77133  0.50000  Biso   1.000  O
  O76      1.0000 0.72867  0.77133  0.00000  Biso   1.000  O
  O77      1.0000 0.77133  0.72867  0.50000  Biso   1.000  O
  O78      1.0000 0.22867  0.27133  0.50000  Biso   1.000  O
  O79      1.0000 0.22867  0.72867  0.00000  Biso   1.000  O
  O80      1.0000 0.72867  0.22867  0.50000  Biso   1.000  O
  C1       1.0000 0.31151  0.11300  0.04599  Biso   1.000  C
  C2       1.0000 0.88700  0.31151  0.04599  Biso   1.000  C
  C3       1.0000 0.31151  0.88700  0.45401  Biso   1.000  C
  C4       1.0000 0.68849  0.88700  0.04599  Biso   1.000  C
  C5       1.0000 0.88700  0.68849  0.45401  Biso   1.000  C
  C6       1.0000 0.11300  0.31151  0.45401  Biso   1.000  C
  C7       1.0000 0.11300  0.68849  0.04599  Biso   1.000  C
  C8       1.0000 0.68849  0.11300  0.45401  Biso   1.000  C
  C9       1.0000 0.81151  0.61300  0.54599  Biso   1.000  C
  C10      1.0000 0.38700  0.81151  0.54599  Biso   1.000  C
  C11      1.0000 0.81151  0.38700  0.95401  Biso   1.000  C
  C12      1.0000 0.18849  0.38700  0.54599  Biso   1.000  C
  C13      1.0000 0.38700  0.18849  0.95401  Biso   1.000  C
  C14      1.0000 0.61300  0.81151  0.95401  Biso   1.000  C
  C15      1.0000 0.61300  0.18849  0.54599  Biso   1.000  C
  C16      1.0000 0.18849  0.61300  0.95401  Biso   1.000  C
  C17      1.0000 0.68849  0.88700  0.95401  Biso   1.000  C
  C18      1.0000 0.11300  0.68849  0.95401  Biso   1.000  C
  C19      1.0000 0.68849  0.11300  0.54599  Biso   1.000  C
  C20      1.0000 0.31151  0.11300  0.95401  Biso   1.000  C
  C21      1.0000 0.11300  0.31151  0.54599  Biso   1.000  C
  C22      1.0000 0.88700  0.68849  0.54599  Biso   1.000  C
  C23      1.0000 0.88700  0.31151  0.95401  Biso   1.000  C
  C24      1.0000 0.31151  0.88700  0.54599  Biso   1.000  C
  C25      1.0000 0.18849  0.38700  0.45401  Biso   1.000  C
  C26      1.0000 0.61300  0.18849  0.45401  Biso   1.000  C
  C27      1.0000 0.18849  0.61300  0.04599  Biso   1.000  C
  C28      1.0000 0.81151  0.61300  0.45401  Biso   1.000  C
  C29      1.0000 0.61300  0.81151  0.04599  Biso   1.000  C
  C30      1.0000 0.38700  0.18849  0.04599  Biso   1.000  C
  C31      1.0000 0.38700  0.81151  0.45401  Biso   1.000  C
  C32      1.0000 0.81151  0.38700  0.04599  Biso   1.000  C
  C33      1.0000 0.28935  0.09010  0.07695  Biso   1.000  C
  C34      1.0000 0.90990  0.28935  0.07695  Biso   1.000  C
  C35      1.0000 0.28935  0.90990  0.42305  Biso   1.000  C
  C36      1.0000 0.71065  0.90990  0.07695  Biso   1.000  C
  C37      1.0000 0.90990  0.71065  0.42305  Biso   1.000  C
  C38      1.0000 0.09010  0.28935  0.42305  Biso   1.000  C
  C39      1.0000 0.09010  0.71065  0.07695  Biso   1.000  C
  C40      1.0000 0.71065  0.09010  0.42305  Biso   1.000  C
  C41      1.0000 0.78935  0.59010  0.57695  Biso   1.000  C
  C42      1.0000 0.40990  0.78935  0.57695  Biso   1.000  C
  C43      1.0000 0.78935  0.40990  0.92305  Biso   1.000  C
  C44      1.0000 0.21065  0.40990  0.57695  Biso   1.000  C
  C45      1.0000 0.40990  0.21065  0.92305  Biso   1.000  C
  C46      1.0000 0.59010  0.78935  0.92305  Biso   1.000  C
  C47      1.0000 0.59010  0.21065  0.57695  Biso   1.000  C
  C48      1.0000 0.21065  0.59010  0.92305  Biso   1.000  C
  C49      1.0000 0.71065  0.90990  0.92305  Biso   1.000  C
  C50      1.0000 0.09010  0.71065  0.92305  Biso   1.000  C
  C51      1.0000 0.71065  0.09010  0.57695  Biso   1.000  C
  C52      1.0000 0.28935  0.09010  0.92305  Biso   1.000  C
  C53      1.0000 0.09010  0.28935  0.57695  Biso   1.000  C
  C54      1.0000 0.90990  0.71065  0.57695  Biso   1.000  C
  C55      1.0000 0.90990  0.28935  0.92305  Biso   1.000  C
  C56      1.0000 0.28935  0.90990  0.57695  Biso   1.000  C
  C57      1.0000 0.21065  0.40990  0.42305  Biso   1.000  C
  C58      1.0000 0.59010  0.21065  0.42305  Biso   1.000  C
  C59      1.0000 0.21065  0.59010  0.07695  Biso   1.000  C
  C60      1.0000 0.78935  0.59010  0.42305  Biso   1.000  C
  C61      1.0000 0.59010  0.78935  0.07695  Biso   1.000  C
  C62      1.0000 0.40990  0.21065  0.07695  Biso   1.000  C
  C63      1.0000 0.40990  0.78935  0.42305  Biso   1.000  C
  C64      1.0000 0.78935  0.40990  0.07695  Biso   1.000  C
  C65      1.0000 0.30925  0.05541  0.09160  Biso   1.000  C
  C66      1.0000 0.94459  0.30925  0.09160  Biso   1.000  C
  C67      1.0000 0.30925  0.94459  0.40840  Biso   1.000  C
  C68      1.0000 0.69075  0.94459  0.09160  Biso   1.000  C
  C69      1.0000 0.94459  0.69075  0.40840  Biso   1.000  C
  C70      1.0000 0.05541  0.30925  0.40840  Biso   1.000  C
  C71      1.0000 0.05541  0.69075  0.09160  Biso   1.000  C
  C72      1.0000 0.69075  0.05541  0.40840  Biso   1.000  C
  C73      1.0000 0.80925  0.55541  0.59160  Biso   1.000  C
  C74      1.0000 0.44459  0.80925  0.59160  Biso   1.000  C
  C75      1.0000 0.80925  0.44459  0.90840  Biso   1.000  C
  C76      1.0000 0.19075  0.44459  0.59160  Biso   1.000  C
  C77      1.0000 0.44459  0.19075  0.90840  Biso   1.000  C
  C78      1.0000 0.55541  0.80925  0.90840  Biso   1.000  C
  C79      1.0000 0.55541  0.19075  0.59160  Biso   1.000  C
  C80      1.0000 0.19075  0.55541  0.90840  Biso   1.000  C
  C81      1.0000 0.69075  0.94459  0.90840  Biso   1.000  C
  C82      1.0000 0.05541  0.69075  0.90840  Biso   1.000  C
  C83      1.0000 0.69075  0.05541  0.59160  Biso   1.000  C
  C84      1.0000 0.30925  0.05541  0.90840  Biso   1.000  C
  C85      1.0000 0.05541  0.30925  0.59160  Biso   1.000  C
  C86      1.0000 0.94459  0.69075  0.59160  Biso   1.000  C
  C87      1.0000 0.94459  0.30925  0.90840  Biso   1.000  C
  C88      1.0000 0.30925  0.94459  0.59160  Biso   1.000  C
  C89      1.0000 0.19075  0.44459  0.40840  Biso   1.000  C
  C90      1.0000 0.55541  0.19075  0.40840  Biso   1.000  C
  C91      1.0000 0.19075  0.55541  0.09160  Biso   1.000  C
  C92      1.0000 0.80925  0.55541  0.40840  Biso   1.000  C
  C93      1.0000 0.55541  0.80925  0.09160  Biso   1.000  C
  C94      1.0000 0.44459  0.19075  0.09160  Biso   1.000  C
  C95      1.0000 0.44459  0.80925  0.40840  Biso   1.000  C
  C96      1.0000 0.80925  0.44459  0.09160  Biso   1.000  C
  C97      1.0000 0.25273  0.10846  0.08909  Biso   1.000  C
  C98      1.0000 0.89154  0.25273  0.08909  Biso   1.000  C
  C99      1.0000 0.25273  0.89154  0.41091  Biso   1.000  C
  C100     1.0000 0.74727  0.89154  0.08909  Biso   1.000  C
  C101     1.0000 0.89154  0.74727  0.41091  Biso   1.000  C
  C102     1.0000 0.10846  0.25273  0.41091  Biso   1.000  C
  C103     1.0000 0.10846  0.74727  0.08909  Biso   1.000  C
  C104     1.0000 0.74727  0.10846  0.41091  Biso   1.000  C
  C105     1.0000 0.75273  0.60846  0.58909  Biso   1.000  C
  C106     1.0000 0.39154  0.75273  0.58909  Biso   1.000  C
  C107     1.0000 0.75273  0.39154  0.91091  Biso   1.000  C
  C108     1.0000 0.24727  0.39154  0.58909  Biso   1.000  C
  C109     1.0000 0.39154  0.24727  0.91091  Biso   1.000  C
  C110     1.0000 0.60846  0.75273  0.91091  Biso   1.000  C
  C111     1.0000 0.60846  0.24727  0.58909  Biso   1.000  C
  C112     1.0000 0.24727  0.60846  0.91091  Biso   1.000  C
  C113     1.0000 0.74727  0.89154  0.91091  Biso   1.000  C
  C114     1.0000 0.10846  0.74727  0.91091  Biso   1.000  C
  C115     1.0000 0.74727  0.10846  0.58909  Biso   1.000  C
  C116     1.0000 0.25273  0.10846  0.91091  Biso   1.000  C
  C117     1.0000 0.10846  0.25273  0.58909  Biso   1.000  C
  C118     1.0000 0.89154  0.74727  0.58909  Biso   1.000  C
  C119     1.0000 0.89154  0.25273  0.91091  Biso   1.000  C
  C120     1.0000 0.25273  0.89154  0.58909  Biso   1.000  C
  C121     1.0000 0.24727  0.39154  0.41091  Biso   1.000  C
  C122     1.0000 0.60846  0.24727  0.41091  Biso   1.000  C
  C123     1.0000 0.24727  0.60846  0.08909  Biso   1.000  C
  C124     1.0000 0.75273  0.60846  0.41091  Biso   1.000  C
  C125     1.0000 0.60846  0.75273  0.08909  Biso   1.000  C
  C126     1.0000 0.39154  0.24727  0.08909  Biso   1.000  C
  C127     1.0000 0.39154  0.75273  0.41091  Biso   1.000  C
  C128     1.0000 0.75273  0.39154  0.08909  Biso   1.000  C
  H1       1.0000 0.33450  0.04420  0.08290  Biso   1.000  H
  H2       1.0000 0.95580  0.33450  0.08290  Biso   1.000  H
  H3       1.0000 0.33450  0.95580  0.41710  Biso   1.000  H
  H4       1.0000 0.66550  0.95580  0.08290  Biso   1.000  H
  H5       1.0000 0.95580  0.66550  0.41710  Biso   1.000  H
  H6       1.0000 0.04420  0.33450  0.41710  Biso   1.000  H
  H7       1.0000 0.04420  0.66550  0.08290  Biso   1.000  H
  H8       1.0000 0.66550  0.04420  0.41710  Biso   1.000  H
  H9       1.0000 0.83450  0.54420  0.58290  Biso   1.000  H
  H10      1.0000 0.45580  0.83450  0.58290  Biso   1.000  H
  H11      1.0000 0.83450  0.45580  0.91710  Biso   1.000  H
  H12      1.0000 0.16550  0.45580  0.58290  Biso   1.000  H
  H13      1.0000 0.45580  0.16550  0.91710  Biso   1.000  H
  H14      1.0000 0.54420  0.83450  0.91710  Biso   1.000  H
  H15      1.0000 0.54420  0.16550  0.58290  Biso   1.000  H
  H16      1.0000 0.16550  0.54420  0.91710  Biso   1.000  H
  H17      1.0000 0.66550  0.95580  0.91710  Biso   1.000  H
  H18      1.0000 0.04420  0.66550  0.91710  Biso   1.000  H
  H19      1.0000 0.66550  0.04420  0.58290  Biso   1.000  H
  H20      1.0000 0.33450  0.04420  0.91710  Biso   1.000  H
  H21      1.0000 0.04420  0.33450  0.58290  Biso   1.000  H
  H22      1.0000 0.95580  0.66550  0.58290  Biso   1.000  H
  H23      1.0000 0.95580  0.33450  0.91710  Biso   1.000  H
  H24      1.0000 0.33450  0.95580  0.58290  Biso   1.000  H
  H25      1.0000 0.16550  0.45580  0.41710  Biso   1.000  H
  H26      1.0000 0.54420  0.16550  0.41710  Biso   1.000  H
  H27      1.0000 0.16550  0.54420  0.08290  Biso   1.000  H
  H28      1.0000 0.83450  0.54420  0.41710  Biso   1.000  H
  H29      1.0000 0.54420  0.83450  0.08290  Biso   1.000  H
  H30      1.0000 0.45580  0.16550  0.08290  Biso   1.000  H
  H31      1.0000 0.45580  0.83450  0.41710  Biso   1.000  H
  H32      1.0000 0.83450  0.45580  0.08290  Biso   1.000  H
  C129     1.0000 0.28864  0.03770  0.12113  Biso   1.000  C
  C130     1.0000 0.96230  0.28864  0.12113  Biso   1.000  C
  C131     1.0000 0.28864  0.96230  0.37887  Biso   1.000  C
  C132     1.0000 0.71136  0.96230  0.12113  Biso   1.000  C
  C133     1.0000 0.96230  0.71136  0.37887  Biso   1.000  C
  C134     1.0000 0.03770  0.28864  0.37887  Biso   1.000  C
  C135     1.0000 0.03770  0.71136  0.12113  Biso   1.000  C
  C136     1.0000 0.71136  0.03770  0.37887  Biso   1.000  C
  C137     1.0000 0.78864  0.53770  0.62113  Biso   1.000  C
  C138     1.0000 0.46230  0.78864  0.62113  Biso   1.000  C
  C139     1.0000 0.78864  0.46230  0.87887  Biso   1.000  C
  C140     1.0000 0.21136  0.46230  0.62113  Biso   1.000  C
  C141     1.0000 0.46230  0.21136  0.87887  Biso   1.000  C
  C142     1.0000 0.53770  0.78864  0.87887  Biso   1.000  C
  C143     1.0000 0.53770  0.21136  0.62113  Biso   1.000  C
  C144     1.0000 0.21136  0.53770  0.87887  Biso   1.000  C
  C145     1.0000 0.71136  0.96230  0.87887  Biso   1.000  C
  C146     1.0000 0.03770  0.71136  0.87887  Biso   1.000  C
  C147     1.0000 0.71136  0.03770  0.62113  Biso   1.000  C
  C148     1.0000 0.28864  0.03770  0.87887  Biso   1.000  C
  C149     1.0000 0.03770  0.28864  0.62113  Biso   1.000  C
  C150     1.0000 0.96230  0.71136  0.62113  Biso   1.000  C
  C151     1.0000 0.96230  0.28864  0.87887  Biso   1.000  C
  C152     1.0000 0.28864  0.96230  0.62113  Biso   1.000  C
  C153     1.0000 0.21136  0.46230  0.37887  Biso   1.000  C
  C154     1.0000 0.53770  0.21136  0.37887  Biso   1.000  C
  C155     1.0000 0.21136  0.53770  0.12113  Biso   1.000  C
  C156     1.0000 0.78864  0.53770  0.37887  Biso   1.000  C
  C157     1.0000 0.53770  0.78864  0.12113  Biso   1.000  C
  C158     1.0000 0.46230  0.21136  0.12113  Biso   1.000  C
  C159     1.0000 0.46230  0.78864  0.37887  Biso   1.000  C
  C160     1.0000 0.78864  0.46230  0.12113  Biso   1.000  C
  H33      1.0000 0.24060  0.13200  0.07830  Biso   1.000  H
  H34      1.0000 0.86800  0.24060  0.07830  Biso   1.000  H
  H35      1.0000 0.24060  0.86800  0.42170  Biso   1.000  H
  H36      1.0000 0.75940  0.86800  0.07830  Biso   1.000  H
  H37      1.0000 0.86800  0.75940  0.42170  Biso   1.000  H
  H38      1.0000 0.13200  0.24060  0.42170  Biso   1.000  H
  H39      1.0000 0.13200  0.75940  0.07830  Biso   1.000  H
  H40      1.0000 0.75940  0.13200  0.42170  Biso   1.000  H
  H41      1.0000 0.74060  0.63200  0.57830  Biso   1.000  H
  H42      1.0000 0.36800  0.74060  0.57830  Biso   1.000  H
  H43      1.0000 0.74060  0.36800  0.92170  Biso   1.000  H
  H44      1.0000 0.25940  0.36800  0.57830  Biso   1.000  H
  H45      1.0000 0.36800  0.25940  0.92170  Biso   1.000  H
  H46      1.0000 0.63200  0.74060  0.92170  Biso   1.000  H
  H47      1.0000 0.63200  0.25940  0.57830  Biso   1.000  H
  H48      1.0000 0.25940  0.63200  0.92170  Biso   1.000  H
  H49      1.0000 0.75940  0.86800  0.92170  Biso   1.000  H
  H50      1.0000 0.13200  0.75940  0.92170  Biso   1.000  H
  H51      1.0000 0.75940  0.13200  0.57830  Biso   1.000  H
  H52      1.0000 0.24060  0.13200  0.92170  Biso   1.000  H
  H53      1.0000 0.13200  0.24060  0.57830  Biso   1.000  H
  H54      1.0000 0.86800  0.75940  0.57830  Biso   1.000  H
  H55      1.0000 0.86800  0.24060  0.92170  Biso   1.000  H
  H56      1.0000 0.24060  0.86800  0.57830  Biso   1.000  H
  H57      1.0000 0.25940  0.36800  0.42170  Biso   1.000  H
  H58      1.0000 0.63200  0.25940  0.42170  Biso   1.000  H
  H59      1.0000 0.25940  0.63200  0.07830  Biso   1.000  H
  H60      1.0000 0.74060  0.63200  0.42170  Biso   1.000  H
  H61      1.0000 0.63200  0.74060  0.07830  Biso   1.000  H
  H62      1.0000 0.36800  0.25940  0.07830  Biso   1.000  H
  H63      1.0000 0.36800  0.74060  0.42170  Biso   1.000  H
  H64      1.0000 0.74060  0.36800  0.07830  Biso   1.000  H
  C161     1.0000 0.23377  0.09021  0.11902  Biso   1.000  C
  C162     1.0000 0.90979  0.23377  0.11902  Biso   1.000  C
  C163     1.0000 0.23377  0.90979  0.38098  Biso   1.000  C
  C164     1.0000 0.76623  0.90979  0.11902  Biso   1.000  C
  C165     1.0000 0.90979  0.76623  0.38098  Biso   1.000  C
  C166     1.0000 0.09021  0.23377  0.38098  Biso   1.000  C
  C167     1.0000 0.09021  0.76623  0.11902  Biso   1.000  C
  C168     1.0000 0.76623  0.09021  0.38098  Biso   1.000  C
  C169     1.0000 0.73377  0.59021  0.61902  Biso   1.000  C
  C170     1.0000 0.40979  0.73377  0.61902  Biso   1.000  C
  C171     1.0000 0.73377  0.40979  0.88098  Biso   1.000  C
  C172     1.0000 0.26623  0.40979  0.61902  Biso   1.000  C
  C173     1.0000 0.40979  0.26623  0.88098  Biso   1.000  C
  C174     1.0000 0.59021  0.73377  0.88098  Biso   1.000  C
  C175     1.0000 0.59021  0.26623  0.61902  Biso   1.000  C
  C176     1.0000 0.26623  0.59021  0.88098  Biso   1.000  C
  C177     1.0000 0.76623  0.90979  0.88098  Biso   1.000  C
  C178     1.0000 0.09021  0.76623  0.88098  Biso   1.000  C
  C179     1.0000 0.76623  0.09021  0.61902  Biso   1.000  C
  C180     1.0000 0.23377  0.09021  0.88098  Biso   1.000  C
  C181     1.0000 0.09021  0.23377  0.61902  Biso   1.000  C
  C182     1.0000 0.90979  0.76623  0.61902  Biso   1.000  C
  C183     1.0000 0.90979  0.23377  0.88098  Biso   1.000  C
  C184     1.0000 0.23377  0.90979  0.61902  Biso   1.000  C
  C185     1.0000 0.26623  0.40979  0.38098  Biso   1.000  C
  C186     1.0000 0.59021  0.26623  0.38098  Biso   1.000  C
  C187     1.0000 0.26623  0.59021  0.11902  Biso   1.000  C
  C188     1.0000 0.73377  0.59021  0.38098  Biso   1.000  C
  C189     1.0000 0.59021  0.73377  0.11902  Biso   1.000  C
  C190     1.0000 0.40979  0.26623  0.11902  Biso   1.000  C
  C191     1.0000 0.40979  0.73377  0.38098  Biso   1.000  C
  C192     1.0000 0.73377  0.40979  0.11902  Biso   1.000  C
  H65      1.0000 0.30000  0.01350  0.13140  Biso   1.000  H
  H66      1.0000 0.98650  0.30000  0.13140  Biso   1.000  H
  H67      1.0000 0.30000  0.98650  0.36860  Biso   1.000  H
  H68      1.0000 0.70000  0.98650  0.13140  Biso   1.000  H
  H69      1.0000 0.98650  0.70000  0.36860  Biso   1.000  H
  H70      1.0000 0.01350  0.30000  0.36860  Biso   1.000  H
  H71      1.0000 0.01350  0.70000  0.13140  Biso   1.000  H
  H72      1.0000 0.70000  0.01350  0.36860  Biso   1.000  H
  H73      1.0000 0.80000  0.51350  0.63140  Biso   1.000  H
  H74      1.0000 0.48650  0.80000  0.63140  Biso   1.000  H
  H75      1.0000 0.80000  0.48650  0.86860  Biso   1.000  H
  H76      1.0000 0.20000  0.48650  0.63140  Biso   1.000  H
  H77      1.0000 0.48650  0.20000  0.86860  Biso   1.000  H
  H78      1.0000 0.51350  0.80000  0.86860  Biso   1.000  H
  H79      1.0000 0.51350  0.20000  0.63140  Biso   1.000  H
  H80      1.0000 0.20000  0.51350  0.86860  Biso   1.000  H
  H81      1.0000 0.70000  0.98650  0.86860  Biso   1.000  H
  H82      1.0000 0.01350  0.70000  0.86860  Biso   1.000  H
  H83      1.0000 0.70000  0.01350  0.63140  Biso   1.000  H
  H84      1.0000 0.30000  0.01350  0.86860  Biso   1.000  H
  H85      1.0000 0.01350  0.30000  0.63140  Biso   1.000  H
  H86      1.0000 0.98650  0.70000  0.63140  Biso   1.000  H
  H87      1.0000 0.98650  0.30000  0.86860  Biso   1.000  H
  H88      1.0000 0.30000  0.98650  0.63140  Biso   1.000  H
  H89      1.0000 0.20000  0.48650  0.36860  Biso   1.000  H
  H90      1.0000 0.51350  0.20000  0.36860  Biso   1.000  H
  H91      1.0000 0.20000  0.51350  0.13140  Biso   1.000  H
  H92      1.0000 0.80000  0.51350  0.36860  Biso   1.000  H
  H93      1.0000 0.51350  0.80000  0.13140  Biso   1.000  H
  H94      1.0000 0.48650  0.20000  0.13140  Biso   1.000  H
  H95      1.0000 0.48650  0.80000  0.36860  Biso   1.000  H
  H96      1.0000 0.80000  0.48650  0.13140  Biso   1.000  H
  C193     1.0000 0.25196  0.05617  0.13458  Biso   1.000  C
  C194     1.0000 0.94383  0.25196  0.13458  Biso   1.000  C
  C195     1.0000 0.25196  0.94383  0.36542  Biso   1.000  C
  C196     1.0000 0.74804  0.94383  0.13458  Biso   1.000  C
  C197     1.0000 0.94383  0.74804  0.36542  Biso   1.000  C
  C198     1.0000 0.05617  0.25196  0.36542  Biso   1.000  C
  C199     1.0000 0.05617  0.74804  0.13458  Biso   1.000  C
  C200     1.0000 0.74804  0.05617  0.36542  Biso   1.000  C
  C201     1.0000 0.75196  0.55617  0.63458  Biso   1.000  C
  C202     1.0000 0.44383  0.75196  0.63458  Biso   1.000  C
  C203     1.0000 0.75196  0.44383  0.86542  Biso   1.000  C
  C204     1.0000 0.24804  0.44383  0.63458  Biso   1.000  C
  C205     1.0000 0.44383  0.24804  0.86542  Biso   1.000  C
  C206     1.0000 0.55617  0.75196  0.86542  Biso   1.000  C
  C207     1.0000 0.55617  0.24804  0.63458  Biso   1.000  C
  C208     1.0000 0.24804  0.55617  0.86542  Biso   1.000  C
  C209     1.0000 0.74804  0.94383  0.86542  Biso   1.000  C
  C210     1.0000 0.05617  0.74804  0.86542  Biso   1.000  C
  C211     1.0000 0.74804  0.05617  0.63458  Biso   1.000  C
  C212     1.0000 0.25196  0.05617  0.86542  Biso   1.000  C
  C213     1.0000 0.05617  0.25196  0.63458  Biso   1.000  C
  C214     1.0000 0.94383  0.74804  0.63458  Biso   1.000  C
  C215     1.0000 0.94383  0.25196  0.86542  Biso   1.000  C
  C216     1.0000 0.25196  0.94383  0.63458  Biso   1.000  C
  C217     1.0000 0.24804  0.44383  0.36542  Biso   1.000  C
  C218     1.0000 0.55617  0.24804  0.36542  Biso   1.000  C
  C219     1.0000 0.24804  0.55617  0.13458  Biso   1.000  C
  C220     1.0000 0.75196  0.55617  0.36542  Biso   1.000  C
  C221     1.0000 0.55617  0.75196  0.13458  Biso   1.000  C
  C222     1.0000 0.44383  0.24804  0.13458  Biso   1.000  C
  C223     1.0000 0.44383  0.75196  0.36542  Biso   1.000  C
  C224     1.0000 0.75196  0.44383  0.13458  Biso   1.000  C
  H97      1.0000 0.20880  0.10180  0.12780  Biso   1.000  H
  H98      1.0000 0.89820  0.20880  0.12780  Biso   1.000  H
  H99      1.0000 0.20880  0.89820  0.37220  Biso   1.000  H
  H100     1.0000 0.79120  0.89820  0.12780  Biso   1.000  H
  H101     1.0000 0.89820  0.79120  0.37220  Biso   1.000  H
  H102     1.0000 0.10180  0.20880  0.37220  Biso   1.000  H
  H103     1.0000 0.10180  0.79120  0.12780  Biso   1.000  H
  H104     1.0000 0.79120  0.10180  0.37220  Biso   1.000  H
  H105     1.0000 0.70880  0.60180  0.62780  Biso   1.000  H
  H106     1.0000 0.39820  0.70880  0.62780  Biso   1.000  H
  H107     1.0000 0.70880  0.39820  0.87220  Biso   1.000  H
  H108     1.0000 0.29120  0.39820  0.62780  Biso   1.000  H
  H109     1.0000 0.39820  0.29120  0.87220  Biso   1.000  H
  H110     1.0000 0.60180  0.70880  0.87220  Biso   1.000  H
  H111     1.0000 0.60180  0.29120  0.62780  Biso   1.000  H
  H112     1.0000 0.29120  0.60180  0.87220  Biso   1.000  H
  H113     1.0000 0.79120  0.89820  0.87220  Biso   1.000  H
  H114     1.0000 0.10180  0.79120  0.87220  Biso   1.000  H
  H115     1.0000 0.79120  0.10180  0.62780  Biso   1.000  H
  H116     1.0000 0.20880  0.10180  0.87220  Biso   1.000  H
  H117     1.0000 0.10180  0.20880  0.62780  Biso   1.000  H
  H118     1.0000 0.89820  0.79120  0.62780  Biso   1.000  H
  H119     1.0000 0.89820  0.20880  0.87220  Biso   1.000  H
  H120     1.0000 0.20880  0.89820  0.62780  Biso   1.000  H
  H121     1.0000 0.29120  0.39820  0.37220  Biso   1.000  H
  H122     1.0000 0.60180  0.29120  0.37220  Biso   1.000  H
  H123     1.0000 0.29120  0.60180  0.12780  Biso   1.000  H
  H124     1.0000 0.70880  0.60180  0.37220  Biso   1.000  H
  H125     1.0000 0.60180  0.70880  0.12780  Biso   1.000  H
  H126     1.0000 0.39820  0.29120  0.12780  Biso   1.000  H
  H127     1.0000 0.39820  0.70880  0.37220  Biso   1.000  H
  H128     1.0000 0.70880  0.39820  0.12780  Biso   1.000  H
  C225     1.0000 0.23235  0.03820  0.16526  Biso   1.000  C
  C226     1.0000 0.96180  0.23235  0.16526  Biso   1.000  C
  C227     1.0000 0.23235  0.96180  0.33474  Biso   1.000  C
  C228     1.0000 0.76765  0.96180  0.16526  Biso   1.000  C
  C229     1.0000 0.96180  0.76765  0.33474  Biso   1.000  C
  C230     1.0000 0.03820  0.23235  0.33474  Biso   1.000  C
  C231     1.0000 0.03820  0.76765  0.16526  Biso   1.000  C
  C232     1.0000 0.76765  0.03820  0.33474  Biso   1.000  C
  C233     1.0000 0.73235  0.53820  0.66526  Biso   1.000  C
  C234     1.0000 0.46180  0.73235  0.66526  Biso   1.000  C
  C235     1.0000 0.73235  0.46180  0.83474  Biso   1.000  C
  C236     1.0000 0.26765  0.46180  0.66526  Biso   1.000  C
  C237     1.0000 0.46180  0.26765  0.83474  Biso   1.000  C
  C238     1.0000 0.53820  0.73235  0.83474  Biso   1.000  C
  C239     1.0000 0.53820  0.26765  0.66526  Biso   1.000  C
  C240     1.0000 0.26765  0.53820  0.83474  Biso   1.000  C
  C241     1.0000 0.76765  0.96180  0.83474  Biso   1.000  C
  C242     1.0000 0.03820  0.76765  0.83474  Biso   1.000  C
  C243     1.0000 0.76765  0.03820  0.66526  Biso   1.000  C
  C244     1.0000 0.23235  0.03820  0.83474  Biso   1.000  C
  C245     1.0000 0.03820  0.23235  0.66526  Biso   1.000  C
  C246     1.0000 0.96180  0.76765  0.66526  Biso   1.000  C
  C247     1.0000 0.96180  0.23235  0.83474  Biso   1.000  C
  C248     1.0000 0.23235  0.96180  0.66526  Biso   1.000  C
  C249     1.0000 0.26765  0.46180  0.33474  Biso   1.000  C
  C250     1.0000 0.53820  0.26765  0.33474  Biso   1.000  C
  C251     1.0000 0.26765  0.53820  0.16526  Biso   1.000  C
  C252     1.0000 0.73235  0.53820  0.33474  Biso   1.000  C
  C253     1.0000 0.53820  0.73235  0.16526  Biso   1.000  C
  C254     1.0000 0.46180  0.26765  0.16526  Biso   1.000  C
  C255     1.0000 0.46180  0.73235  0.33474  Biso   1.000  C
  C256     1.0000 0.73235  0.46180  0.16526  Biso   1.000  C
  C257     1.0000 0.21617  0.02580  0.19025  Biso   1.000  C
  C258     1.0000 0.97420  0.21617  0.19025  Biso   1.000  C
  C259     1.0000 0.21617  0.97420  0.30975  Biso   1.000  C
  C260     1.0000 0.78383  0.97420  0.19025  Biso   1.000  C
  C261     1.0000 0.97420  0.78383  0.30975  Biso   1.000  C
  C262     1.0000 0.02580  0.21617  0.30975  Biso   1.000  C
  C263     1.0000 0.02580  0.78383  0.19025  Biso   1.000  C
  C264     1.0000 0.78383  0.02580  0.30975  Biso   1.000  C
  C265     1.0000 0.71617  0.52580  0.69025  Biso   1.000  C
  C266     1.0000 0.47420  0.71617  0.69025  Biso   1.000  C
  C267     1.0000 0.71617  0.47420  0.80975  Biso   1.000  C
  C268     1.0000 0.28383  0.47420  0.69025  Biso   1.000  C
  C269     1.0000 0.47420  0.28383  0.80975  Biso   1.000  C
  C270     1.0000 0.52580  0.71617  0.80975  Biso   1.000  C
  C271     1.0000 0.52580  0.28383  0.69025  Biso   1.000  C
  C272     1.0000 0.28383  0.52580  0.80975  Biso   1.000  C
  C273     1.0000 0.78383  0.97420  0.80975  Biso   1.000  C
  C274     1.0000 0.02580  0.78383  0.80975  Biso   1.000  C
  C275     1.0000 0.78383  0.02580  0.69025  Biso   1.000  C
  C276     1.0000 0.21617  0.02580  0.80975  Biso   1.000  C
  C277     1.0000 0.02580  0.21617  0.69025  Biso   1.000  C
  C278     1.0000 0.97420  0.78383  0.69025  Biso   1.000  C
  C279     1.0000 0.97420  0.21617  0.80975  Biso   1.000  C
  C280     1.0000 0.21617  0.97420  0.69025  Biso   1.000  C
  C281     1.0000 0.28383  0.47420  0.30975  Biso   1.000  C
  C282     1.0000 0.52580  0.28383  0.30975  Biso   1.000  C
  C283     1.0000 0.28383  0.52580  0.19025  Biso   1.000  C
  C284     1.0000 0.71617  0.52580  0.30975  Biso   1.000  C
  C285     1.0000 0.52580  0.71617  0.19025  Biso   1.000  C
  C286     1.0000 0.47420  0.28383  0.19025  Biso   1.000  C
  C287     1.0000 0.47420  0.71617  0.30975  Biso   1.000  C
  C288     1.0000 0.71617  0.47420  0.19025  Biso   1.000  C
  C289     1.0000 0.19325  0.01131  0.22068  Biso   1.000  C
  C290     1.0000 0.98869  0.19325  0.22068  Biso   1.000  C
  C291     1.0000 0.19325  0.98869  0.27932  Biso   1.000  C
  C292     1.0000 0.80675  0.98869  0.22068  Biso   1.000  C
  C293     1.0000 0.98869  0.80675  0.27932  Biso   1.000  C
  C294     1.0000 0.01131  0.19325  0.27932  Biso   1.000  C
  C295     1.0000 0.01131  0.80675  0.22068  Biso   1.000  C
  C296     1.0000 0.80675  0.01131  0.27932  Biso   1.000  C
  C297     1.0000 0.69325  0.51131  0.72068  Biso   1.000  C
  C298     1.0000 0.48869  0.69325  0.72068  Biso   1.000  C
  C299     1.0000 0.69325  0.48869  0.77932  Biso   1.000  C
  C300     1.0000 0.30675  0.48869  0.72068  Biso   1.000  C
  C301     1.0000 0.48869  0.30675  0.77932  Biso   1.000  C
  C302     1.0000 0.51131  0.69325  0.77932  Biso   1.000  C
  C303     1.0000 0.51131  0.30675  0.72068  Biso   1.000  C
  C304     1.0000 0.30675  0.51131  0.77932  Biso   1.000  C
  C305     1.0000 0.80675  0.98869  0.77932  Biso   1.000  C
  C306     1.0000 0.01131  0.80675  0.77932  Biso   1.000  C
  C307     1.0000 0.80675  0.01131  0.72068  Biso   1.000  C
  C308     1.0000 0.19325  0.01131  0.77932  Biso   1.000  C
  C309     1.0000 0.01131  0.19325  0.72068  Biso   1.000  C
  C310     1.0000 0.98869  0.80675  0.72068  Biso   1.000  C
  C311     1.0000 0.98869  0.19325  0.77932  Biso   1.000  C
  C312     1.0000 0.19325  0.98869  0.72068  Biso   1.000  C
  C313     1.0000 0.30675  0.48869  0.27932  Biso   1.000  C
  C314     1.0000 0.51131  0.30675  0.27932  Biso   1.000  C
  C315     1.0000 0.30675  0.51131  0.22068  Biso   1.000  C
  C316     1.0000 0.69325  0.51131  0.27932  Biso   1.000  C
  C317     1.0000 0.51131  0.69325  0.22068  Biso   1.000  C
  C318     1.0000 0.48869  0.30675  0.22068  Biso   1.000  C
  C319     1.0000 0.48869  0.69325  0.27932  Biso   1.000  C
  C320     1.0000 0.69325  0.48869  0.22068  Biso   1.000  C
  C321     1.0000 0.15009  0.01261  0.22064  Biso   1.000  C
  C322     1.0000 0.98739  0.15009  0.22064  Biso   1.000  C
  C323     1.0000 0.15009  0.98739  0.27936  Biso   1.000  C
  C324     1.0000 0.84991  0.98739  0.22064  Biso   1.000  C
  C325     1.0000 0.98739  0.84991  0.27936  Biso   1.000  C
  C326     1.0000 0.01261  0.15009  0.27936  Biso   1.000  C
  C327     1.0000 0.01261  0.84991  0.22064  Biso   1.000  C
  C328     1.0000 0.84991  0.01261  0.27936  Biso   1.000  C
  C329     1.0000 0.65009  0.51261  0.72064  Biso   1.000  C
  C330     1.0000 0.48739  0.65009  0.72064  Biso   1.000  C
  C331     1.0000 0.65009  0.48739  0.77936  Biso   1.000  C
  C332     1.0000 0.34991  0.48739  0.72064  Biso   1.000  C
  C333     1.0000 0.48739  0.34991  0.77936  Biso   1.000  C
  C334     1.0000 0.51261  0.65009  0.77936  Biso   1.000  C
  C335     1.0000 0.51261  0.34991  0.72064  Biso   1.000  C
  C336     1.0000 0.34991  0.51261  0.77936  Biso   1.000  C
  C337     1.0000 0.84991  0.98739  0.77936  Biso   1.000  C
  C338     1.0000 0.01261  0.84991  0.77936  Biso   1.000  C
  C339     1.0000 0.84991  0.01261  0.72064  Biso   1.000  C
  C340     1.0000 0.15009  0.01261  0.77936  Biso   1.000  C
  C341     1.0000 0.01261  0.15009  0.72064  Biso   1.000  C
  C342     1.0000 0.98739  0.84991  0.72064  Biso   1.000  C
  C343     1.0000 0.98739  0.15009  0.77936  Biso   1.000  C
  C344     1.0000 0.15009  0.98739  0.72064  Biso   1.000  C
  C345     1.0000 0.34991  0.48739  0.27936  Biso   1.000  C
  C346     1.0000 0.51261  0.34991  0.27936  Biso   1.000  C
  C347     1.0000 0.34991  0.51261  0.22064  Biso   1.000  C
  C348     1.0000 0.65009  0.51261  0.27936  Biso   1.000  C
  C349     1.0000 0.51261  0.65009  0.22064  Biso   1.000  C
  C350     1.0000 0.48739  0.34991  0.22064  Biso   1.000  C
  C351     1.0000 0.48739  0.65009  0.27936  Biso   1.000  C
  C352     1.0000 0.65009  0.48739  0.22064  Biso   1.000  C
  C353     1.0000 0.21760  0.00000  0.25000  Biso   1.000  C
  C354     1.0000 0.00000  0.21760  0.25000  Biso   1.000  C
  C355     1.0000 0.78240  0.00000  0.25000  Biso   1.000  C
  C356     1.0000 0.00000  0.78240  0.25000  Biso   1.000  C
  C357     1.0000 0.71760  0.50000  0.75000  Biso   1.000  C
  C358     1.0000 0.50000  0.71760  0.75000  Biso   1.000  C
  C359     1.0000 0.28240  0.50000  0.75000  Biso   1.000  C
  C360     1.0000 0.50000  0.28240  0.75000  Biso   1.000  C
  C361     1.0000 0.78240  0.00000  0.75000  Biso   1.000  C
  C362     1.0000 0.00000  0.78240  0.75000  Biso   1.000  C
  C363     1.0000 0.21760  0.00000  0.75000  Biso   1.000  C
  C364     1.0000 0.00000  0.21760  0.75000  Biso   1.000  C
  C365     1.0000 0.28240  0.50000  0.25000  Biso   1.000  C
  C366     1.0000 0.50000  0.28240  0.25000  Biso   1.000  C
  C367     1.0000 0.71760  0.50000  0.25000  Biso   1.000  C
  C368     1.0000 0.50000  0.71760  0.25000  Biso   1.000  C
  C369     1.0000 0.12764  0.00000  0.25000  Biso   1.000  C
  C370     1.0000 0.00000  0.12764  0.25000  Biso   1.000  C
  C371     1.0000 0.87236  0.00000  0.25000  Biso   1.000  C
  C372     1.0000 0.00000  0.87236  0.25000  Biso   1.000  C
  C373     1.0000 0.62764  0.50000  0.75000  Biso   1.000  C
  C374     1.0000 0.50000  0.62764  0.75000  Biso   1.000  C
  C375     1.0000 0.37236  0.50000  0.75000  Biso   1.000  C
  C376     1.0000 0.50000  0.37236  0.75000  Biso   1.000  C
  C377     1.0000 0.87236  0.00000  0.75000  Biso   1.000  C
  C378     1.0000 0.00000  0.87236  0.75000  Biso   1.000  C
  C379     1.0000 0.12764  0.00000  0.75000  Biso   1.000  C
  C380     1.0000 0.00000  0.12764  0.75000  Biso   1.000  C
  C381     1.0000 0.37236  0.50000  0.25000  Biso   1.000  C
  C382     1.0000 0.50000  0.37236  0.25000  Biso   1.000  C
  C383     1.0000 0.62764  0.50000  0.25000  Biso   1.000  C
  C384     1.0000 0.50000  0.62764  0.25000  Biso   1.000  C
  H129     1.0000 0.13540  0.02180  0.20130  Biso   1.000  H
  H130     1.0000 0.97820  0.13540  0.20130  Biso   1.000  H
  H131     1.0000 0.13540  0.97820  0.29870  Biso   1.000  H
  H132     1.0000 0.86460  0.97820  0.20130  Biso   1.000  H
  H133     1.0000 0.97820  0.86460  0.29870  Biso   1.000  H
  H134     1.0000 0.02180  0.13540  0.29870  Biso   1.000  H
  H135     1.0000 0.02180  0.86460  0.20130  Biso   1.000  H
  H136     1.0000 0.86460  0.02180  0.29870  Biso   1.000  H
  H137     1.0000 0.63540  0.52180  0.70130  Biso   1.000  H
  H138     1.0000 0.47820  0.63540  0.70130  Biso   1.000  H
  H139     1.0000 0.63540  0.47820  0.79870  Biso   1.000  H
  H140     1.0000 0.36460  0.47820  0.70130  Biso   1.000  H
  H141     1.0000 0.47820  0.36460  0.79870  Biso   1.000  H
  H142     1.0000 0.52180  0.63540  0.79870  Biso   1.000  H
  H143     1.0000 0.52180  0.36460  0.70130  Biso   1.000  H
  H144     1.0000 0.36460  0.52180  0.79870  Biso   1.000  H
  H145     1.0000 0.86460  0.97820  0.79870  Biso   1.000  H
  H146     1.0000 0.02180  0.86460  0.79870  Biso   1.000  H
  H147     1.0000 0.86460  0.02180  0.70130  Biso   1.000  H
  H148     1.0000 0.13540  0.02180  0.79870  Biso   1.000  H
  H149     1.0000 0.02180  0.13540  0.70130  Biso   1.000  H
  H150     1.0000 0.97820  0.86460  0.70130  Biso   1.000  H
  H151     1.0000 0.97820  0.13540  0.79870  Biso   1.000  H
  H152     1.0000 0.13540  0.97820  0.70130  Biso   1.000  H
  H153     1.0000 0.36460  0.47820  0.29870  Biso   1.000  H
  H154     1.0000 0.52180  0.36460  0.29870  Biso   1.000  H
  H155     1.0000 0.36460  0.52180  0.20130  Biso   1.000  H
  H156     1.0000 0.63540  0.52180  0.29870  Biso   1.000  H
  H157     1.0000 0.52180  0.63540  0.20130  Biso   1.000  H
  H158     1.0000 0.47820  0.36460  0.20130  Biso   1.000  H
  H159     1.0000 0.47820  0.63540  0.29870  Biso   1.000  H
  H160     1.0000 0.63540  0.47820  0.20130  Biso   1.000  H
  H161     1.0000 0.24730  0.00000  0.25000  Biso   1.000  H
  H162     1.0000 0.00000  0.24730  0.25000  Biso   1.000  H
  H163     1.0000 0.75270  0.00000  0.25000  Biso   1.000  H
  H164     1.0000 0.00000  0.75270  0.25000  Biso   1.000  H
  H165     1.0000 0.74730  0.50000  0.75000  Biso   1.000  H
  H166     1.0000 0.50000  0.74730  0.75000  Biso   1.000  H
  H167     1.0000 0.25270  0.50000  0.75000  Biso   1.000  H
  H168     1.0000 0.50000  0.25270  0.75000  Biso   1.000  H
  H169     1.0000 0.75270  0.00000  0.75000  Biso   1.000  H
  H170     1.0000 0.00000  0.75270  0.75000  Biso   1.000  H
  H171     1.0000 0.24730  0.00000  0.75000  Biso   1.000  H
  H172     1.0000 0.00000  0.24730  0.75000  Biso   1.000  H
  H173     1.0000 0.25270  0.50000  0.25000  Biso   1.000  H
  H174     1.0000 0.50000  0.25270  0.25000  Biso   1.000  H
  H175     1.0000 0.74730  0.50000  0.25000  Biso   1.000  H
  H176     1.0000 0.50000  0.74730  0.25000  Biso   1.000  H
  C385     1.0000 0.08120  0.00000  0.25000  Biso   1.000  C
  C386     1.0000 0.00000  0.08120  0.25000  Biso   1.000  C
  C387     1.0000 0.91880  0.00000  0.25000  Biso   1.000  C
  C388     1.0000 0.00000  0.91880  0.25000  Biso   1.000  C
  C389     1.0000 0.58120  0.50000  0.75000  Biso   1.000  C
  C390     1.0000 0.50000  0.58120  0.75000  Biso   1.000  C
  C391     1.0000 0.41880  0.50000  0.75000  Biso   1.000  C
  C392     1.0000 0.50000  0.41880  0.75000  Biso   1.000  C
  C393     1.0000 0.91880  0.00000  0.75000  Biso   1.000  C
  C394     1.0000 0.00000  0.91880  0.75000  Biso   1.000  C
  C395     1.0000 0.08120  0.00000  0.75000  Biso   1.000  C
  C396     1.0000 0.00000  0.08120  0.75000  Biso   1.000  C
  C397     1.0000 0.41880  0.50000  0.25000  Biso   1.000  C
  C398     1.0000 0.50000  0.41880  0.25000  Biso   1.000  C
  C399     1.0000 0.58120  0.50000  0.25000  Biso   1.000  C
  C400     1.0000 0.50000  0.58120  0.25000  Biso   1.000  C
  O81      1.0000 0.06188  0.00686  0.22200  Biso   1.000  O
  O82      1.0000 0.99314  0.06188  0.22200  Biso   1.000  O
  O83      1.0000 0.06188  0.99314  0.27800  Biso   1.000  O
  O84      1.0000 0.93812  0.99314  0.22200  Biso   1.000  O
  O85      1.0000 0.99314  0.93812  0.27800  Biso   1.000  O
  O86      1.0000 0.00686  0.06188  0.27800  Biso   1.000  O
  O87      1.0000 0.00686  0.93812  0.22200  Biso   1.000  O
  O88      1.0000 0.93812  0.00686  0.27800  Biso   1.000  O
  O89      1.0000 0.56188  0.50686  0.72200  Biso   1.000  O
  O90      1.0000 0.49314  0.56188  0.72200  Biso   1.000  O
  O91      1.0000 0.56188  0.49314  0.77800  Biso   1.000  O
  O92      1.0000 0.43812  0.49314  0.72200  Biso   1.000  O
  O93      1.0000 0.49314  0.43812  0.77800  Biso   1.000  O
  O94      1.0000 0.50686  0.56188  0.77800  Biso   1.000  O
  O95      1.0000 0.50686  0.43812  0.72200  Biso   1.000  O
  O96      1.0000 0.43812  0.50686  0.77800  Biso   1.000  O
  O97      1.0000 0.93812  0.99314  0.77800  Biso   1.000  O
  O98      1.0000 0.00686  0.93812  0.77800  Biso   1.000  O
  O99      1.0000 0.93812  0.00686  0.72200  Biso   1.000  O
  O100     1.0000 0.06188  0.00686  0.77800  Biso   1.000  O
  O101     1.0000 0.00686  0.06188  0.72200  Biso   1.000  O
  O102     1.0000 0.99314  0.93812  0.72200  Biso   1.000  O
  O103     1.0000 0.99314  0.06188  0.77800  Biso   1.000  O
  O104     1.0000 0.06188  0.99314  0.72200  Biso   1.000  O
  O105     1.0000 0.43812  0.49314  0.27800  Biso   1.000  O
  O106     1.0000 0.50686  0.43812  0.27800  Biso   1.000  O
  O107     1.0000 0.43812  0.50686  0.22200  Biso   1.000  O
  O108     1.0000 0.56188  0.50686  0.27800  Biso   1.000  O
  O109     1.0000 0.50686  0.56188  0.22200  Biso   1.000  O
  O110     1.0000 0.49314  0.43812  0.22200  Biso   1.000  O
  O111     1.0000 0.49314  0.56188  0.27800  Biso   1.000  O
  O112     1.0000 0.56188  0.49314  0.22200  Biso   1.000  O
  Cu17     1.0000 0.00000  0.00000  0.21597  Biso   1.000  Cu
  Cu18     1.0000 0.00000  0.00000  0.28403  Biso   1.000  Cu
  Cu19     1.0000 0.50000  0.50000  0.71597  Biso   1.000  Cu
  Cu20     1.0000 0.50000  0.50000  0.78403  Biso   1.000  Cu
  Cu21     1.0000 0.00000  0.00000  0.78403  Biso   1.000  Cu
  Cu22     1.0000 0.00000  0.00000  0.71597  Biso   1.000  Cu
  Cu23     1.0000 0.50000  0.50000  0.28403  Biso   1.000  Cu
  Cu24     1.0000 0.50000  0.50000  0.21597  Biso   1.000  Cu
  O113     1.0000 0.00000  0.00000  0.16086  Biso   1.000  O
  O114     1.0000 0.00000  0.00000  0.33914  Biso   1.000  O
  O115     1.0000 0.50000  0.50000  0.66086  Biso   1.000  O
  O116     1.0000 0.50000  0.50000  0.83914  Biso   1.000  O
  O117     1.0000 0.00000  0.00000  0.83914  Biso   1.000  O
  O118     1.0000 0.00000  0.00000  0.66086  Biso   1.000  O
  O119     1.0000 0.50000  0.50000  0.33914  Biso   1.000  O
  O120     1.0000 0.50000  0.50000  0.16086  Biso   1.000  O
  H177     1.0000 0.24500  0.23150  0.01520  Biso   1.000  H
  H178     1.0000 0.76850  0.24500  0.01520  Biso   1.000  H
  H179     1.0000 0.24500  0.76850  0.48480  Biso   1.000  H
  H180     1.0000 0.75500  0.76850  0.01520  Biso   1.000  H
  H181     1.0000 0.76850  0.75500  0.48480  Biso   1.000  H
  H182     1.0000 0.23150  0.24500  0.48480  Biso   1.000  H
  H183     1.0000 0.23150  0.75500  0.01520  Biso   1.000  H
  H184     1.0000 0.75500  0.23150  0.48480  Biso   1.000  H
  H185     1.0000 0.74500  0.73150  0.51520  Biso   1.000  H
  H186     1.0000 0.26850  0.74500  0.51520  Biso   1.000  H
  H187     1.0000 0.74500  0.26850  0.98480  Biso   1.000  H
  H188     1.0000 0.25500  0.26850  0.51520  Biso   1.000  H
  H189     1.0000 0.26850  0.25500  0.98480  Biso   1.000  H
  H190     1.0000 0.73150  0.74500  0.98480  Biso   1.000  H
  H191     1.0000 0.73150  0.25500  0.51520  Biso   1.000  H
  H192     1.0000 0.25500  0.73150  0.98480  Biso   1.000  H
  H193     1.0000 0.75500  0.76850  0.98480  Biso   1.000  H
  H194     1.0000 0.23150  0.75500  0.98480  Biso   1.000  H
  H195     1.0000 0.75500  0.23150  0.51520  Biso   1.000  H
  H196     1.0000 0.24500  0.23150  0.98480  Biso   1.000  H
  H197     1.0000 0.23150  0.24500  0.51520  Biso   1.000  H
  H198     1.0000 0.76850  0.75500  0.51520  Biso   1.000  H
  H199     1.0000 0.76850  0.24500  0.98480  Biso   1.000  H
  H200     1.0000 0.24500  0.76850  0.51520  Biso   1.000  H
  H201     1.0000 0.25500  0.26850  0.48480  Biso   1.000  H
  H202     1.0000 0.73150  0.25500  0.48480  Biso   1.000  H
  H203     1.0000 0.25500  0.73150  0.01520  Biso   1.000  H
  H204     1.0000 0.74500  0.73150  0.48480  Biso   1.000  H
  H205     1.0000 0.73150  0.74500  0.01520  Biso   1.000  H
  H206     1.0000 0.26850  0.25500  0.01520  Biso   1.000  H
  H207     1.0000 0.26850  0.74500  0.48480  Biso   1.000  H
  H208     1.0000 0.74500  0.26850  0.01520  Biso   1.000  H
  H209     1.0000 0.45440  0.05840  0.02340  Biso   1.000  H
  H210     1.0000 0.94160  0.45440  0.02340  Biso   1.000  H
  H211     1.0000 0.45440  0.94160  0.47660  Biso   1.000  H
  H212     1.0000 0.54560  0.94160  0.02340  Biso   1.000  H
  H213     1.0000 0.94160  0.54560  0.47660  Biso   1.000  H
  H214     1.0000 0.05840  0.45440  0.47660  Biso   1.000  H
  H215     1.0000 0.05840  0.54560  0.02340  Biso   1.000  H
  H216     1.0000 0.54560  0.05840  0.47660  Biso   1.000  H
  H217     1.0000 0.95440  0.55840  0.52340  Biso   1.000  H
  H218     1.0000 0.44160  0.95440  0.52340  Biso   1.000  H
  H219     1.0000 0.95440  0.44160  0.97660  Biso   1.000  H
  H220     1.0000 0.04560  0.44160  0.52340  Biso   1.000  H
  H221     1.0000 0.44160  0.04560  0.97660  Biso   1.000  H
  H222     1.0000 0.55840  0.95440  0.97660  Biso   1.000  H
  H223     1.0000 0.55840  0.04560  0.52340  Biso   1.000  H
  H224     1.0000 0.04560  0.55840  0.97660  Biso   1.000  H
  H225     1.0000 0.54560  0.94160  0.97660  Biso   1.000  H
  H226     1.0000 0.05840  0.54560  0.97660  Biso   1.000  H
  H227     1.0000 0.54560  0.05840  0.52340  Biso   1.000  H
  H228     1.0000 0.45440  0.05840  0.97660  Biso   1.000  H
  H229     1.0000 0.05840  0.45440  0.52340  Biso   1.000  H
  H230     1.0000 0.94160  0.54560  0.52340  Biso   1.000  H
  H231     1.0000 0.94160  0.45440  0.97660  Biso   1.000  H
  H232     1.0000 0.45440  0.94160  0.52340  Biso   1.000  H
  H233     1.0000 0.04560  0.44160  0.47660  Biso   1.000  H
  H234     1.0000 0.55840  0.04560  0.47660  Biso   1.000  H
  H235     1.0000 0.04560  0.55840  0.02340  Biso   1.000  H
  H236     1.0000 0.95440  0.55840  0.47660  Biso   1.000  H
  H237     1.0000 0.55840  0.95440  0.02340  Biso   1.000  H
  H238     1.0000 0.44160  0.04560  0.02340  Biso   1.000  H
  H239     1.0000 0.44160  0.95440  0.47660  Biso   1.000  H
  H240     1.0000 0.95440  0.44160  0.02340  Biso   1.000  H
  H241     1.0000 0.44040  0.04430  0.97700  Biso   1.000  H
  H242     1.0000 0.95570  0.44040  0.97700  Biso   1.000  H
  H243     1.0000 0.44040  0.95570  0.52300  Biso   1.000  H
  H244     1.0000 0.55960  0.95570  0.97700  Biso   1.000  H
  H245     1.0000 0.95570  0.55960  0.52300  Biso   1.000  H
  H246     1.0000 0.04430  0.44040  0.52300  Biso   1.000  H
  H247     1.0000 0.04430  0.55960  0.97700  Biso   1.000  H
  H248     1.0000 0.55960  0.04430  0.52300  Biso   1.000  H
  H249     1.0000 0.94040  0.54430  0.47700  Biso   1.000  H
  H250     1.0000 0.45570  0.94040  0.47700  Biso   1.000  H
  H251     1.0000 0.94040  0.45570  0.02300  Biso   1.000  H
  H252     1.0000 0.05960  0.45570  0.47700  Biso   1.000  H
  H253     1.0000 0.45570  0.05960  0.02300  Biso   1.000  H
  H254     1.0000 0.54430  0.94040  0.02300  Biso   1.000  H
  H255     1.0000 0.54430  0.05960  0.47700  Biso   1.000  H
  H256     1.0000 0.05960  0.54430  0.02300  Biso   1.000  H
  H257     1.0000 0.55960  0.95570  0.02300  Biso   1.000  H
  H258     1.0000 0.04430  0.55960  0.02300  Biso   1.000  H
  H259     1.0000 0.55960  0.04430  0.47700  Biso   1.000  H
  H260     1.0000 0.44040  0.04430  0.02300  Biso   1.000  H
  H261     1.0000 0.04430  0.44040  0.47700  Biso   1.000  H
  H262     1.0000 0.95570  0.55960  0.47700  Biso   1.000  H
  H263     1.0000 0.95570  0.44040  0.02300  Biso   1.000  H
  H264     1.0000 0.44040  0.95570  0.47700  Biso   1.000  H
  H265     1.0000 0.05960  0.45570  0.52300  Biso   1.000  H
  H266     1.0000 0.54430  0.05960  0.52300  Biso   1.000  H
  H267     1.0000 0.05960  0.54430  0.97700  Biso   1.000  H
  H268     1.0000 0.94040  0.54430  0.52300  Biso   1.000  H
  H269     1.0000 0.54430  0.94040  0.97700  Biso   1.000  H
  H270     1.0000 0.45570  0.05960  0.97700  Biso   1.000  H
  H271     1.0000 0.45570  0.94040  0.52300  Biso   1.000  H
  H272     1.0000 0.94040  0.45570  0.97700  Biso   1.000  H
