data_image0
_cell_length_a       12.7797
_cell_length_b       49.577
_cell_length_c       26.7601
_cell_angle_alpha    90
_cell_angle_beta     100.039
_cell_angle_gamma    90

_symmetry_space_group_name_H-M    "P 1"
_symmetry_int_tables_number       1

loop_
  _symmetry_equiv_pos_as_xyz
  'x, y, z'

loop_
  _atom_site_label
  _atom_site_occupancy
  _atom_site_fract_x
  _atom_site_fract_y
  _atom_site_fract_z
  _atom_site_thermal_displace_type
  _atom_site_B_iso_or_equiv
  _atom_site_type_symbol
  Cu1      1.0000 0.56185  0.48798  0.53806  Biso   1.000  Cu
  Cu2      1.0000 0.93815  0.98798  0.96194  Biso   1.000  Cu
  Cu3      1.0000 0.43815  0.51202  0.46194  Biso   1.000  Cu
  Cu4      1.0000 0.06185  0.01202  0.03806  Biso   1.000  Cu
  O1       1.0000 0.52340  0.51736  0.57980  Biso   1.000  O
  O2       1.0000 0.97660  0.01736  0.92020  Biso   1.000  O
  O3       1.0000 0.47660  0.48264  0.42020  Biso   1.000  O
  O4       1.0000 0.02340  0.98264  0.07980  Biso   1.000  O
  O5       1.0000 0.41420  0.53775  0.51310  Biso   1.000  O
  O6       1.0000 0.08580  0.03775  0.98690  Biso   1.000  O
  O7       1.0000 0.58580  0.46225  0.48690  Biso   1.000  O
  O8       1.0000 0.91420  0.96225  0.01310  Biso   1.000  O
  O9       1.0000 0.17430  0.98983  0.02100  Biso   1.000  O
  O10      1.0000 0.32570  0.48983  0.47900  Biso   1.000  O
  O11      1.0000 0.82570  0.01017  0.97900  Biso   1.000  O
  O12      1.0000 0.67430  0.51017  0.52100  Biso   1.000  O
  O13      1.0000 0.06930  0.96970  0.95330  Biso   1.000  O
  O14      1.0000 0.43070  0.46970  0.54670  Biso   1.000  O
  O15      1.0000 0.93070  0.03030  0.04670  Biso   1.000  O
  O16      1.0000 0.56930  0.53030  0.45330  Biso   1.000  O
  O17      1.0000 0.66420  0.46660  0.60110  Biso   1.000  O
  O18      1.0000 0.83580  0.96660  0.89890  Biso   1.000  O
  O19      1.0000 0.33580  0.53340  0.39890  Biso   1.000  O
  O20      1.0000 0.16420  0.03340  0.10110  Biso   1.000  O
  O21      1.0000 0.01570  0.80683  0.84340  Biso   1.000  O
  O22      1.0000 0.48430  0.30683  0.65660  Biso   1.000  O
  O23      1.0000 0.98430  0.19317  0.15660  Biso   1.000  O
  O24      1.0000 0.51570  0.69317  0.34340  Biso   1.000  O
  O25      1.0000 0.12080  0.85466  0.87230  Biso   1.000  O
  O26      1.0000 0.37920  0.35466  0.62770  Biso   1.000  O
  O27      1.0000 0.87920  0.14534  0.12770  Biso   1.000  O
  O28      1.0000 0.62080  0.64534  0.37230  Biso   1.000  O
  O29      1.0000 0.08980  0.88042  0.96360  Biso   1.000  O
  O30      1.0000 0.41020  0.38042  0.53640  Biso   1.000  O
  O31      1.0000 0.91020  0.11958  0.03640  Biso   1.000  O
  O32      1.0000 0.58980  0.61958  0.46360  Biso   1.000  O
  O33      1.0000 0.11040  0.86237  0.06530  Biso   1.000  O
  O34      1.0000 0.38960  0.36237  0.43470  Biso   1.000  O
  O35      1.0000 0.88960  0.13763  0.93470  Biso   1.000  O
  O36      1.0000 0.61040  0.63763  0.56530  Biso   1.000  O
  O37      1.0000 0.20070  0.81400  0.11490  Biso   1.000  O
  O38      1.0000 0.29930  0.31400  0.38510  Biso   1.000  O
  O39      1.0000 0.79930  0.18600  0.88510  Biso   1.000  O
  O40      1.0000 0.70070  0.68600  0.61490  Biso   1.000  O
  O41      1.0000 0.94120  0.70346  0.90040  Biso   1.000  O
  O42      1.0000 0.55880  0.20346  0.59960  Biso   1.000  O
  O43      1.0000 0.05880  0.29654  0.09960  Biso   1.000  O
  O44      1.0000 0.44120  0.79654  0.40040  Biso   1.000  O
  O45      1.0000 0.89090  0.65660  0.95390  Biso   1.000  O
  O46      1.0000 0.60910  0.15660  0.54610  Biso   1.000  O
  O47      1.0000 0.10910  0.34340  0.04610  Biso   1.000  O
  O48      1.0000 0.39090  0.84340  0.45390  Biso   1.000  O
  O49      1.0000 0.02950  0.62290  0.02250  Biso   1.000  O
  O50      1.0000 0.47050  0.12290  0.47750  Biso   1.000  O
  O51      1.0000 0.97050  0.37710  0.97750  Biso   1.000  O
  O52      1.0000 0.52950  0.87710  0.52250  Biso   1.000  O
  O53      1.0000 0.24030  0.64510  0.05280  Biso   1.000  O
  O54      1.0000 0.25970  0.14510  0.44720  Biso   1.000  O
  O55      1.0000 0.75970  0.35490  0.94720  Biso   1.000  O
  O56      1.0000 0.74030  0.85490  0.55280  Biso   1.000  O
  O57      1.0000 0.29920  0.69575  0.10230  Biso   1.000  O
  O58      1.0000 0.20080  0.19575  0.39770  Biso   1.000  O
  O59      1.0000 0.70080  0.30425  0.89770  Biso   1.000  O
  O60      1.0000 0.79920  0.80425  0.60230  Biso   1.000  O
  C1       1.0000 0.26180  0.76950  0.11010  Biso   1.000  C
  C2       1.0000 0.23820  0.26950  0.38990  Biso   1.000  C
  C3       1.0000 0.73820  0.23050  0.88990  Biso   1.000  C
  C4       1.0000 0.76180  0.73050  0.61010  Biso   1.000  C
  C5       1.0000 0.45510  0.53550  0.55940  Biso   1.000  C
  C6       1.0000 0.04490  0.03550  0.94060  Biso   1.000  C
  C7       1.0000 0.54490  0.46450  0.44060  Biso   1.000  C
  C8       1.0000 0.95510  0.96450  0.05940  Biso   1.000  C
  C9       1.0000 0.37350  0.59410  0.66360  Biso   1.000  C
  C10      1.0000 0.12650  0.09410  0.83640  Biso   1.000  C
  C11      1.0000 0.62650  0.40590  0.33640  Biso   1.000  C
  C12      1.0000 0.87350  0.90590  0.16360  Biso   1.000  C
  C13      1.0000 0.45190  0.57510  0.67910  Biso   1.000  C
  C14      1.0000 0.04810  0.07510  0.82090  Biso   1.000  C
  C15      1.0000 0.54810  0.42490  0.32090  Biso   1.000  C
  C16      1.0000 0.95190  0.92490  0.17910  Biso   1.000  C
  H1       1.0000 0.48950  0.57560  0.71250  Biso   1.000  H
  H2       1.0000 0.01050  0.07560  0.78750  Biso   1.000  H
  H3       1.0000 0.51050  0.42440  0.28750  Biso   1.000  H
  H4       1.0000 0.98950  0.92440  0.21250  Biso   1.000  H
  C17      1.0000 0.47570  0.55570  0.64720  Biso   1.000  C
  C18      1.0000 0.02430  0.05570  0.85280  Biso   1.000  C
  C19      1.0000 0.52430  0.44430  0.35280  Biso   1.000  C
  C20      1.0000 0.97570  0.94430  0.14720  Biso   1.000  C
  H5       1.0000 0.52270  0.54170  0.65970  Biso   1.000  H
  H6       1.0000 0.97730  0.04170  0.84030  Biso   1.000  H
  H7       1.0000 0.47730  0.45830  0.34030  Biso   1.000  H
  H8       1.0000 0.02270  0.95830  0.15970  Biso   1.000  H
  C21      1.0000 0.43080  0.55648  0.59620  Biso   1.000  C
  C22      1.0000 0.06920  0.05648  0.90380  Biso   1.000  C
  C23      1.0000 0.56920  0.44352  0.40380  Biso   1.000  C
  C24      1.0000 0.93080  0.94352  0.09620  Biso   1.000  C
  C25      1.0000 0.35390  0.57620  0.57820  Biso   1.000  C
  C26      1.0000 0.14610  0.07620  0.92180  Biso   1.000  C
  C27      1.0000 0.64610  0.42380  0.42180  Biso   1.000  C
  C28      1.0000 0.85390  0.92380  0.07820  Biso   1.000  C
  H9       1.0000 0.32070  0.57630  0.54400  Biso   1.000  H
  H10      1.0000 0.17930  0.07630  0.95600  Biso   1.000  H
  H11      1.0000 0.67930  0.42370  0.45600  Biso   1.000  H
  H12      1.0000 0.82070  0.92370  0.04400  Biso   1.000  H
  C29      1.0000 0.32710  0.59580  0.61220  Biso   1.000  C
  C30      1.0000 0.17290  0.09580  0.88780  Biso   1.000  C
  C31      1.0000 0.67290  0.40420  0.38780  Biso   1.000  C
  C32      1.0000 0.82710  0.90420  0.11220  Biso   1.000  C
  C33      1.0000 0.25110  0.61910  0.59050  Biso   1.000  C
  C34      1.0000 0.24890  0.11910  0.90950  Biso   1.000  C
  C35      1.0000 0.74890  0.38090  0.40950  Biso   1.000  C
  C36      1.0000 0.75110  0.88090  0.09050  Biso   1.000  C
  H13      1.0000 0.26680  0.62470  0.55790  Biso   1.000  H
  H14      1.0000 0.23320  0.12470  0.94210  Biso   1.000  H
  H15      1.0000 0.73320  0.37530  0.44210  Biso   1.000  H
  H16      1.0000 0.76680  0.87530  0.05790  Biso   1.000  H
  H17      1.0000 0.26100  0.63430  0.61380  Biso   1.000  H
  H18      1.0000 0.23900  0.13430  0.88620  Biso   1.000  H
  H19      1.0000 0.73900  0.36570  0.38620  Biso   1.000  H
  H20      1.0000 0.76100  0.86570  0.11380  Biso   1.000  H
  H21      1.0000 0.17800  0.61300  0.58640  Biso   1.000  H
  H22      1.0000 0.32200  0.11300  0.91360  Biso   1.000  H
  H23      1.0000 0.82200  0.38700  0.41360  Biso   1.000  H
  H24      1.0000 0.67800  0.88700  0.08640  Biso   1.000  H
  C37      1.0000 0.25760  0.65100  0.76310  Biso   1.000  C
  C38      1.0000 0.24240  0.15100  0.73690  Biso   1.000  C
  C39      1.0000 0.74240  0.34900  0.23690  Biso   1.000  C
  C40      1.0000 0.75760  0.84900  0.26310  Biso   1.000  C
  C41      1.0000 0.23400  0.62550  0.76240  Biso   1.000  C
  C42      1.0000 0.26600  0.12550  0.73760  Biso   1.000  C
  C43      1.0000 0.76600  0.37450  0.23760  Biso   1.000  C
  C44      1.0000 0.73400  0.87450  0.26240  Biso   1.000  C
  H25      1.0000 0.19080  0.61930  0.78510  Biso   1.000  H
  H26      1.0000 0.30920  0.11930  0.71490  Biso   1.000  H
  H27      1.0000 0.80920  0.38070  0.21490  Biso   1.000  H
  H28      1.0000 0.69080  0.88070  0.28510  Biso   1.000  H
  C45      1.0000 0.26800  0.60720  0.73090  Biso   1.000  C
  C46      1.0000 0.23200  0.10720  0.76910  Biso   1.000  C
  C47      1.0000 0.73200  0.39280  0.26910  Biso   1.000  C
  C48      1.0000 0.76800  0.89280  0.23090  Biso   1.000  C
  H29      1.0000 0.24280  0.58940  0.72970  Biso   1.000  H
  H30      1.0000 0.25720  0.08940  0.77030  Biso   1.000  H
  H31      1.0000 0.75720  0.41060  0.27030  Biso   1.000  H
  H32      1.0000 0.74280  0.91060  0.22970  Biso   1.000  H
  C49      1.0000 0.34130  0.61520  0.69990  Biso   1.000  C
  C50      1.0000 0.15870  0.11520  0.80010  Biso   1.000  C
  C51      1.0000 0.65870  0.38480  0.30010  Biso   1.000  C
  C52      1.0000 0.84130  0.88480  0.19990  Biso   1.000  C
  C53      1.0000 0.36770  0.64080  0.70100  Biso   1.000  C
  C54      1.0000 0.13230  0.14080  0.79900  Biso   1.000  C
  C55      1.0000 0.63230  0.35920  0.29900  Biso   1.000  C
  C56      1.0000 0.86770  0.85920  0.20100  Biso   1.000  C
  H33      1.0000 0.41330  0.64710  0.67960  Biso   1.000  H
  H34      1.0000 0.08670  0.14710  0.82040  Biso   1.000  H
  H35      1.0000 0.58670  0.35290  0.32040  Biso   1.000  H
  H36      1.0000 0.91330  0.85290  0.17960  Biso   1.000  H
  C57      1.0000 0.33000  0.65860  0.73290  Biso   1.000  C
  C58      1.0000 0.17000  0.15860  0.76710  Biso   1.000  C
  C59      1.0000 0.67000  0.34140  0.26710  Biso   1.000  C
  C60      1.0000 0.83000  0.84140  0.23290  Biso   1.000  C
  H37      1.0000 0.35430  0.67650  0.73430  Biso   1.000  H
  H38      1.0000 0.14570  0.17650  0.76570  Biso   1.000  H
  H39      1.0000 0.64570  0.32350  0.26570  Biso   1.000  H
  H40      1.0000 0.85430  0.82350  0.23430  Biso   1.000  H
  C61      1.0000 0.10640  0.71220  0.83970  Biso   1.000  C
  C62      1.0000 0.39360  0.21220  0.66030  Biso   1.000  C
  C63      1.0000 0.89360  0.28780  0.16030  Biso   1.000  C
  C64      1.0000 0.60640  0.78780  0.33970  Biso   1.000  C
  C65      1.0000 0.05930  0.68630  0.82800  Biso   1.000  C
  C66      1.0000 0.44070  0.18630  0.67200  Biso   1.000  C
  C67      1.0000 0.94070  0.31370  0.17200  Biso   1.000  C
  C68      1.0000 0.55930  0.81370  0.32800  Biso   1.000  C
  H41      1.0000 0.99240  0.68230  0.83610  Biso   1.000  H
  H42      1.0000 0.50760  0.18230  0.66390  Biso   1.000  H
  H43      1.0000 0.00760  0.31770  0.16390  Biso   1.000  H
  H44      1.0000 0.49240  0.81770  0.33610  Biso   1.000  H
  C69      1.0000 0.11310  0.66730  0.80460  Biso   1.000  C
  C70      1.0000 0.38690  0.16730  0.69540  Biso   1.000  C
  C71      1.0000 0.88690  0.33270  0.19540  Biso   1.000  C
  C72      1.0000 0.61310  0.83270  0.30460  Biso   1.000  C
  H45      1.0000 0.08050  0.65050  0.79640  Biso   1.000  H
  H46      1.0000 0.41950  0.15050  0.70360  Biso   1.000  H
  H47      1.0000 0.91950  0.34950  0.20360  Biso   1.000  H
  H48      1.0000 0.58050  0.84950  0.29640  Biso   1.000  H
  C73      1.0000 0.21060  0.67170  0.79290  Biso   1.000  C
  C74      1.0000 0.28940  0.17170  0.70710  Biso   1.000  C
  C75      1.0000 0.78940  0.32830  0.20710  Biso   1.000  C
  C76      1.0000 0.71060  0.82830  0.29290  Biso   1.000  C
  C77      1.0000 0.25260  0.69560  0.80590  Biso   1.000  C
  C78      1.0000 0.24740  0.19560  0.69410  Biso   1.000  C
  C79      1.0000 0.74740  0.30440  0.19410  Biso   1.000  C
  C80      1.0000 0.75260  0.80440  0.30590  Biso   1.000  C
  H49      1.0000 0.31920  0.69970  0.79740  Biso   1.000  H
  H50      1.0000 0.18080  0.19970  0.70260  Biso   1.000  H
  H51      1.0000 0.68080  0.30030  0.20260  Biso   1.000  H
  H52      1.0000 0.81920  0.80030  0.29740  Biso   1.000  H
  C81      1.0000 0.20440  0.71520  0.83130  Biso   1.000  C
  C82      1.0000 0.29560  0.21520  0.66870  Biso   1.000  C
  C83      1.0000 0.79560  0.28480  0.16870  Biso   1.000  C
  C84      1.0000 0.70440  0.78480  0.33130  Biso   1.000  C
  H53      1.0000 0.24250  0.73080  0.84290  Biso   1.000  H
  H54      1.0000 0.25750  0.23080  0.65710  Biso   1.000  H
  H55      1.0000 0.75750  0.26920  0.15710  Biso   1.000  H
  H56      1.0000 0.74250  0.76920  0.34290  Biso   1.000  H
  C85      1.0000 0.04090  0.73400  0.85730  Biso   1.000  C
  C86      1.0000 0.45910  0.23400  0.64270  Biso   1.000  C
  C87      1.0000 0.95910  0.26600  0.14270  Biso   1.000  C
  C88      1.0000 0.54090  0.76600  0.35730  Biso   1.000  C
  C89      1.0000 0.95820  0.72920  0.88420  Biso   1.000  C
  C90      1.0000 0.54180  0.22920  0.61580  Biso   1.000  C
  C91      1.0000 0.04180  0.27080  0.11580  Biso   1.000  C
  C92      1.0000 0.45820  0.77080  0.38420  Biso   1.000  C
  C93      1.0000 0.89730  0.75090  0.89590  Biso   1.000  C
  C94      1.0000 0.60270  0.25090  0.60410  Biso   1.000  C
  C95      1.0000 0.10270  0.24910  0.10410  Biso   1.000  C
  C96      1.0000 0.39730  0.74910  0.39590  Biso   1.000  C
  H57      1.0000 0.83870  0.74740  0.91190  Biso   1.000  H
  H58      1.0000 0.66130  0.24740  0.58810  Biso   1.000  H
  H59      1.0000 0.16130  0.25260  0.08810  Biso   1.000  H
  H60      1.0000 0.33870  0.75260  0.41190  Biso   1.000  H
  C97      1.0000 0.91960  0.77770  0.88490  Biso   1.000  C
  C98      1.0000 0.58040  0.27770  0.61510  Biso   1.000  C
  C99      1.0000 0.08040  0.22230  0.11510  Biso   1.000  C
  C100     1.0000 0.41960  0.72230  0.38490  Biso   1.000  C
  C101     1.0000 0.00200  0.78110  0.85850  Biso   1.000  C
  C102     1.0000 0.49800  0.28110  0.64150  Biso   1.000  C
  C103     1.0000 0.99800  0.21890  0.14150  Biso   1.000  C
  C104     1.0000 0.50200  0.71890  0.35850  Biso   1.000  C
  C105     1.0000 0.06070  0.76050  0.84560  Biso   1.000  C
  C106     1.0000 0.43930  0.26050  0.65440  Biso   1.000  C
  C107     1.0000 0.93930  0.23950  0.15440  Biso   1.000  C
  C108     1.0000 0.56070  0.73950  0.34560  Biso   1.000  C
  H61      1.0000 0.11680  0.76420  0.82810  Biso   1.000  H
  H62      1.0000 0.38320  0.26420  0.67190  Biso   1.000  H
  H63      1.0000 0.88320  0.23580  0.17190  Biso   1.000  H
  H64      1.0000 0.61680  0.73580  0.32810  Biso   1.000  H
  C109     1.0000 0.84790  0.79970  0.89640  Biso   1.000  C
  C110     1.0000 0.65210  0.29970  0.60360  Biso   1.000  C
  C111     1.0000 0.15210  0.20030  0.10360  Biso   1.000  C
  C112     1.0000 0.34790  0.70030  0.39640  Biso   1.000  C
  C113     1.0000 0.87740  0.82420  0.90780  Biso   1.000  C
  C114     1.0000 0.62260  0.32420  0.59220  Biso   1.000  C
  C115     1.0000 0.12260  0.17580  0.09220  Biso   1.000  C
  C116     1.0000 0.37740  0.67580  0.40780  Biso   1.000  C
  H65      1.0000 0.95040  0.82790  0.91130  Biso   1.000  H
  H66      1.0000 0.54960  0.32790  0.58870  Biso   1.000  H
  H67      1.0000 0.04960  0.17210  0.08870  Biso   1.000  H
  H68      1.0000 0.45040  0.67210  0.41130  Biso   1.000  H
  C117     1.0000 0.80780  0.84640  0.91560  Biso   1.000  C
  C118     1.0000 0.69220  0.34640  0.58440  Biso   1.000  C
  C119     1.0000 0.19220  0.15360  0.08440  Biso   1.000  C
  C120     1.0000 0.30780  0.65360  0.41560  Biso   1.000  C
  H69      1.0000 0.83330  0.86410  0.92170  Biso   1.000  H
  H70      1.0000 0.66670  0.36410  0.57830  Biso   1.000  H
  H71      1.0000 0.16670  0.13590  0.07830  Biso   1.000  H
  H72      1.0000 0.33330  0.63590  0.42170  Biso   1.000  H
  C121     1.0000 0.66890  0.81300  0.90500  Biso   1.000  C
  C122     1.0000 0.83110  0.31300  0.59500  Biso   1.000  C
  C123     1.0000 0.33110  0.18700  0.09500  Biso   1.000  C
  C124     1.0000 0.16890  0.68700  0.40500  Biso   1.000  C
  H73      1.0000 0.59760  0.80870  0.90590  Biso   1.000  H
  H74      1.0000 0.90240  0.30870  0.59410  Biso   1.000  H
  H75      1.0000 0.40240  0.19130  0.09410  Biso   1.000  H
  H76      1.0000 0.09760  0.69130  0.40590  Biso   1.000  H
  C125     1.0000 0.69780  0.83970  0.91330  Biso   1.000  C
  C126     1.0000 0.80220  0.33970  0.58670  Biso   1.000  C
  C127     1.0000 0.30220  0.16030  0.08670  Biso   1.000  C
  C128     1.0000 0.19780  0.66030  0.41330  Biso   1.000  C
  C129     1.0000 0.73280  0.79260  0.89570  Biso   1.000  C
  C130     1.0000 0.76720  0.29260  0.60430  Biso   1.000  C
  C131     1.0000 0.26720  0.20740  0.10430  Biso   1.000  C
  C132     1.0000 0.23280  0.70740  0.39570  Biso   1.000  C
  H77      1.0000 0.70700  0.77490  0.88910  Biso   1.000  H
  H78      1.0000 0.79300  0.27490  0.61090  Biso   1.000  H
  H79      1.0000 0.29300  0.22510  0.11090  Biso   1.000  H
  H80      1.0000 0.20700  0.72510  0.38910  Biso   1.000  H
  C133     1.0000 0.48170  0.90210  0.93910  Biso   1.000  C
  C134     1.0000 0.01830  0.40210  0.56090  Biso   1.000  C
  C135     1.0000 0.51830  0.09790  0.06090  Biso   1.000  C
  C136     1.0000 0.98170  0.59790  0.43910  Biso   1.000  C
  C137     1.0000 0.45160  0.88180  0.90590  Biso   1.000  C
  C138     1.0000 0.04840  0.38180  0.59410  Biso   1.000  C
  C139     1.0000 0.54840  0.11820  0.09410  Biso   1.000  C
  C140     1.0000 0.95160  0.61820  0.40590  Biso   1.000  C
  H81      1.0000 0.38000  0.88110  0.88990  Biso   1.000  H
  H82      1.0000 0.12000  0.38110  0.61010  Biso   1.000  H
  H83      1.0000 0.62000  0.11890  0.11010  Biso   1.000  H
  H84      1.0000 0.88000  0.61890  0.38990  Biso   1.000  H
  C141     1.0000 0.52060  0.86130  0.89360  Biso   1.000  C
  C142     1.0000 0.97940  0.36130  0.60640  Biso   1.000  C
  C143     1.0000 0.47940  0.13870  0.10640  Biso   1.000  C
  C144     1.0000 0.02060  0.63870  0.39360  Biso   1.000  C
  H85      1.0000 0.49990  0.84900  0.86700  Biso   1.000  H
  H86      1.0000 0.00010  0.34900  0.63300  Biso   1.000  H
  H87      1.0000 0.50010  0.15100  0.13300  Biso   1.000  H
  H88      1.0000 0.99990  0.65100  0.36700  Biso   1.000  H
  C145     1.0000 0.62760  0.86070  0.92550  Biso   1.000  C
  C146     1.0000 0.87240  0.36070  0.57450  Biso   1.000  C
  C147     1.0000 0.37240  0.13930  0.07450  Biso   1.000  C
  C148     1.0000 0.12760  0.63930  0.42550  Biso   1.000  C
  C149     1.0000 0.65350  0.88190  0.95860  Biso   1.000  C
  C150     1.0000 0.84650  0.38190  0.54140  Biso   1.000  C
  C151     1.0000 0.34650  0.11810  0.04140  Biso   1.000  C
  C152     1.0000 0.15350  0.61810  0.45860  Biso   1.000  C
  H89      1.0000 0.72230  0.88270  0.97800  Biso   1.000  H
  H90      1.0000 0.77770  0.38270  0.52200  Biso   1.000  H
  H91      1.0000 0.27770  0.11730  0.02200  Biso   1.000  H
  H92      1.0000 0.22230  0.61730  0.47800  Biso   1.000  H
  C153     1.0000 0.58090  0.90180  0.96410  Biso   1.000  C
  C154     1.0000 0.91910  0.40180  0.53590  Biso   1.000  C
  C155     1.0000 0.41910  0.09820  0.03590  Biso   1.000  C
  C156     1.0000 0.08090  0.59820  0.46410  Biso   1.000  C
  H93      1.0000 0.60310  0.91600  0.98690  Biso   1.000  H
  H94      1.0000 0.89690  0.41600  0.51310  Biso   1.000  H
  H95      1.0000 0.39690  0.08400  0.01310  Biso   1.000  H
  H96      1.0000 0.10310  0.58400  0.48690  Biso   1.000  H
  C157     1.0000 0.30710  0.94590  0.00480  Biso   1.000  C
  C158     1.0000 0.19290  0.44590  0.49520  Biso   1.000  C
  C159     1.0000 0.69290  0.05410  0.99520  Biso   1.000  C
  C160     1.0000 0.80710  0.55410  0.50480  Biso   1.000  C
  H97      1.0000 0.30420  0.95070  0.03850  Biso   1.000  H
  H98      1.0000 0.19580  0.45070  0.46150  Biso   1.000  H
  H99      1.0000 0.69580  0.04930  0.96150  Biso   1.000  H
  H100     1.0000 0.80420  0.54930  0.53850  Biso   1.000  H
  C161     1.0000 0.24380  0.95700  0.97070  Biso   1.000  C
  C162     1.0000 0.25620  0.45700  0.52930  Biso   1.000  C
  C163     1.0000 0.75620  0.04300  0.02930  Biso   1.000  C
  C164     1.0000 0.74380  0.54300  0.47070  Biso   1.000  C
  C165     1.0000 0.25350  0.94970  0.92070  Biso   1.000  C
  C166     1.0000 0.24650  0.44970  0.57930  Biso   1.000  C
  C167     1.0000 0.74650  0.05030  0.07930  Biso   1.000  C
  C168     1.0000 0.75350  0.55030  0.42070  Biso   1.000  C
  H101     1.0000 0.20210  0.95640  0.89420  Biso   1.000  H
  H102     1.0000 0.29790  0.45640  0.60580  Biso   1.000  H
  H103     1.0000 0.79790  0.04360  0.10580  Biso   1.000  H
  H104     1.0000 0.70210  0.54360  0.39420  Biso   1.000  H
  C169     1.0000 0.32870  0.93410  0.90790  Biso   1.000  C
  C170     1.0000 0.17130  0.43410  0.59210  Biso   1.000  C
  C171     1.0000 0.67130  0.06590  0.09210  Biso   1.000  C
  C172     1.0000 0.82870  0.56590  0.40790  Biso   1.000  C
  C173     1.0000 0.39480  0.92240  0.94890  Biso   1.000  C
  C174     1.0000 0.10520  0.42240  0.55110  Biso   1.000  C
  C175     1.0000 0.60520  0.07760  0.05110  Biso   1.000  C
  C176     1.0000 0.89480  0.57760  0.44890  Biso   1.000  C
  C177     1.0000 0.37980  0.92740  0.99700  Biso   1.000  C
  C178     1.0000 0.12020  0.42740  0.50300  Biso   1.000  C
  C179     1.0000 0.62020  0.07260  0.00300  Biso   1.000  C
  C180     1.0000 0.87980  0.57260  0.49700  Biso   1.000  C
  H105     1.0000 0.41950  0.91800  0.02440  Biso   1.000  H
  H106     1.0000 0.08050  0.41800  0.47560  Biso   1.000  H
  H107     1.0000 0.58050  0.08200  0.97560  Biso   1.000  H
  H108     1.0000 0.91950  0.58200  0.52440  Biso   1.000  H
  C181     1.0000 0.34490  0.93340  0.85620  Biso   1.000  C
  C182     1.0000 0.15510  0.43340  0.64380  Biso   1.000  C
  C183     1.0000 0.65510  0.06660  0.14380  Biso   1.000  C
  C184     1.0000 0.84490  0.56660  0.35620  Biso   1.000  C
  H109     1.0000 0.28440  0.92480  0.83530  Biso   1.000  H
  H110     1.0000 0.21560  0.42480  0.66470  Biso   1.000  H
  H111     1.0000 0.71560  0.07520  0.16470  Biso   1.000  H
  H112     1.0000 0.78440  0.57520  0.33530  Biso   1.000  H
  H113     1.0000 0.40880  0.92330  0.85400  Biso   1.000  H
  H114     1.0000 0.09120  0.42330  0.64600  Biso   1.000  H
  H115     1.0000 0.59120  0.07670  0.14600  Biso   1.000  H
  H116     1.0000 0.90880  0.57670  0.35400  Biso   1.000  H
  H117     1.0000 0.35220  0.95170  0.84430  Biso   1.000  H
  H118     1.0000 0.14780  0.45170  0.65570  Biso   1.000  H
  H119     1.0000 0.64780  0.04830  0.15570  Biso   1.000  H
  H120     1.0000 0.85220  0.54830  0.34430  Biso   1.000  H
  C185     1.0000 0.15030  0.97330  0.98240  Biso   1.000  C
  C186     1.0000 0.34970  0.47330  0.51760  Biso   1.000  C
  C187     1.0000 0.84970  0.02670  0.01760  Biso   1.000  C
  C188     1.0000 0.65030  0.52670  0.48240  Biso   1.000  C
  C189     1.0000 0.11070  0.81450  0.82550  Biso   1.000  C
  C190     1.0000 0.38930  0.31450  0.67450  Biso   1.000  C
  C191     1.0000 0.88930  0.18550  0.17450  Biso   1.000  C
  C192     1.0000 0.61070  0.68550  0.32550  Biso   1.000  C
  H121     1.0000 0.11030  0.80680  0.79170  Biso   1.000  H
  H122     1.0000 0.38970  0.30680  0.70830  Biso   1.000  H
  H123     1.0000 0.88970  0.19320  0.20830  Biso   1.000  H
  H124     1.0000 0.61030  0.69320  0.29170  Biso   1.000  H
  H125     1.0000 0.17270  0.80730  0.84840  Biso   1.000  H
  H126     1.0000 0.32730  0.30730  0.65160  Biso   1.000  H
  H127     1.0000 0.82730  0.19270  0.15160  Biso   1.000  H
  H128     1.0000 0.67270  0.69270  0.34840  Biso   1.000  H
  C193     1.0000 0.11810  0.84350  0.82320  Biso   1.000  C
  C194     1.0000 0.38190  0.34350  0.67680  Biso   1.000  C
  C195     1.0000 0.88190  0.15650  0.17680  Biso   1.000  C
  C196     1.0000 0.61810  0.65650  0.32320  Biso   1.000  C
  H129     1.0000 0.18260  0.84870  0.81040  Biso   1.000  H
  H130     1.0000 0.31740  0.34870  0.68960  Biso   1.000  H
  H131     1.0000 0.81740  0.15130  0.18960  Biso   1.000  H
  H132     1.0000 0.68260  0.65130  0.31040  Biso   1.000  H
  H133     1.0000 0.05670  0.85070  0.79990  Biso   1.000  H
  H134     1.0000 0.44330  0.35070  0.70010  Biso   1.000  H
  H135     1.0000 0.94330  0.14930  0.20010  Biso   1.000  H
  H136     1.0000 0.55670  0.64930  0.29990  Biso   1.000  H
  C197     1.0000 0.10000  0.88280  0.87470  Biso   1.000  C
  C198     1.0000 0.40000  0.38280  0.62530  Biso   1.000  C
  C199     1.0000 0.90000  0.11720  0.12530  Biso   1.000  C
  C200     1.0000 0.60000  0.61720  0.37470  Biso   1.000  C
  H137     1.0000 0.16300  0.89210  0.86700  Biso   1.000  H
  H138     1.0000 0.33700  0.39210  0.63300  Biso   1.000  H
  H139     1.0000 0.83700  0.10790  0.13300  Biso   1.000  H
  H140     1.0000 0.66300  0.60790  0.36700  Biso   1.000  H
  H141     1.0000 0.04190  0.88680  0.84660  Biso   1.000  H
  H142     1.0000 0.45810  0.38680  0.65340  Biso   1.000  H
  H143     1.0000 0.95810  0.11320  0.15340  Biso   1.000  H
  H144     1.0000 0.54190  0.61320  0.34660  Biso   1.000  H
  C201     1.0000 0.07380  0.89560  0.91830  Biso   1.000  C
  C202     1.0000 0.42620  0.39560  0.58170  Biso   1.000  C
  C203     1.0000 0.92620  0.10440  0.08170  Biso   1.000  C
  C204     1.0000 0.57380  0.60440  0.41830  Biso   1.000  C
  H145     1.0000 0.11580  0.91220  0.92440  Biso   1.000  H
  H146     1.0000 0.38420  0.41220  0.57560  Biso   1.000  H
  H147     1.0000 0.88420  0.08780  0.07560  Biso   1.000  H
  H148     1.0000 0.61580  0.58780  0.42440  Biso   1.000  H
  H149     1.0000 0.99880  0.90080  0.91070  Biso   1.000  H
  H150     1.0000 0.50120  0.40080  0.58930  Biso   1.000  H
  H151     1.0000 0.00120  0.09920  0.08930  Biso   1.000  H
  H152     1.0000 0.49880  0.59920  0.41070  Biso   1.000  H
  C205     1.0000 0.04470  0.89410  0.00100  Biso   1.000  C
  C206     1.0000 0.45530  0.39410  0.49900  Biso   1.000  C
  C207     1.0000 0.95530  0.10590  0.99900  Biso   1.000  C
  C208     1.0000 0.54470  0.60590  0.50100  Biso   1.000  C
  H153     1.0000 0.04080  0.91340  0.99340  Biso   1.000  H
  H154     1.0000 0.45920  0.41340  0.50660  Biso   1.000  H
  H155     1.0000 0.95920  0.08660  0.00660  Biso   1.000  H
  H156     1.0000 0.54080  0.58660  0.49340  Biso   1.000  H
  H157     1.0000 0.97230  0.88750  0.00070  Biso   1.000  H
  H158     1.0000 0.52770  0.38750  0.49930  Biso   1.000  H
  H159     1.0000 0.02770  0.11250  0.99930  Biso   1.000  H
  H160     1.0000 0.47230  0.61250  0.50070  Biso   1.000  H
  C209     1.0000 0.10660  0.88980  0.04950  Biso   1.000  C
  C210     1.0000 0.39340  0.38980  0.45050  Biso   1.000  C
  C211     1.0000 0.89340  0.11020  0.95050  Biso   1.000  C
  C212     1.0000 0.60660  0.61020  0.54950  Biso   1.000  C
  H161     1.0000 0.07750  0.90080  0.07430  Biso   1.000  H
  H162     1.0000 0.42250  0.40080  0.42570  Biso   1.000  H
  H163     1.0000 0.92250  0.09920  0.92570  Biso   1.000  H
  H164     1.0000 0.57750  0.59920  0.57430  Biso   1.000  H
  H165     1.0000 0.17920  0.89610  0.04910  Biso   1.000  H
  H166     1.0000 0.32080  0.39610  0.45090  Biso   1.000  H
  H167     1.0000 0.82080  0.10390  0.95090  Biso   1.000  H
  H168     1.0000 0.67920  0.60390  0.54910  Biso   1.000  H
  C213     1.0000 0.14570  0.85890  0.11800  Biso   1.000  C
  C214     1.0000 0.35430  0.35890  0.38200  Biso   1.000  C
  C215     1.0000 0.85430  0.14110  0.88200  Biso   1.000  C
  C216     1.0000 0.64570  0.64110  0.61800  Biso   1.000  C
  H169     1.0000 0.10880  0.87140  0.13750  Biso   1.000  H
  H170     1.0000 0.39120  0.37140  0.36250  Biso   1.000  H
  H171     1.0000 0.89120  0.12860  0.86250  Biso   1.000  H
  H172     1.0000 0.60880  0.62860  0.63750  Biso   1.000  H
  H173     1.0000 0.22240  0.86210  0.12690  Biso   1.000  H
  H174     1.0000 0.27760  0.36210  0.37310  Biso   1.000  H
  H175     1.0000 0.77760  0.13790  0.87310  Biso   1.000  H
  H176     1.0000 0.72240  0.63790  0.62690  Biso   1.000  H
  C217     1.0000 0.12060  0.83160  0.12820  Biso   1.000  C
  C218     1.0000 0.37940  0.33160  0.37180  Biso   1.000  C
  C219     1.0000 0.87940  0.16840  0.87180  Biso   1.000  C
  C220     1.0000 0.62060  0.66840  0.62820  Biso   1.000  C
  H177     1.0000 0.05120  0.82680  0.10840  Biso   1.000  H
  H178     1.0000 0.44880  0.32680  0.39160  Biso   1.000  H
  H179     1.0000 0.94880  0.17320  0.89160  Biso   1.000  H
  H180     1.0000 0.55120  0.67320  0.60840  Biso   1.000  H
  H181     1.0000 0.11700  0.82950  0.16420  Biso   1.000  H
  H182     1.0000 0.38300  0.32950  0.33580  Biso   1.000  H
  H183     1.0000 0.88300  0.17050  0.83580  Biso   1.000  H
  H184     1.0000 0.61700  0.67050  0.66420  Biso   1.000  H
  C221     1.0000 0.18880  0.78710  0.12400  Biso   1.000  C
  C222     1.0000 0.31120  0.28710  0.37600  Biso   1.000  C
  C223     1.0000 0.81120  0.21290  0.87600  Biso   1.000  C
  C224     1.0000 0.68880  0.71290  0.62400  Biso   1.000  C
  C225     1.0000 0.10800  0.77680  0.14680  Biso   1.000  C
  C226     1.0000 0.39200  0.27680  0.35320  Biso   1.000  C
  C227     1.0000 0.89200  0.22320  0.85320  Biso   1.000  C
  C228     1.0000 0.60800  0.72320  0.64680  Biso   1.000  C
  H185     1.0000 0.06000  0.78870  0.15820  Biso   1.000  H
  H186     1.0000 0.44000  0.28870  0.34180  Biso   1.000  H
  H187     1.0000 0.94000  0.21130  0.84180  Biso   1.000  H
  H188     1.0000 0.56000  0.71130  0.65820  Biso   1.000  H
  C229     1.0000 0.09670  0.75000  0.15290  Biso   1.000  C
  C230     1.0000 0.40330  0.25000  0.34710  Biso   1.000  C
  C231     1.0000 0.90330  0.25000  0.84710  Biso   1.000  C
  C232     1.0000 0.59670  0.75000  0.65290  Biso   1.000  C
  H189     1.0000 0.03970  0.74380  0.16780  Biso   1.000  H
  H190     1.0000 0.46030  0.24380  0.33220  Biso   1.000  H
  H191     1.0000 0.96030  0.25620  0.83220  Biso   1.000  H
  H192     1.0000 0.53970  0.75620  0.66780  Biso   1.000  H
  C233     1.0000 0.16220  0.73230  0.13900  Biso   1.000  C
  C234     1.0000 0.33780  0.23230  0.36100  Biso   1.000  C
  C235     1.0000 0.83780  0.26770  0.86100  Biso   1.000  C
  C236     1.0000 0.66220  0.76770  0.63900  Biso   1.000  C
  H193     1.0000 0.15310  0.71380  0.14460  Biso   1.000  H
  H194     1.0000 0.34690  0.21380  0.35540  Biso   1.000  H
  H195     1.0000 0.84690  0.28620  0.85540  Biso   1.000  H
  H196     1.0000 0.65310  0.78620  0.64460  Biso   1.000  H
  C237     1.0000 0.24650  0.74120  0.11540  Biso   1.000  C
  C238     1.0000 0.25350  0.24120  0.38460  Biso   1.000  C
  C239     1.0000 0.75350  0.25880  0.88460  Biso   1.000  C
  C240     1.0000 0.74650  0.75880  0.61540  Biso   1.000  C
  C241     1.0000 0.83890  0.69800  0.91240  Biso   1.000  C
  C242     1.0000 0.66110  0.19800  0.58760  Biso   1.000  C
  C243     1.0000 0.16110  0.30200  0.08760  Biso   1.000  C
  C244     1.0000 0.33890  0.80200  0.41240  Biso   1.000  C
  H197     1.0000 0.78270  0.70630  0.88770  Biso   1.000  H
  H198     1.0000 0.71730  0.20630  0.61230  Biso   1.000  H
  H199     1.0000 0.21730  0.29370  0.11230  Biso   1.000  H
  H200     1.0000 0.28270  0.79370  0.38770  Biso   1.000  H
  H201     1.0000 0.83370  0.70450  0.94640  Biso   1.000  H
  H202     1.0000 0.66630  0.20450  0.55360  Biso   1.000  H
  H203     1.0000 0.16630  0.29550  0.05360  Biso   1.000  H
  H204     1.0000 0.33370  0.79550  0.44640  Biso   1.000  H
  C245     1.0000 0.83260  0.66910  0.90980  Biso   1.000  C
  C246     1.0000 0.66740  0.16910  0.59020  Biso   1.000  C
  C247     1.0000 0.16740  0.33090  0.09020  Biso   1.000  C
  C248     1.0000 0.33260  0.83090  0.40980  Biso   1.000  C
  H205     1.0000 0.75790  0.66360  0.90580  Biso   1.000  H
  H206     1.0000 0.74210  0.16360  0.59420  Biso   1.000  H
  H207     1.0000 0.24210  0.33640  0.09420  Biso   1.000  H
  H208     1.0000 0.25790  0.83640  0.40580  Biso   1.000  H
  H209     1.0000 0.86040  0.66280  0.87990  Biso   1.000  H
  H210     1.0000 0.63960  0.16280  0.62010  Biso   1.000  H
  H211     1.0000 0.13960  0.33720  0.12010  Biso   1.000  H
  H212     1.0000 0.36040  0.83720  0.37990  Biso   1.000  H
  C249     1.0000 0.89480  0.62800  0.94920  Biso   1.000  C
  C250     1.0000 0.60520  0.12800  0.55080  Biso   1.000  C
  C251     1.0000 0.10520  0.37200  0.05080  Biso   1.000  C
  C252     1.0000 0.39480  0.87200  0.44920  Biso   1.000  C
  H213     1.0000 0.94400  0.62340  0.92620  Biso   1.000  H
  H214     1.0000 0.55600  0.12340  0.57380  Biso   1.000  H
  H215     1.0000 0.05600  0.37660  0.07380  Biso   1.000  H
  H216     1.0000 0.44400  0.87660  0.42620  Biso   1.000  H
  H217     1.0000 0.82420  0.62150  0.93380  Biso   1.000  H
  H218     1.0000 0.67580  0.12150  0.56620  Biso   1.000  H
  H219     1.0000 0.17580  0.37850  0.06620  Biso   1.000  H
  H220     1.0000 0.32420  0.87850  0.43380  Biso   1.000  H
  C253     1.0000 0.92800  0.61440  0.99660  Biso   1.000  C
  C254     1.0000 0.57200  0.11440  0.50340  Biso   1.000  C
  C255     1.0000 0.07200  0.38560  0.00340  Biso   1.000  C
  C256     1.0000 0.42800  0.88560  0.49660  Biso   1.000  C
  H221     1.0000 0.87530  0.61770  0.01850  Biso   1.000  H
  H222     1.0000 0.62470  0.11770  0.48150  Biso   1.000  H
  H223     1.0000 0.12470  0.38230  0.98150  Biso   1.000  H
  H224     1.0000 0.37530  0.88230  0.51850  Biso   1.000  H
  H225     1.0000 0.93000  0.59500  0.99040  Biso   1.000  H
  H226     1.0000 0.57000  0.09500  0.50960  Biso   1.000  H
  H227     1.0000 0.07000  0.40500  0.00960  Biso   1.000  H
  H228     1.0000 0.43000  0.90500  0.49040  Biso   1.000  H
  C257     1.0000 0.11380  0.61820  0.99450  Biso   1.000  C
  C258     1.0000 0.38620  0.11820  0.50550  Biso   1.000  C
  C259     1.0000 0.88620  0.38180  0.00550  Biso   1.000  C
  C260     1.0000 0.61380  0.88180  0.49450  Biso   1.000  C
  H229     1.0000 0.11730  0.63250  0.96950  Biso   1.000  H
  H230     1.0000 0.38270  0.13250  0.53050  Biso   1.000  H
  H231     1.0000 0.88270  0.36750  0.03050  Biso   1.000  H
  H232     1.0000 0.61730  0.86750  0.46950  Biso   1.000  H
  H233     1.0000 0.10650  0.60070  0.97740  Biso   1.000  H
  H234     1.0000 0.39350  0.10070  0.52260  Biso   1.000  H
  H235     1.0000 0.89350  0.39930  0.02260  Biso   1.000  H
  H236     1.0000 0.60650  0.89930  0.47740  Biso   1.000  H
  C261     1.0000 0.20460  0.61890  0.03480  Biso   1.000  C
  C262     1.0000 0.29540  0.11890  0.46520  Biso   1.000  C
  C263     1.0000 0.79540  0.38110  0.96520  Biso   1.000  C
  C264     1.0000 0.70460  0.88110  0.53480  Biso   1.000  C
  H237     1.0000 0.18740  0.60850  0.06350  Biso   1.000  H
  H238     1.0000 0.31260  0.10850  0.43650  Biso   1.000  H
  H239     1.0000 0.81260  0.39150  0.93650  Biso   1.000  H
  H240     1.0000 0.68740  0.89150  0.56350  Biso   1.000  H
  H241     1.0000 0.26360  0.60970  0.02300  Biso   1.000  H
  H242     1.0000 0.23640  0.10970  0.47700  Biso   1.000  H
  H243     1.0000 0.73640  0.39030  0.97700  Biso   1.000  H
  H244     1.0000 0.76360  0.89030  0.52300  Biso   1.000  H
  C265     1.0000 0.33390  0.64780  0.09030  Biso   1.000  C
  C266     1.0000 0.16610  0.14780  0.40970  Biso   1.000  C
  C267     1.0000 0.66610  0.35220  0.90970  Biso   1.000  C
  C268     1.0000 0.83390  0.85220  0.59030  Biso   1.000  C
  H245     1.0000 0.38980  0.63550  0.08360  Biso   1.000  H
  H246     1.0000 0.11020  0.13550  0.41640  Biso   1.000  H
  H247     1.0000 0.61020  0.36450  0.91640  Biso   1.000  H
  H248     1.0000 0.88980  0.86450  0.58360  Biso   1.000  H
  H249     1.0000 0.31870  0.64420  0.12430  Biso   1.000  H
  H250     1.0000 0.18130  0.14420  0.37570  Biso   1.000  H
  H251     1.0000 0.68130  0.35580  0.87570  Biso   1.000  H
  H252     1.0000 0.81870  0.85580  0.62430  Biso   1.000  H
  C269     1.0000 0.36430  0.67530  0.08540  Biso   1.000  C
  C270     1.0000 0.13570  0.17530  0.41460  Biso   1.000  C
  C271     1.0000 0.63570  0.32470  0.91460  Biso   1.000  C
  C272     1.0000 0.86430  0.82470  0.58540  Biso   1.000  C
  H253     1.0000 0.36670  0.67870  0.04960  Biso   1.000  H
  H254     1.0000 0.13330  0.17870  0.45040  Biso   1.000  H
  H255     1.0000 0.63330  0.32130  0.95040  Biso   1.000  H
  H256     1.0000 0.86670  0.82130  0.54960  Biso   1.000  H
  H257     1.0000 0.43670  0.67750  0.10430  Biso   1.000  H
  H258     1.0000 0.06330  0.17750  0.39570  Biso   1.000  H
  H259     1.0000 0.56330  0.32250  0.89570  Biso   1.000  H
  H260     1.0000 0.93670  0.82250  0.60430  Biso   1.000  H
  C273     1.0000 0.31760  0.72270  0.09710  Biso   1.000  C
  C274     1.0000 0.18240  0.22270  0.40290  Biso   1.000  C
  C275     1.0000 0.68240  0.27730  0.90290  Biso   1.000  C
  C276     1.0000 0.81760  0.77730  0.59710  Biso   1.000  C
  C277     1.0000 0.40070  0.73410  0.07570  Biso   1.000  C
  C278     1.0000 0.09930  0.23410  0.42430  Biso   1.000  C
  C279     1.0000 0.59930  0.26590  0.92430  Biso   1.000  C
  C280     1.0000 0.90070  0.76590  0.57570  Biso   1.000  C
  H261     1.0000 0.44860  0.72230  0.06390  Biso   1.000  H
  H262     1.0000 0.05140  0.22230  0.43610  Biso   1.000  H
  H263     1.0000 0.55140  0.27770  0.93610  Biso   1.000  H
  H264     1.0000 0.94860  0.77770  0.56390  Biso   1.000  H
  C281     1.0000 0.41590  0.76110  0.07090  Biso   1.000  C
  C282     1.0000 0.08410  0.26110  0.42910  Biso   1.000  C
  C283     1.0000 0.58410  0.23890  0.92910  Biso   1.000  C
  C284     1.0000 0.91590  0.73890  0.57090  Biso   1.000  C
  H265     1.0000 0.47300  0.76790  0.05700  Biso   1.000  H
  H266     1.0000 0.02700  0.26790  0.44300  Biso   1.000  H
  H267     1.0000 0.52700  0.23210  0.94300  Biso   1.000  H
  H268     1.0000 0.97300  0.73210  0.55700  Biso   1.000  H
  C285     1.0000 0.34440  0.77760  0.08750  Biso   1.000  C
  C286     1.0000 0.15560  0.27760  0.41250  Biso   1.000  C
  C287     1.0000 0.65560  0.22240  0.91250  Biso   1.000  C
  C288     1.0000 0.84440  0.72240  0.58750  Biso   1.000  C
  H269     1.0000 0.35250  0.79620  0.08290  Biso   1.000  H
  H270     1.0000 0.14750  0.29620  0.41710  Biso   1.000  H
  H271     1.0000 0.64750  0.20380  0.91710  Biso   1.000  H
  H272     1.0000 0.85250  0.70380  0.58290  Biso   1.000  H
  N1       1.0000 0.96560  0.69810  0.04930  Biso   1.000  N
  N2       1.0000 0.53440  0.19810  0.45070  Biso   1.000  N
  N3       1.0000 0.03440  0.30190  0.95070  Biso   1.000  N
  N4       1.0000 0.46560  0.80190  0.54930  Biso   1.000  N
  N5       1.0000 0.23690  0.80540  0.96290  Biso   1.000  N
  N6       1.0000 0.26310  0.30540  0.53710  Biso   1.000  N
  N7       1.0000 0.76310  0.19460  0.03710  Biso   1.000  N
  N8       1.0000 0.73690  0.69460  0.46290  Biso   1.000  N
  N9       1.0000 0.54510  0.81260  0.17550  Biso   1.000  N
  N10      1.0000 0.95490  0.31260  0.32450  Biso   1.000  N
  N11      1.0000 0.45490  0.18740  0.82450  Biso   1.000  N
  N12      1.0000 0.04510  0.68740  0.67550  Biso   1.000  N
  C289     1.0000 0.57850  0.78640  0.17810  Biso   1.000  C
  C290     1.0000 0.92150  0.28640  0.32190  Biso   1.000  C
  C291     1.0000 0.42150  0.21360  0.82190  Biso   1.000  C
  C292     1.0000 0.07850  0.71360  0.67810  Biso   1.000  C
  H273     1.0000 0.63820  0.78220  0.16350  Biso   1.000  H
  H274     1.0000 0.86180  0.28220  0.33650  Biso   1.000  H
  H275     1.0000 0.36180  0.21780  0.83650  Biso   1.000  H
  H276     1.0000 0.13820  0.71780  0.66350  Biso   1.000  H
  C293     1.0000 0.53360  0.76680  0.19930  Biso   1.000  C
  C294     1.0000 0.96640  0.26680  0.30070  Biso   1.000  C
  C295     1.0000 0.46640  0.23320  0.80070  Biso   1.000  C
  C296     1.0000 0.03360  0.73320  0.69930  Biso   1.000  C
  H277     1.0000 0.56710  0.74990  0.20410  Biso   1.000  H
  H278     1.0000 0.93290  0.24990  0.29590  Biso   1.000  H
  H279     1.0000 0.43290  0.25010  0.79590  Biso   1.000  H
  H280     1.0000 0.06710  0.75010  0.70410  Biso   1.000  H
  C297     1.0000 0.43940  0.77080  0.21420  Biso   1.000  C
  C298     1.0000 0.06060  0.27080  0.28580  Biso   1.000  C
  C299     1.0000 0.56060  0.22920  0.78580  Biso   1.000  C
  C300     1.0000 0.93940  0.72920  0.71420  Biso   1.000  C
  C301     1.0000 0.40570  0.79520  0.21370  Biso   1.000  C
  C302     1.0000 0.09430  0.29520  0.28630  Biso   1.000  C
  C303     1.0000 0.59430  0.20480  0.78630  Biso   1.000  C
  C304     1.0000 0.90570  0.70480  0.71370  Biso   1.000  C
  H281     1.0000 0.34330  0.79850  0.22680  Biso   1.000  H
  H282     1.0000 0.15670  0.29850  0.27320  Biso   1.000  H
  H283     1.0000 0.65670  0.20150  0.77320  Biso   1.000  H
  H284     1.0000 0.84330  0.70150  0.72680  Biso   1.000  H
  C305     1.0000 0.45480  0.81690  0.19500  Biso   1.000  C
  C306     1.0000 0.04520  0.31690  0.30500  Biso   1.000  C
  C307     1.0000 0.54520  0.18310  0.80500  Biso   1.000  C
  C308     1.0000 0.95480  0.68310  0.69500  Biso   1.000  C
  H285     1.0000 0.42650  0.83440  0.19580  Biso   1.000  H
  H286     1.0000 0.07350  0.33440  0.30420  Biso   1.000  H
  H287     1.0000 0.57350  0.16560  0.80420  Biso   1.000  H
  H288     1.0000 0.92650  0.66560  0.69580  Biso   1.000  H
  N13      1.0000 0.27480  0.70410  0.26100  Biso   1.000  N
  N14      1.0000 0.22520  0.20410  0.23900  Biso   1.000  N
  N15      1.0000 0.72520  0.29590  0.73900  Biso   1.000  N
  N16      1.0000 0.77480  0.79590  0.76100  Biso   1.000  N
  C309     1.0000 0.35480  0.70070  0.23610  Biso   1.000  C
  C310     1.0000 0.14520  0.20070  0.26390  Biso   1.000  C
  C311     1.0000 0.64520  0.29930  0.76390  Biso   1.000  C
  C312     1.0000 0.85480  0.79930  0.73610  Biso   1.000  C
  H289     1.0000 0.37160  0.68330  0.22560  Biso   1.000  H
  H290     1.0000 0.12840  0.18330  0.27440  Biso   1.000  H
  H291     1.0000 0.62840  0.31670  0.77440  Biso   1.000  H
  H292     1.0000 0.87160  0.81670  0.72560  Biso   1.000  H
  C313     1.0000 0.40950  0.72120  0.22620  Biso   1.000  C
  C314     1.0000 0.09050  0.22120  0.27380  Biso   1.000  C
  C315     1.0000 0.59050  0.27880  0.77380  Biso   1.000  C
  C316     1.0000 0.90950  0.77880  0.72620  Biso   1.000  C
  H293     1.0000 0.46860  0.71760  0.21070  Biso   1.000  H
  H294     1.0000 0.03140  0.21760  0.28930  Biso   1.000  H
  H295     1.0000 0.53140  0.28240  0.78930  Biso   1.000  H
  H296     1.0000 0.96860  0.78240  0.71070  Biso   1.000  H
  C317     1.0000 0.39040  0.74840  0.23620  Biso   1.000  C
  C318     1.0000 0.10960  0.24840  0.26380  Biso   1.000  C
  C319     1.0000 0.60960  0.25160  0.76380  Biso   1.000  C
  C320     1.0000 0.89040  0.75160  0.73620  Biso   1.000  C
  C321     1.0000 0.29430  0.75220  0.26130  Biso   1.000  C
  C322     1.0000 0.20570  0.25220  0.23870  Biso   1.000  C
  C323     1.0000 0.70570  0.24780  0.73870  Biso   1.000  C
  C324     1.0000 0.79430  0.74780  0.76130  Biso   1.000  C
  H297     1.0000 0.27270  0.76960  0.26910  Biso   1.000  H
  H298     1.0000 0.22730  0.26960  0.23090  Biso   1.000  H
  H299     1.0000 0.72730  0.23040  0.73090  Biso   1.000  H
  H300     1.0000 0.77270  0.73040  0.76910  Biso   1.000  H
  C325     1.0000 0.24130  0.73090  0.27210  Biso   1.000  C
  C326     1.0000 0.25870  0.23090  0.22790  Biso   1.000  C
  C327     1.0000 0.75870  0.26910  0.72790  Biso   1.000  C
  C328     1.0000 0.74130  0.76910  0.77210  Biso   1.000  C
  H301     1.0000 0.18080  0.73320  0.28720  Biso   1.000  H
  H302     1.0000 0.31920  0.23320  0.21280  Biso   1.000  H
  H303     1.0000 0.81920  0.26680  0.71280  Biso   1.000  H
  H304     1.0000 0.68080  0.76680  0.78720  Biso   1.000  H
  C329     1.0000 0.92780  0.72210  0.04990  Biso   1.000  C
  C330     1.0000 0.57220  0.22210  0.45010  Biso   1.000  C
  C331     1.0000 0.07220  0.27790  0.95010  Biso   1.000  C
  C332     1.0000 0.42780  0.77790  0.54990  Biso   1.000  C
  H305     1.0000 0.86920  0.72480  0.06620  Biso   1.000  H
  H306     1.0000 0.63080  0.22480  0.43380  Biso   1.000  H
  H307     1.0000 0.13080  0.27520  0.93380  Biso   1.000  H
  H308     1.0000 0.36920  0.77520  0.56620  Biso   1.000  H
  C333     1.0000 0.96660  0.74340  0.02870  Biso   1.000  C
  C334     1.0000 0.53340  0.24340  0.47130  Biso   1.000  C
  C335     1.0000 0.03340  0.25660  0.97130  Biso   1.000  C
  C336     1.0000 0.46660  0.75660  0.52870  Biso   1.000  C
  H309     1.0000 0.93270  0.76030  0.02670  Biso   1.000  H
  H310     1.0000 0.56730  0.26030  0.47330  Biso   1.000  H
  H311     1.0000 0.06730  0.23970  0.97330  Biso   1.000  H
  H312     1.0000 0.43270  0.73970  0.52670  Biso   1.000  H
  C337     1.0000 0.06260  0.73910  0.00900  Biso   1.000  C
  C338     1.0000 0.43740  0.23910  0.49100  Biso   1.000  C
  C339     1.0000 0.93740  0.26090  0.99100  Biso   1.000  C
  C340     1.0000 0.56260  0.76090  0.50900  Biso   1.000  C
  C341     1.0000 0.10150  0.71330  0.00490  Biso   1.000  C
  C342     1.0000 0.39850  0.21330  0.49510  Biso   1.000  C
  C343     1.0000 0.89850  0.28670  0.99510  Biso   1.000  C
  C344     1.0000 0.60150  0.78670  0.50490  Biso   1.000  C
  H313     1.0000 0.15840  0.70960  0.98790  Biso   1.000  H
  H314     1.0000 0.34160  0.20960  0.51210  Biso   1.000  H
  H315     1.0000 0.84160  0.29040  0.01210  Biso   1.000  H
  H316     1.0000 0.65840  0.79040  0.48790  Biso   1.000  H
  C345     1.0000 0.04710  0.69230  0.02900  Biso   1.000  C
  C346     1.0000 0.45290  0.19230  0.47100  Biso   1.000  C
  C347     1.0000 0.95290  0.30770  0.97100  Biso   1.000  C
  C348     1.0000 0.54710  0.80770  0.52900  Biso   1.000  C
  H317     1.0000 0.07180  0.67440  0.02970  Biso   1.000  H
  H318     1.0000 0.42820  0.17440  0.47030  Biso   1.000  H
  H319     1.0000 0.92820  0.32560  0.97030  Biso   1.000  H
  H320     1.0000 0.57180  0.82560  0.52970  Biso   1.000  H
  C349     1.0000 0.11870  0.76310  0.99120  Biso   1.000  C
  C350     1.0000 0.38130  0.26310  0.50880  Biso   1.000  C
  C351     1.0000 0.88130  0.23690  0.00880  Biso   1.000  C
  C352     1.0000 0.61870  0.73690  0.49120  Biso   1.000  C
  C353     1.0000 0.09360  0.78910  0.99760  Biso   1.000  C
  C354     1.0000 0.40640  0.28910  0.50240  Biso   1.000  C
  C355     1.0000 0.90640  0.21090  0.00240  Biso   1.000  C
  C356     1.0000 0.59360  0.71090  0.49760  Biso   1.000  C
  H321     1.0000 0.03130  0.79240  0.01080  Biso   1.000  H
  H322     1.0000 0.46870  0.29240  0.48920  Biso   1.000  H
  H323     1.0000 0.96870  0.20760  0.98920  Biso   1.000  H
  H324     1.0000 0.53130  0.70760  0.51080  Biso   1.000  H
  C357     1.0000 0.15040  0.81140  0.98660  Biso   1.000  C
  C358     1.0000 0.34960  0.31140  0.51340  Biso   1.000  C
  C359     1.0000 0.84960  0.18860  0.01340  Biso   1.000  C
  C360     1.0000 0.65040  0.68860  0.48660  Biso   1.000  C
  H325     1.0000 0.13230  0.82910  0.99440  Biso   1.000  H
  H326     1.0000 0.36770  0.32910  0.50560  Biso   1.000  H
  H327     1.0000 0.86770  0.17090  0.00560  Biso   1.000  H
  H328     1.0000 0.63230  0.67090  0.49440  Biso   1.000  H
  C361     1.0000 0.26590  0.78020  0.95480  Biso   1.000  C
  C362     1.0000 0.23410  0.28020  0.54520  Biso   1.000  C
  C363     1.0000 0.73410  0.21980  0.04520  Biso   1.000  C
  C364     1.0000 0.76590  0.71980  0.45480  Biso   1.000  C
  H329     1.0000 0.32690  0.77700  0.94040  Biso   1.000  H
  H330     1.0000 0.17310  0.27700  0.55960  Biso   1.000  H
  H331     1.0000 0.67310  0.22300  0.05960  Biso   1.000  H
  H332     1.0000 0.82690  0.72300  0.44040  Biso   1.000  H
  C365     1.0000 0.20940  0.75950  0.96680  Biso   1.000  C
  C366     1.0000 0.29060  0.25950  0.53320  Biso   1.000  C
  C367     1.0000 0.79060  0.24050  0.03320  Biso   1.000  C
  C368     1.0000 0.70940  0.74050  0.46680  Biso   1.000  C
  H333     1.0000 0.22920  0.74190  0.95910  Biso   1.000  H
  H334     1.0000 0.27080  0.24190  0.54090  Biso   1.000  H
  H335     1.0000 0.77080  0.25810  0.04090  Biso   1.000  H
  H336     1.0000 0.72920  0.75810  0.45910  Biso   1.000  H
  C369     1.0000 0.30750  0.82840  0.95280  Biso   1.000  C
  C370     1.0000 0.19250  0.32840  0.54720  Biso   1.000  C
  C371     1.0000 0.69250  0.17160  0.04720  Biso   1.000  C
  C372     1.0000 0.80750  0.67160  0.45280  Biso   1.000  C
  H337     1.0000 0.26450  0.84450  0.94270  Biso   1.000  H
  H338     1.0000 0.23550  0.34450  0.55730  Biso   1.000  H
  H339     1.0000 0.73550  0.15550  0.05730  Biso   1.000  H
  H340     1.0000 0.76450  0.65550  0.44270  Biso   1.000  H
  H341     1.0000 0.34530  0.82370  0.92520  Biso   1.000  H
  H342     1.0000 0.15470  0.32370  0.57480  Biso   1.000  H
  H343     1.0000 0.65470  0.17630  0.07480  Biso   1.000  H
  H344     1.0000 0.84530  0.67630  0.42520  Biso   1.000  H
  C373     1.0000 0.38800  0.83410  0.00200  Biso   1.000  C
  C374     1.0000 0.11200  0.33410  0.49800  Biso   1.000  C
  C375     1.0000 0.61200  0.16590  0.99800  Biso   1.000  C
  C376     1.0000 0.88800  0.66590  0.50200  Biso   1.000  C
  C377     1.0000 0.36390  0.85070  0.04010  Biso   1.000  C
  C378     1.0000 0.13610  0.35070  0.45990  Biso   1.000  C
  C379     1.0000 0.63610  0.14930  0.95990  Biso   1.000  C
  C380     1.0000 0.86390  0.64930  0.54010  Biso   1.000  C
  H345     1.0000 0.30050  0.86070  0.03430  Biso   1.000  H
  H346     1.0000 0.19950  0.36070  0.46570  Biso   1.000  H
  H347     1.0000 0.69950  0.13930  0.96570  Biso   1.000  H
  H348     1.0000 0.80050  0.63930  0.53430  Biso   1.000  H
  C381     1.0000 0.42950  0.85290  0.08590  Biso   1.000  C
  C382     1.0000 0.07050  0.35290  0.41410  Biso   1.000  C
  C383     1.0000 0.57050  0.14710  0.91410  Biso   1.000  C
  C384     1.0000 0.92950  0.64710  0.58590  Biso   1.000  C
  H349     1.0000 0.41270  0.86420  0.11150  Biso   1.000  H
  H350     1.0000 0.08730  0.36420  0.38850  Biso   1.000  H
  H351     1.0000 0.58730  0.13580  0.88850  Biso   1.000  H
  H352     1.0000 0.91270  0.63580  0.61150  Biso   1.000  H
  C385     1.0000 0.52370  0.83740  0.09340  Biso   1.000  C
  C386     1.0000 0.97630  0.33740  0.40660  Biso   1.000  C
  C387     1.0000 0.47630  0.16260  0.90660  Biso   1.000  C
  C388     1.0000 0.02370  0.66260  0.59340  Biso   1.000  C
  C389     1.0000 0.54790  0.82230  0.05480  Biso   1.000  C
  C390     1.0000 0.95210  0.32230  0.44520  Biso   1.000  C
  C391     1.0000 0.45210  0.17770  0.94520  Biso   1.000  C
  C392     1.0000 0.04790  0.67770  0.55480  Biso   1.000  C
  H353     1.0000 0.61170  0.81240  0.06000  Biso   1.000  H
  H354     1.0000 0.88830  0.31240  0.44000  Biso   1.000  H
  H355     1.0000 0.38830  0.18760  0.94000  Biso   1.000  H
  H356     1.0000 0.11170  0.68760  0.56000  Biso   1.000  H
  C393     1.0000 0.48560  0.82090  0.01050  Biso   1.000  C
  C394     1.0000 0.01440  0.32090  0.48950  Biso   1.000  C
  C395     1.0000 0.51440  0.17910  0.98950  Biso   1.000  C
  C396     1.0000 0.98560  0.67910  0.51050  Biso   1.000  C
  H357     1.0000 0.50700  0.81090  0.98420  Biso   1.000  H
  H358     1.0000 0.99300  0.31090  0.51580  Biso   1.000  H
  H359     1.0000 0.49300  0.18910  0.01580  Biso   1.000  H
  H360     1.0000 0.00700  0.68910  0.48420  Biso   1.000  H
  C397     1.0000 0.58470  0.83650  0.14800  Biso   1.000  C
  C398     1.0000 0.91530  0.33650  0.35200  Biso   1.000  C
  C399     1.0000 0.41530  0.16350  0.85200  Biso   1.000  C
  C400     1.0000 0.08470  0.66350  0.64800  Biso   1.000  C
  H361     1.0000 0.66100  0.83460  0.14790  Biso   1.000  H
  H362     1.0000 0.83900  0.33460  0.35210  Biso   1.000  H
  H363     1.0000 0.33900  0.16540  0.85210  Biso   1.000  H
  H364     1.0000 0.16100  0.66540  0.64790  Biso   1.000  H
  H365     1.0000 0.57330  0.85330  0.16560  Biso   1.000  H
  H366     1.0000 0.92670  0.35330  0.33440  Biso   1.000  H
  H367     1.0000 0.42670  0.14670  0.83440  Biso   1.000  H
  H368     1.0000 0.07330  0.64670  0.66560  Biso   1.000  H
  C401     1.0000 0.20030  0.68210  0.26980  Biso   1.000  C
  C402     1.0000 0.29970  0.18210  0.23020  Biso   1.000  C
  C403     1.0000 0.79970  0.31790  0.73020  Biso   1.000  C
  C404     1.0000 0.70030  0.81790  0.76980  Biso   1.000  C
  H369     1.0000 0.16550  0.68700  0.29840  Biso   1.000  H
  H370     1.0000 0.33450  0.18700  0.20160  Biso   1.000  H
  H371     1.0000 0.83450  0.31300  0.70160  Biso   1.000  H
  H372     1.0000 0.66550  0.81300  0.79840  Biso   1.000  H
  H373     1.0000 0.24020  0.66540  0.27850  Biso   1.000  H
  H374     1.0000 0.25980  0.16540  0.22150  Biso   1.000  H
  H375     1.0000 0.75980  0.33460  0.72150  Biso   1.000  H
  H376     1.0000 0.74020  0.83460  0.77850  Biso   1.000  H
  C405     1.0000 0.11880  0.67770  0.22410  Biso   1.000  C
  C406     1.0000 0.38120  0.17770  0.27590  Biso   1.000  C
  C407     1.0000 0.88120  0.32230  0.77590  Biso   1.000  C
  C408     1.0000 0.61880  0.82230  0.72410  Biso   1.000  C
  C409     1.0000 0.01950  0.68890  0.21310  Biso   1.000  C
  C410     1.0000 0.48050  0.18890  0.28690  Biso   1.000  C
  C411     1.0000 0.98050  0.31110  0.78690  Biso   1.000  C
  C412     1.0000 0.51950  0.81110  0.71310  Biso   1.000  C
  H377     1.0000 0.99290  0.69760  0.23950  Biso   1.000  H
  H378     1.0000 0.50710  0.19760  0.26050  Biso   1.000  H
  H379     1.0000 0.00710  0.30240  0.76050  Biso   1.000  H
  H380     1.0000 0.49290  0.80240  0.73950  Biso   1.000  H
  C413     1.0000 0.95700  0.68840  0.16670  Biso   1.000  C
  C414     1.0000 0.54300  0.18840  0.33330  Biso   1.000  C
  C415     1.0000 0.04300  0.31160  0.83330  Biso   1.000  C
  C416     1.0000 0.45700  0.81160  0.66670  Biso   1.000  C
  H381     1.0000 0.89170  0.69760  0.15980  Biso   1.000  H
  H382     1.0000 0.60830  0.19760  0.34020  Biso   1.000  H
  H383     1.0000 0.10830  0.30240  0.84020  Biso   1.000  H
  H384     1.0000 0.39170  0.80240  0.65980  Biso   1.000  H
  C417     1.0000 0.99610  0.67330  0.12940  Biso   1.000  C
  C418     1.0000 0.50390  0.17330  0.37060  Biso   1.000  C
  C419     1.0000 0.00390  0.32670  0.87060  Biso   1.000  C
  C420     1.0000 0.49610  0.82670  0.62940  Biso   1.000  C
  C421     1.0000 0.08160  0.65930  0.14190  Biso   1.000  C
  C422     1.0000 0.41840  0.15930  0.35810  Biso   1.000  C
  C423     1.0000 0.91840  0.34070  0.85810  Biso   1.000  C
  C424     1.0000 0.58160  0.84070  0.64190  Biso   1.000  C
  H385     1.0000 0.09920  0.64700  0.11800  Biso   1.000  H
  H386     1.0000 0.40080  0.14700  0.38200  Biso   1.000  H
  H387     1.0000 0.90080  0.35300  0.88200  Biso   1.000  H
  H388     1.0000 0.59920  0.85300  0.61800  Biso   1.000  H
  C425     1.0000 0.14850  0.66130  0.18760  Biso   1.000  C
  C426     1.0000 0.35150  0.16130  0.31240  Biso   1.000  C
  C427     1.0000 0.85150  0.33870  0.81240  Biso   1.000  C
  C428     1.0000 0.64850  0.83870  0.68760  Biso   1.000  C
  H389     1.0000 0.21290  0.65170  0.19390  Biso   1.000  H
  H390     1.0000 0.28710  0.15170  0.30610  Biso   1.000  H
  H391     1.0000 0.78710  0.34830  0.80610  Biso   1.000  H
  H392     1.0000 0.71290  0.84830  0.69390  Biso   1.000  H
  C429     1.0000 0.92850  0.67540  0.07760  Biso   1.000  C
  C430     1.0000 0.57150  0.17540  0.42240  Biso   1.000  C
  C431     1.0000 0.07150  0.32460  0.92240  Biso   1.000  C
  C432     1.0000 0.42850  0.82460  0.57760  Biso   1.000  C
  H393     1.0000 0.93270  0.65850  0.05900  Biso   1.000  H
  H394     1.0000 0.56730  0.15850  0.44100  Biso   1.000  H
  H395     1.0000 0.06730  0.34150  0.94100  Biso   1.000  H
  H396     1.0000 0.43270  0.84150  0.55900  Biso   1.000  H
  H397     1.0000 0.85420  0.67830  0.08090  Biso   1.000  H
  H398     1.0000 0.64580  0.17830  0.41910  Biso   1.000  H
  H399     1.0000 0.14580  0.32170  0.91910  Biso   1.000  H
  H400     1.0000 0.35420  0.82170  0.58090  Biso   1.000  H
