data_image0
_cell_length_a       31.125
_cell_length_b       31.125
_cell_length_c       10.133
_cell_angle_alpha    90
_cell_angle_beta     90
_cell_angle_gamma    120

_symmetry_space_group_name_H-M    "P 1"
_symmetry_int_tables_number       1

loop_
  _symmetry_equiv_pos_as_xyz
  'x, y, z'

loop_
  _atom_site_label
  _atom_site_occupancy
  _atom_site_fract_x
  _atom_site_fract_y
  _atom_site_fract_z
  _atom_site_thermal_displace_type
  _atom_site_B_iso_or_equiv
  _atom_site_type_symbol
  Cu1      1.0000 0.91869  0.61493  0.69823  Biso   1.000  Cu
  Cu2      1.0000 0.38507  0.30376  0.69823  Biso   1.000  Cu
  Cu3      1.0000 0.69624  0.08131  0.69823  Biso   1.000  Cu
  Cu4      1.0000 0.58536  0.94826  0.03156  Biso   1.000  Cu
  Cu5      1.0000 0.05174  0.63709  0.03156  Biso   1.000  Cu
  Cu6      1.0000 0.36291  0.41464  0.03156  Biso   1.000  Cu
  Cu7      1.0000 0.25202  0.28160  0.36490  Biso   1.000  Cu
  Cu8      1.0000 0.71840  0.97043  0.36490  Biso   1.000  Cu
  Cu9      1.0000 0.02957  0.74798  0.36490  Biso   1.000  Cu
  Cu10     1.0000 0.08131  0.38507  0.30177  Biso   1.000  Cu
  Cu11     1.0000 0.61493  0.69624  0.30177  Biso   1.000  Cu
  Cu12     1.0000 0.30376  0.91869  0.30177  Biso   1.000  Cu
  Cu13     1.0000 0.74798  0.71840  0.63510  Biso   1.000  Cu
  Cu14     1.0000 0.28160  0.02957  0.63510  Biso   1.000  Cu
  Cu15     1.0000 0.97043  0.25202  0.63510  Biso   1.000  Cu
  Cu16     1.0000 0.41464  0.05174  0.96844  Biso   1.000  Cu
  Cu17     1.0000 0.94826  0.36291  0.96844  Biso   1.000  Cu
  Cu18     1.0000 0.63709  0.58536  0.96844  Biso   1.000  Cu
  S1       1.0000 0.81264  0.54406  0.84485  Biso   1.000  S
  S2       1.0000 0.45594  0.26858  0.84485  Biso   1.000  S
  S3       1.0000 0.73142  0.18736  0.84485  Biso   1.000  S
  S4       1.0000 0.47931  0.87739  0.17818  Biso   1.000  S
  S5       1.0000 0.12261  0.60191  0.17818  Biso   1.000  S
  S6       1.0000 0.39809  0.52069  0.17818  Biso   1.000  S
  S7       1.0000 0.14597  0.21073  0.51152  Biso   1.000  S
  S8       1.0000 0.78927  0.93525  0.51152  Biso   1.000  S
  S9       1.0000 0.06475  0.85403  0.51152  Biso   1.000  S
  S10      1.0000 0.18736  0.45594  0.15515  Biso   1.000  S
  S11      1.0000 0.54406  0.73142  0.15515  Biso   1.000  S
  S12      1.0000 0.26858  0.81264  0.15515  Biso   1.000  S
  S13      1.0000 0.85403  0.78927  0.48848  Biso   1.000  S
  S14      1.0000 0.21073  0.06475  0.48848  Biso   1.000  S
  S15      1.0000 0.93525  0.14597  0.48848  Biso   1.000  S
  S16      1.0000 0.52069  0.12261  0.82182  Biso   1.000  S
  S17      1.0000 0.87739  0.39809  0.82182  Biso   1.000  S
  S18      1.0000 0.60191  0.47931  0.82182  Biso   1.000  S
  O1       1.0000 0.96602  0.62350  0.83687  Biso   1.000  O
  O2       1.0000 0.37650  0.34252  0.83687  Biso   1.000  O
  O3       1.0000 0.65748  0.03398  0.83687  Biso   1.000  O
  O4       1.0000 0.63269  0.95683  0.17020  Biso   1.000  O
  O5       1.0000 0.04317  0.67585  0.17020  Biso   1.000  O
  O6       1.0000 0.32415  0.36731  0.17020  Biso   1.000  O
  O7       1.0000 0.29935  0.29017  0.50354  Biso   1.000  O
  O8       1.0000 0.70983  0.00919  0.50354  Biso   1.000  O
  O9       1.0000 0.99081  0.70065  0.50354  Biso   1.000  O
  O10      1.0000 0.03398  0.37650  0.16313  Biso   1.000  O
  O11      1.0000 0.62350  0.65748  0.16313  Biso   1.000  O
  O12      1.0000 0.34252  0.96602  0.16313  Biso   1.000  O
  O13      1.0000 0.70065  0.70983  0.49646  Biso   1.000  O
  O14      1.0000 0.29017  0.99081  0.49646  Biso   1.000  O
  O15      1.0000 0.00919  0.29935  0.49646  Biso   1.000  O
  O16      1.0000 0.36731  0.04317  0.82980  Biso   1.000  O
  O17      1.0000 0.95683  0.32415  0.82980  Biso   1.000  O
  O18      1.0000 0.67585  0.63269  0.82980  Biso   1.000  O
  O19      1.0000 0.97650  0.59615  0.02793  Biso   1.000  O
  O20      1.0000 0.40385  0.38035  0.02793  Biso   1.000  O
  O21      1.0000 0.61965  0.02350  0.02793  Biso   1.000  O
  O22      1.0000 0.64317  0.92948  0.36126  Biso   1.000  O
  O23      1.0000 0.07052  0.71368  0.36126  Biso   1.000  O
  O24      1.0000 0.28632  0.35683  0.36126  Biso   1.000  O
  O25      1.0000 0.30983  0.26282  0.69460  Biso   1.000  O
  O26      1.0000 0.73718  0.04702  0.69460  Biso   1.000  O
  O27      1.0000 0.95298  0.69017  0.69460  Biso   1.000  O
  O28      1.0000 0.02350  0.40385  0.97207  Biso   1.000  O
  O29      1.0000 0.59615  0.61965  0.97207  Biso   1.000  O
  O30      1.0000 0.38035  0.97650  0.97207  Biso   1.000  O
  O31      1.0000 0.69017  0.73718  0.30540  Biso   1.000  O
  O32      1.0000 0.26282  0.95298  0.30540  Biso   1.000  O
  O33      1.0000 0.04702  0.30983  0.30540  Biso   1.000  O
  O34      1.0000 0.35683  0.07052  0.63874  Biso   1.000  O
  O35      1.0000 0.92948  0.28632  0.63874  Biso   1.000  O
  O36      1.0000 0.71368  0.64317  0.63874  Biso   1.000  O
  O37      1.0000 0.79534  0.51970  0.97045  Biso   1.000  O
  O38      1.0000 0.48030  0.27564  0.97045  Biso   1.000  O
  O39      1.0000 0.72436  0.20466  0.97045  Biso   1.000  O
  O40      1.0000 0.46201  0.85303  0.30378  Biso   1.000  O
  O41      1.0000 0.14697  0.60897  0.30378  Biso   1.000  O
  O42      1.0000 0.39103  0.53799  0.30378  Biso   1.000  O
  O43      1.0000 0.12867  0.18637  0.63712  Biso   1.000  O
  O44      1.0000 0.81363  0.94231  0.63712  Biso   1.000  O
  O45      1.0000 0.05769  0.87133  0.63712  Biso   1.000  O
  O46      1.0000 0.20466  0.48030  0.02955  Biso   1.000  O
  O47      1.0000 0.51970  0.72436  0.02955  Biso   1.000  O
  O48      1.0000 0.27564  0.79534  0.02955  Biso   1.000  O
  O49      1.0000 0.87133  0.81363  0.36288  Biso   1.000  O
  O50      1.0000 0.18637  0.05769  0.36288  Biso   1.000  O
  O51      1.0000 0.94231  0.12867  0.36288  Biso   1.000  O
  O52      1.0000 0.53799  0.14697  0.69622  Biso   1.000  O
  O53      1.0000 0.85303  0.39103  0.69622  Biso   1.000  O
  O54      1.0000 0.60897  0.46201  0.69622  Biso   1.000  O
  O55      1.0000 0.79736  0.57902  0.80803  Biso   1.000  O
  O56      1.0000 0.42098  0.21834  0.80803  Biso   1.000  O
  O57      1.0000 0.78166  0.20264  0.80803  Biso   1.000  O
  O58      1.0000 0.46403  0.91235  0.14136  Biso   1.000  O
  O59      1.0000 0.08765  0.55167  0.14136  Biso   1.000  O
  O60      1.0000 0.44833  0.53597  0.14136  Biso   1.000  O
  O61      1.0000 0.13069  0.24569  0.47470  Biso   1.000  O
  O62      1.0000 0.75431  0.88501  0.47470  Biso   1.000  O
  O63      1.0000 0.11499  0.86931  0.47470  Biso   1.000  O
  O64      1.0000 0.20264  0.42098  0.19197  Biso   1.000  O
  O65      1.0000 0.57902  0.78166  0.19197  Biso   1.000  O
  O66      1.0000 0.21834  0.79736  0.19197  Biso   1.000  O
  O67      1.0000 0.86931  0.75431  0.52530  Biso   1.000  O
  O68      1.0000 0.24569  0.11499  0.52530  Biso   1.000  O
  O69      1.0000 0.88501  0.13069  0.52530  Biso   1.000  O
  O70      1.0000 0.53597  0.08765  0.85864  Biso   1.000  O
  O71      1.0000 0.91235  0.44833  0.85864  Biso   1.000  O
  O72      1.0000 0.55167  0.46403  0.85864  Biso   1.000  O
  O73      1.0000 0.69391  0.50036  0.43490  Biso   1.000  O
  O74      1.0000 0.49964  0.19355  0.43490  Biso   1.000  O
  O75      1.0000 0.80645  0.30609  0.43490  Biso   1.000  O
  O76      1.0000 0.36058  0.83369  0.76823  Biso   1.000  O
  O77      1.0000 0.16631  0.52688  0.76823  Biso   1.000  O
  O78      1.0000 0.47312  0.63942  0.76823  Biso   1.000  O
  O79      1.0000 0.02724  0.16703  0.10157  Biso   1.000  O
  O80      1.0000 0.83297  0.86022  0.10157  Biso   1.000  O
  O81      1.0000 0.13978  0.97276  0.10157  Biso   1.000  O
  O82      1.0000 0.30609  0.49964  0.56510  Biso   1.000  O
  O83      1.0000 0.50036  0.80645  0.56510  Biso   1.000  O
  O84      1.0000 0.19355  0.69391  0.56510  Biso   1.000  O
  O85      1.0000 0.97276  0.83297  0.89843  Biso   1.000  O
  O86      1.0000 0.16703  0.13978  0.89843  Biso   1.000  O
  O87      1.0000 0.86022  0.02724  0.89843  Biso   1.000  O
  O88      1.0000 0.63942  0.16631  0.23177  Biso   1.000  O
  O89      1.0000 0.83369  0.47312  0.23177  Biso   1.000  O
  O90      1.0000 0.52688  0.36058  0.23177  Biso   1.000  O
  O91      1.0000 0.65803  0.42132  0.41130  Biso   1.000  O
  O92      1.0000 0.57868  0.23671  0.41130  Biso   1.000  O
  O93      1.0000 0.76329  0.34197  0.41130  Biso   1.000  O
  O94      1.0000 0.32470  0.75465  0.74463  Biso   1.000  O
  O95      1.0000 0.24535  0.57004  0.74463  Biso   1.000  O
  O96      1.0000 0.42996  0.67530  0.74463  Biso   1.000  O
  O97      1.0000 0.99136  0.08799  0.07797  Biso   1.000  O
  O98      1.0000 0.91201  0.90338  0.07797  Biso   1.000  O
  O99      1.0000 0.09662  0.00864  0.07797  Biso   1.000  O
  O100     1.0000 0.34197  0.57868  0.58870  Biso   1.000  O
  O101     1.0000 0.42132  0.76329  0.58870  Biso   1.000  O
  O102     1.0000 0.23671  0.65803  0.58870  Biso   1.000  O
  O103     1.0000 0.00864  0.91201  0.92203  Biso   1.000  O
  O104     1.0000 0.08799  0.09662  0.92203  Biso   1.000  O
  O105     1.0000 0.90338  0.99136  0.92203  Biso   1.000  O
  O106     1.0000 0.67530  0.24535  0.25537  Biso   1.000  O
  O107     1.0000 0.75465  0.42996  0.25537  Biso   1.000  O
  O108     1.0000 0.57004  0.32470  0.25537  Biso   1.000  O
  N1       1.0000 0.87009  0.56722  0.83157  Biso   1.000  N
  N2       1.0000 0.43278  0.30287  0.83157  Biso   1.000  N
  N3       1.0000 0.69713  0.12991  0.83157  Biso   1.000  N
  N4       1.0000 0.53676  0.90055  0.16490  Biso   1.000  N
  N5       1.0000 0.09945  0.63620  0.16490  Biso   1.000  N
  N6       1.0000 0.36380  0.46324  0.16490  Biso   1.000  N
  N7       1.0000 0.20342  0.23389  0.49824  Biso   1.000  N
  N8       1.0000 0.76611  0.96954  0.49824  Biso   1.000  N
  N9       1.0000 0.03046  0.79658  0.49824  Biso   1.000  N
  N10      1.0000 0.12991  0.43278  0.16843  Biso   1.000  N
  N11      1.0000 0.56722  0.69713  0.16843  Biso   1.000  N
  N12      1.0000 0.30287  0.87009  0.16843  Biso   1.000  N
  N13      1.0000 0.79658  0.76611  0.50176  Biso   1.000  N
  N14      1.0000 0.23389  0.03046  0.50176  Biso   1.000  N
  N15      1.0000 0.96954  0.20342  0.50176  Biso   1.000  N
  N16      1.0000 0.46324  0.09945  0.83510  Biso   1.000  N
  N17      1.0000 0.90055  0.36380  0.83510  Biso   1.000  N
  N18      1.0000 0.63620  0.53676  0.83510  Biso   1.000  N
  N19      1.0000 0.68978  0.46048  0.45910  Biso   1.000  N
  N20      1.0000 0.53952  0.22930  0.45910  Biso   1.000  N
  N21      1.0000 0.77070  0.31022  0.45910  Biso   1.000  N
  N22      1.0000 0.35645  0.79381  0.79243  Biso   1.000  N
  N23      1.0000 0.20619  0.56263  0.79243  Biso   1.000  N
  N24      1.0000 0.43737  0.64355  0.79243  Biso   1.000  N
  N25      1.0000 0.02311  0.12715  0.12577  Biso   1.000  N
  N26      1.0000 0.87285  0.89597  0.12577  Biso   1.000  N
  N27      1.0000 0.10403  0.97689  0.12577  Biso   1.000  N
  N28      1.0000 0.31022  0.53952  0.54090  Biso   1.000  N
  N29      1.0000 0.46048  0.77070  0.54090  Biso   1.000  N
  N30      1.0000 0.22930  0.68978  0.54090  Biso   1.000  N
  N31      1.0000 0.97689  0.87285  0.87423  Biso   1.000  N
  N32      1.0000 0.12715  0.10403  0.87423  Biso   1.000  N
  N33      1.0000 0.89597  0.02311  0.87423  Biso   1.000  N
  N34      1.0000 0.64355  0.20619  0.20757  Biso   1.000  N
  N35      1.0000 0.79381  0.43737  0.20757  Biso   1.000  N
  N36      1.0000 0.56263  0.35645  0.20757  Biso   1.000  N
  N37      1.0000 0.70273  0.60979  0.08981  Biso   1.000  N
  N38      1.0000 0.39021  0.09294  0.08981  Biso   1.000  N
  N39      1.0000 0.90706  0.29727  0.08981  Biso   1.000  N
  N40      1.0000 0.36940  0.94312  0.42314  Biso   1.000  N
  N41      1.0000 0.05688  0.42627  0.42314  Biso   1.000  N
  N42      1.0000 0.57373  0.63060  0.42314  Biso   1.000  N
  N43      1.0000 0.03606  0.27646  0.75648  Biso   1.000  N
  N44      1.0000 0.72354  0.75961  0.75648  Biso   1.000  N
  N45      1.0000 0.24039  0.96394  0.75648  Biso   1.000  N
  N46      1.0000 0.29727  0.39021  0.91019  Biso   1.000  N
  N47      1.0000 0.60979  0.90706  0.91019  Biso   1.000  N
  N48      1.0000 0.09294  0.70273  0.91019  Biso   1.000  N
  N49      1.0000 0.96394  0.72354  0.24352  Biso   1.000  N
  N50      1.0000 0.27646  0.24039  0.24352  Biso   1.000  N
  N51      1.0000 0.75961  0.03606  0.24352  Biso   1.000  N
  N52      1.0000 0.63060  0.05688  0.57686  Biso   1.000  N
  N53      1.0000 0.94312  0.57373  0.57686  Biso   1.000  N
  N54      1.0000 0.42627  0.36940  0.57686  Biso   1.000  N
  N55      1.0000 0.87125  0.60984  0.55560  Biso   1.000  N
  N56      1.0000 0.39016  0.26141  0.55560  Biso   1.000  N
  N57      1.0000 0.73859  0.12875  0.55560  Biso   1.000  N
  N58      1.0000 0.53792  0.94317  0.88893  Biso   1.000  N
  N59      1.0000 0.05683  0.59474  0.88893  Biso   1.000  N
  N60      1.0000 0.40526  0.46208  0.88893  Biso   1.000  N
  N61      1.0000 0.20458  0.27651  0.22227  Biso   1.000  N
  N62      1.0000 0.72349  0.92808  0.22227  Biso   1.000  N
  N63      1.0000 0.07192  0.79542  0.22227  Biso   1.000  N
  N64      1.0000 0.12875  0.39016  0.44440  Biso   1.000  N
  N65      1.0000 0.60984  0.73859  0.44440  Biso   1.000  N
  N66      1.0000 0.26141  0.87125  0.44440  Biso   1.000  N
  N67      1.0000 0.79542  0.72349  0.77773  Biso   1.000  N
  N68      1.0000 0.27651  0.07192  0.77773  Biso   1.000  N
  N69      1.0000 0.92808  0.20458  0.77773  Biso   1.000  N
  N70      1.0000 0.46208  0.05683  0.11107  Biso   1.000  N
  N71      1.0000 0.94317  0.40526  0.11107  Biso   1.000  N
  N72      1.0000 0.59474  0.53792  0.11107  Biso   1.000  N
  C1       1.0000 0.94988  0.59577  0.93500  Biso   1.000  C
  C2       1.0000 0.40423  0.35411  0.93500  Biso   1.000  C
  C3       1.0000 0.64589  0.05012  0.93500  Biso   1.000  C
  C4       1.0000 0.61655  0.92910  0.26833  Biso   1.000  C
  C5       1.0000 0.07090  0.68744  0.26833  Biso   1.000  C
  C6       1.0000 0.31256  0.38345  0.26833  Biso   1.000  C
  C7       1.0000 0.28321  0.26244  0.60167  Biso   1.000  C
  C8       1.0000 0.73756  0.02078  0.60167  Biso   1.000  C
  C9       1.0000 0.97922  0.71679  0.60167  Biso   1.000  C
  C10      1.0000 0.05012  0.40423  0.06500  Biso   1.000  C
  C11      1.0000 0.59577  0.64589  0.06500  Biso   1.000  C
  C12      1.0000 0.35411  0.94988  0.06500  Biso   1.000  C
  C13      1.0000 0.71679  0.73756  0.39833  Biso   1.000  C
  C14      1.0000 0.26244  0.97922  0.39833  Biso   1.000  C
  C15      1.0000 0.02078  0.28321  0.39833  Biso   1.000  C
  C16      1.0000 0.38345  0.07090  0.73167  Biso   1.000  C
  C17      1.0000 0.92910  0.31256  0.73167  Biso   1.000  C
  C18      1.0000 0.68744  0.61655  0.73167  Biso   1.000  C
  C19      1.0000 0.89581  0.55827  0.93970  Biso   1.000  C
  C20      1.0000 0.44173  0.33754  0.93970  Biso   1.000  C
  C21      1.0000 0.66246  0.10419  0.93970  Biso   1.000  C
  C22      1.0000 0.56248  0.89160  0.27303  Biso   1.000  C
  C23      1.0000 0.10840  0.67087  0.27303  Biso   1.000  C
  C24      1.0000 0.32913  0.43752  0.27303  Biso   1.000  C
  C25      1.0000 0.22914  0.22494  0.60637  Biso   1.000  C
  C26      1.0000 0.77506  0.00421  0.60637  Biso   1.000  C
  C27      1.0000 0.99579  0.77086  0.60637  Biso   1.000  C
  C28      1.0000 0.10419  0.44173  0.06030  Biso   1.000  C
  C29      1.0000 0.55827  0.66246  0.06030  Biso   1.000  C
  C30      1.0000 0.33754  0.89581  0.06030  Biso   1.000  C
  C31      1.0000 0.77086  0.77506  0.39363  Biso   1.000  C
  C32      1.0000 0.22494  0.99579  0.39363  Biso   1.000  C
  C33      1.0000 0.00421  0.22914  0.39363  Biso   1.000  C
  C34      1.0000 0.43752  0.10840  0.72697  Biso   1.000  C
  C35      1.0000 0.89160  0.32913  0.72697  Biso   1.000  C
  C36      1.0000 0.67087  0.56248  0.72697  Biso   1.000  C
  H1       1.0000 0.89121  0.52516  0.93201  Biso   1.000  H
  H2       1.0000 0.47484  0.36605  0.93201  Biso   1.000  H
  H3       1.0000 0.63395  0.10879  0.93201  Biso   1.000  H
  H4       1.0000 0.55788  0.85849  0.26534  Biso   1.000  H
  H5       1.0000 0.14151  0.69938  0.26534  Biso   1.000  H
  H6       1.0000 0.30062  0.44212  0.26534  Biso   1.000  H
  H7       1.0000 0.22454  0.19183  0.59868  Biso   1.000  H
  H8       1.0000 0.80817  0.03272  0.59868  Biso   1.000  H
  H9       1.0000 0.96728  0.77546  0.59868  Biso   1.000  H
  H10      1.0000 0.10879  0.47484  0.06799  Biso   1.000  H
  H11      1.0000 0.52516  0.63395  0.06799  Biso   1.000  H
  H12      1.0000 0.36605  0.89121  0.06799  Biso   1.000  H
  H13      1.0000 0.77546  0.80817  0.40132  Biso   1.000  H
  H14      1.0000 0.19183  0.96728  0.40132  Biso   1.000  H
  H15      1.0000 0.03272  0.22454  0.40132  Biso   1.000  H
  H16      1.0000 0.44212  0.14151  0.73466  Biso   1.000  H
  H17      1.0000 0.85849  0.30062  0.73466  Biso   1.000  H
  H18      1.0000 0.69938  0.55788  0.73466  Biso   1.000  H
  H19      1.0000 0.88203  0.56056  0.02352  Biso   1.000  H
  H20      1.0000 0.43944  0.32147  0.02352  Biso   1.000  H
  H21      1.0000 0.67853  0.11797  0.02352  Biso   1.000  H
  H22      1.0000 0.54870  0.89389  0.35685  Biso   1.000  H
  H23      1.0000 0.10611  0.65480  0.35685  Biso   1.000  H
  H24      1.0000 0.34520  0.45130  0.35685  Biso   1.000  H
  H25      1.0000 0.21536  0.22723  0.69019  Biso   1.000  H
  H26      1.0000 0.77277  0.98814  0.69019  Biso   1.000  H
  H27      1.0000 0.01186  0.78464  0.69019  Biso   1.000  H
  H28      1.0000 0.11797  0.43944  0.97648  Biso   1.000  H
  H29      1.0000 0.56056  0.67853  0.97648  Biso   1.000  H
  H30      1.0000 0.32147  0.88203  0.97648  Biso   1.000  H
  H31      1.0000 0.78464  0.77277  0.30981  Biso   1.000  H
  H32      1.0000 0.22723  0.01186  0.30981  Biso   1.000  H
  H33      1.0000 0.98814  0.21536  0.30981  Biso   1.000  H
  H34      1.0000 0.45130  0.10611  0.64315  Biso   1.000  H
  H35      1.0000 0.89389  0.34520  0.64315  Biso   1.000  H
  H36      1.0000 0.65480  0.54870  0.64315  Biso   1.000  H
  C37      1.0000 0.78311  0.49621  0.72560  Biso   1.000  C
  C38      1.0000 0.50379  0.28690  0.72560  Biso   1.000  C
  C39      1.0000 0.71310  0.21689  0.72560  Biso   1.000  C
  C40      1.0000 0.44978  0.82954  0.05893  Biso   1.000  C
  C41      1.0000 0.17046  0.62023  0.05893  Biso   1.000  C
  C42      1.0000 0.37977  0.55022  0.05893  Biso   1.000  C
  C43      1.0000 0.11644  0.16288  0.39227  Biso   1.000  C
  C44      1.0000 0.83712  0.95357  0.39227  Biso   1.000  C
  C45      1.0000 0.04643  0.88356  0.39227  Biso   1.000  C
  C46      1.0000 0.21689  0.50379  0.27440  Biso   1.000  C
  C47      1.0000 0.49621  0.71310  0.27440  Biso   1.000  C
  C48      1.0000 0.28690  0.78311  0.27440  Biso   1.000  C
  C49      1.0000 0.88356  0.83712  0.60773  Biso   1.000  C
  C50      1.0000 0.16288  0.04643  0.60773  Biso   1.000  C
  C51      1.0000 0.95357  0.11644  0.60773  Biso   1.000  C
  C52      1.0000 0.55022  0.17046  0.94107  Biso   1.000  C
  C53      1.0000 0.82954  0.37977  0.94107  Biso   1.000  C
  C54      1.0000 0.62023  0.44978  0.94107  Biso   1.000  C
  C55      1.0000 0.75084  0.49837  0.63590  Biso   1.000  C
  C56      1.0000 0.50163  0.25247  0.63590  Biso   1.000  C
  C57      1.0000 0.74753  0.24916  0.63590  Biso   1.000  C
  C58      1.0000 0.41751  0.83170  0.96923  Biso   1.000  C
  C59      1.0000 0.16830  0.58580  0.96923  Biso   1.000  C
  C60      1.0000 0.41420  0.58249  0.96923  Biso   1.000  C
  C61      1.0000 0.08417  0.16504  0.30257  Biso   1.000  C
  C62      1.0000 0.83496  0.91914  0.30257  Biso   1.000  C
  C63      1.0000 0.08086  0.91583  0.30257  Biso   1.000  C
  C64      1.0000 0.24916  0.50163  0.36410  Biso   1.000  C
  C65      1.0000 0.49837  0.74753  0.36410  Biso   1.000  C
  C66      1.0000 0.25247  0.75084  0.36410  Biso   1.000  C
  C67      1.0000 0.91583  0.83496  0.69743  Biso   1.000  C
  C68      1.0000 0.16504  0.08086  0.69743  Biso   1.000  C
  C69      1.0000 0.91914  0.08417  0.69743  Biso   1.000  C
  C70      1.0000 0.58249  0.16830  0.03077  Biso   1.000  C
  C71      1.0000 0.83170  0.41420  0.03077  Biso   1.000  C
  C72      1.0000 0.58580  0.41751  0.03077  Biso   1.000  C
  H37      1.0000 0.74685  0.52602  0.63130  Biso   1.000  H
  H38      1.0000 0.47398  0.22083  0.63130  Biso   1.000  H
  H39      1.0000 0.77917  0.25315  0.63130  Biso   1.000  H
  H40      1.0000 0.41352  0.85935  0.96463  Biso   1.000  H
  H41      1.0000 0.14065  0.55416  0.96463  Biso   1.000  H
  H42      1.0000 0.44584  0.58648  0.96463  Biso   1.000  H
  H43      1.0000 0.08018  0.19269  0.29797  Biso   1.000  H
  H44      1.0000 0.80731  0.88750  0.29797  Biso   1.000  H
  H45      1.0000 0.11250  0.91982  0.29797  Biso   1.000  H
  H46      1.0000 0.25315  0.47398  0.36870  Biso   1.000  H
  H47      1.0000 0.52602  0.77917  0.36870  Biso   1.000  H
  H48      1.0000 0.22083  0.74685  0.36870  Biso   1.000  H
  H49      1.0000 0.91982  0.80731  0.70203  Biso   1.000  H
  H50      1.0000 0.19269  0.11250  0.70203  Biso   1.000  H
  H51      1.0000 0.88750  0.08018  0.70203  Biso   1.000  H
  H52      1.0000 0.58648  0.14065  0.03537  Biso   1.000  H
  H53      1.0000 0.85935  0.44584  0.03537  Biso   1.000  H
  H54      1.0000 0.55416  0.41352  0.03537  Biso   1.000  H
  C73      1.0000 0.72479  0.45846  0.55340  Biso   1.000  C
  C74      1.0000 0.54154  0.26633  0.55340  Biso   1.000  C
  C75      1.0000 0.73367  0.27521  0.55340  Biso   1.000  C
  C76      1.0000 0.39146  0.79179  0.88673  Biso   1.000  C
  C77      1.0000 0.20821  0.59966  0.88673  Biso   1.000  C
  C78      1.0000 0.40034  0.60854  0.88673  Biso   1.000  C
  C79      1.0000 0.05812  0.12513  0.22007  Biso   1.000  C
  C80      1.0000 0.87487  0.93300  0.22007  Biso   1.000  C
  C81      1.0000 0.06700  0.94188  0.22007  Biso   1.000  C
  C82      1.0000 0.27521  0.54154  0.44660  Biso   1.000  C
  C83      1.0000 0.45846  0.73367  0.44660  Biso   1.000  C
  C84      1.0000 0.26633  0.72479  0.44660  Biso   1.000  C
  C85      1.0000 0.94188  0.87487  0.77993  Biso   1.000  C
  C86      1.0000 0.12513  0.06700  0.77993  Biso   1.000  C
  C87      1.0000 0.93300  0.05812  0.77993  Biso   1.000  C
  C88      1.0000 0.60854  0.20821  0.11327  Biso   1.000  C
  C89      1.0000 0.79179  0.40034  0.11327  Biso   1.000  C
  C90      1.0000 0.59966  0.39146  0.11327  Biso   1.000  C
  C91      1.0000 0.73014  0.41752  0.55570  Biso   1.000  C
  C92      1.0000 0.58248  0.31262  0.55570  Biso   1.000  C
  C93      1.0000 0.68738  0.26986  0.55570  Biso   1.000  C
  C94      1.0000 0.39681  0.75085  0.88903  Biso   1.000  C
  C95      1.0000 0.24915  0.64595  0.88903  Biso   1.000  C
  C96      1.0000 0.35405  0.60319  0.88903  Biso   1.000  C
  C97      1.0000 0.06347  0.08419  0.22237  Biso   1.000  C
  C98      1.0000 0.91581  0.97929  0.22237  Biso   1.000  C
  C99      1.0000 0.02071  0.93653  0.22237  Biso   1.000  C
  C100     1.0000 0.26986  0.58248  0.44430  Biso   1.000  C
  C101     1.0000 0.41752  0.68738  0.44430  Biso   1.000  C
  C102     1.0000 0.31262  0.73014  0.44430  Biso   1.000  C
  C103     1.0000 0.93653  0.91581  0.77763  Biso   1.000  C
  C104     1.0000 0.08419  0.02071  0.77763  Biso   1.000  C
  C105     1.0000 0.97929  0.06347  0.77763  Biso   1.000  C
  C106     1.0000 0.60319  0.24915  0.11097  Biso   1.000  C
  C107     1.0000 0.75085  0.35405  0.11097  Biso   1.000  C
  C108     1.0000 0.64595  0.39681  0.11097  Biso   1.000  C
  H55      1.0000 0.71180  0.39097  0.49917  Biso   1.000  H
  H56      1.0000 0.60903  0.32083  0.49917  Biso   1.000  H
  H57      1.0000 0.67917  0.28820  0.49917  Biso   1.000  H
  H58      1.0000 0.37847  0.72430  0.83250  Biso   1.000  H
  H59      1.0000 0.27570  0.65416  0.83250  Biso   1.000  H
  H60      1.0000 0.34584  0.62153  0.83250  Biso   1.000  H
  H61      1.0000 0.04513  0.05764  0.16584  Biso   1.000  H
  H62      1.0000 0.94236  0.98750  0.16584  Biso   1.000  H
  H63      1.0000 0.01250  0.95487  0.16584  Biso   1.000  H
  H64      1.0000 0.28820  0.60903  0.50083  Biso   1.000  H
  H65      1.0000 0.39097  0.67917  0.50083  Biso   1.000  H
  H66      1.0000 0.32083  0.71180  0.50083  Biso   1.000  H
  H67      1.0000 0.95487  0.94236  0.83416  Biso   1.000  H
  H68      1.0000 0.05764  0.01250  0.83416  Biso   1.000  H
  H69      1.0000 0.98750  0.04513  0.83416  Biso   1.000  H
  H70      1.0000 0.62153  0.27570  0.16750  Biso   1.000  H
  H71      1.0000 0.72430  0.34584  0.16750  Biso   1.000  H
  H72      1.0000 0.65416  0.37847  0.16750  Biso   1.000  H
  C109     1.0000 0.76320  0.41652  0.64320  Biso   1.000  C
  C110     1.0000 0.58348  0.34668  0.64320  Biso   1.000  C
  C111     1.0000 0.65332  0.23680  0.64320  Biso   1.000  C
  C112     1.0000 0.42987  0.74985  0.97653  Biso   1.000  C
  C113     1.0000 0.25015  0.68001  0.97653  Biso   1.000  C
  C114     1.0000 0.31999  0.57013  0.97653  Biso   1.000  C
  C115     1.0000 0.09653  0.08319  0.30987  Biso   1.000  C
  C116     1.0000 0.91681  0.01335  0.30987  Biso   1.000  C
  C117     1.0000 0.98665  0.90347  0.30987  Biso   1.000  C
  C118     1.0000 0.23680  0.58348  0.35680  Biso   1.000  C
  C119     1.0000 0.41652  0.65332  0.35680  Biso   1.000  C
  C120     1.0000 0.34668  0.76320  0.35680  Biso   1.000  C
  C121     1.0000 0.90347  0.91681  0.69013  Biso   1.000  C
  C122     1.0000 0.08319  0.98665  0.69013  Biso   1.000  C
  C123     1.0000 0.01335  0.09653  0.69013  Biso   1.000  C
  C124     1.0000 0.57013  0.25015  0.02347  Biso   1.000  C
  C125     1.0000 0.74985  0.31999  0.02347  Biso   1.000  C
  C126     1.0000 0.68001  0.42987  0.02347  Biso   1.000  C
  H73      1.0000 0.76787  0.38926  0.64506  Biso   1.000  H
  H74      1.0000 0.61074  0.37861  0.64506  Biso   1.000  H
  H75      1.0000 0.62139  0.23213  0.64506  Biso   1.000  H
  H76      1.0000 0.43454  0.72259  0.97839  Biso   1.000  H
  H77      1.0000 0.27741  0.71194  0.97839  Biso   1.000  H
  H78      1.0000 0.28806  0.56546  0.97839  Biso   1.000  H
  H79      1.0000 0.10120  0.05593  0.31173  Biso   1.000  H
  H80      1.0000 0.94407  0.04528  0.31173  Biso   1.000  H
  H81      1.0000 0.95472  0.89880  0.31173  Biso   1.000  H
  H82      1.0000 0.23213  0.61074  0.35494  Biso   1.000  H
  H83      1.0000 0.38926  0.62139  0.35494  Biso   1.000  H
  H84      1.0000 0.37861  0.76787  0.35494  Biso   1.000  H
  H85      1.0000 0.89880  0.94407  0.68827  Biso   1.000  H
  H86      1.0000 0.05593  0.95472  0.68827  Biso   1.000  H
  H87      1.0000 0.04528  0.10120  0.68827  Biso   1.000  H
  H88      1.0000 0.56546  0.27741  0.02161  Biso   1.000  H
  H89      1.0000 0.72259  0.28806  0.02161  Biso   1.000  H
  H90      1.0000 0.71194  0.43454  0.02161  Biso   1.000  H
  C127     1.0000 0.78947  0.45543  0.72810  Biso   1.000  C
  C128     1.0000 0.54457  0.33404  0.72810  Biso   1.000  C
  C129     1.0000 0.66596  0.21053  0.72810  Biso   1.000  C
  C130     1.0000 0.45614  0.78876  0.06143  Biso   1.000  C
  C131     1.0000 0.21124  0.66737  0.06143  Biso   1.000  C
  C132     1.0000 0.33263  0.54386  0.06143  Biso   1.000  C
  C133     1.0000 0.12280  0.12210  0.39477  Biso   1.000  C
  C134     1.0000 0.87790  0.00071  0.39477  Biso   1.000  C
  C135     1.0000 0.99929  0.87720  0.39477  Biso   1.000  C
  C136     1.0000 0.21053  0.54457  0.27190  Biso   1.000  C
  C137     1.0000 0.45543  0.66596  0.27190  Biso   1.000  C
  C138     1.0000 0.33404  0.78947  0.27190  Biso   1.000  C
  C139     1.0000 0.87720  0.87790  0.60523  Biso   1.000  C
  C140     1.0000 0.12210  0.99929  0.60523  Biso   1.000  C
  C141     1.0000 0.00071  0.12280  0.60523  Biso   1.000  C
  C142     1.0000 0.54386  0.21124  0.93857  Biso   1.000  C
  C143     1.0000 0.78876  0.33263  0.93857  Biso   1.000  C
  C144     1.0000 0.66737  0.45614  0.93857  Biso   1.000  C
  H91      1.0000 0.81165  0.45428  0.78746  Biso   1.000  H
  H92      1.0000 0.54572  0.35737  0.78746  Biso   1.000  H
  H93      1.0000 0.64263  0.18835  0.78746  Biso   1.000  H
  H94      1.0000 0.47832  0.78761  0.12079  Biso   1.000  H
  H95      1.0000 0.21239  0.69070  0.12079  Biso   1.000  H
  H96      1.0000 0.30930  0.52168  0.12079  Biso   1.000  H
  H97      1.0000 0.14498  0.12095  0.45413  Biso   1.000  H
  H98      1.0000 0.87905  0.02404  0.45413  Biso   1.000  H
  H99      1.0000 0.97596  0.85502  0.45413  Biso   1.000  H
  H100     1.0000 0.18835  0.54572  0.21254  Biso   1.000  H
  H101     1.0000 0.45428  0.64263  0.21254  Biso   1.000  H
  H102     1.0000 0.35737  0.81165  0.21254  Biso   1.000  H
  H103     1.0000 0.85502  0.87905  0.54587  Biso   1.000  H
  H104     1.0000 0.12095  0.97596  0.54587  Biso   1.000  H
  H105     1.0000 0.02404  0.14498  0.54587  Biso   1.000  H
  H106     1.0000 0.52168  0.21239  0.87921  Biso   1.000  H
  H107     1.0000 0.78761  0.30930  0.87921  Biso   1.000  H
  H108     1.0000 0.69070  0.47832  0.87921  Biso   1.000  H
  C145     1.0000 0.70693  0.62805  0.21180  Biso   1.000  C
  C146     1.0000 0.37195  0.07888  0.21180  Biso   1.000  C
  C147     1.0000 0.92112  0.29307  0.21180  Biso   1.000  C
  C148     1.0000 0.37360  0.96138  0.54513  Biso   1.000  C
  C149     1.0000 0.03862  0.41221  0.54513  Biso   1.000  C
  C150     1.0000 0.58779  0.62640  0.54513  Biso   1.000  C
  C151     1.0000 0.04026  0.29472  0.87847  Biso   1.000  C
  C152     1.0000 0.70528  0.74555  0.87847  Biso   1.000  C
  C153     1.0000 0.25445  0.95974  0.87847  Biso   1.000  C
  C154     1.0000 0.29307  0.37195  0.78820  Biso   1.000  C
  C155     1.0000 0.62805  0.92112  0.78820  Biso   1.000  C
  C156     1.0000 0.07888  0.70693  0.78820  Biso   1.000  C
  C157     1.0000 0.95974  0.70528  0.12153  Biso   1.000  C
  C158     1.0000 0.29472  0.25445  0.12153  Biso   1.000  C
  C159     1.0000 0.74555  0.04026  0.12153  Biso   1.000  C
  C160     1.0000 0.62640  0.03862  0.45487  Biso   1.000  C
  C161     1.0000 0.96138  0.58779  0.45487  Biso   1.000  C
  C162     1.0000 0.41221  0.37360  0.45487  Biso   1.000  C
  H109     1.0000 0.68682  0.64103  0.23541  Biso   1.000  H
  H110     1.0000 0.35897  0.04579  0.23541  Biso   1.000  H
  H111     1.0000 0.95421  0.31318  0.23541  Biso   1.000  H
  H112     1.0000 0.35349  0.97436  0.56874  Biso   1.000  H
  H113     1.0000 0.02564  0.37912  0.56874  Biso   1.000  H
  H114     1.0000 0.62088  0.64651  0.56874  Biso   1.000  H
  H115     1.0000 0.02015  0.30770  0.90208  Biso   1.000  H
  H116     1.0000 0.69230  0.71246  0.90208  Biso   1.000  H
  H117     1.0000 0.28754  0.97985  0.90208  Biso   1.000  H
  H118     1.0000 0.31318  0.35897  0.76459  Biso   1.000  H
  H119     1.0000 0.64103  0.95421  0.76459  Biso   1.000  H
  H120     1.0000 0.04579  0.68682  0.76459  Biso   1.000  H
  H121     1.0000 0.97985  0.69230  0.09792  Biso   1.000  H
  H122     1.0000 0.30770  0.28754  0.09792  Biso   1.000  H
  H123     1.0000 0.71246  0.02015  0.09792  Biso   1.000  H
  H124     1.0000 0.64651  0.02564  0.43126  Biso   1.000  H
  H125     1.0000 0.97436  0.62088  0.43126  Biso   1.000  H
  H126     1.0000 0.37912  0.35349  0.43126  Biso   1.000  H
  C163     1.0000 0.73959  0.62848  0.30360  Biso   1.000  C
  C164     1.0000 0.37152  0.11111  0.30360  Biso   1.000  C
  C165     1.0000 0.88889  0.26041  0.30360  Biso   1.000  C
  C166     1.0000 0.40626  0.96181  0.63693  Biso   1.000  C
  C167     1.0000 0.03819  0.44444  0.63693  Biso   1.000  C
  C168     1.0000 0.55556  0.59374  0.63693  Biso   1.000  C
  C169     1.0000 0.07292  0.29515  0.97027  Biso   1.000  C
  C170     1.0000 0.70485  0.77778  0.97027  Biso   1.000  C
  C171     1.0000 0.22222  0.92708  0.97027  Biso   1.000  C
  C172     1.0000 0.26041  0.37152  0.69640  Biso   1.000  C
  C173     1.0000 0.62848  0.88889  0.69640  Biso   1.000  C
  C174     1.0000 0.11111  0.73959  0.69640  Biso   1.000  C
  C175     1.0000 0.92708  0.70485  0.02973  Biso   1.000  C
  C176     1.0000 0.29515  0.22222  0.02973  Biso   1.000  C
  C177     1.0000 0.77778  0.07292  0.02973  Biso   1.000  C
  C178     1.0000 0.59374  0.03819  0.36307  Biso   1.000  C
  C179     1.0000 0.96181  0.55556  0.36307  Biso   1.000  C
  C180     1.0000 0.44444  0.40626  0.36307  Biso   1.000  C
  H127     1.0000 0.74126  0.64150  0.38732  Biso   1.000  H
  H128     1.0000 0.35850  0.09976  0.38732  Biso   1.000  H
  H129     1.0000 0.90024  0.25874  0.38732  Biso   1.000  H
  H130     1.0000 0.40793  0.97483  0.72065  Biso   1.000  H
  H131     1.0000 0.02517  0.43309  0.72065  Biso   1.000  H
  H132     1.0000 0.56691  0.59207  0.72065  Biso   1.000  H
  H133     1.0000 0.07459  0.30817  0.05399  Biso   1.000  H
  H134     1.0000 0.69183  0.76643  0.05399  Biso   1.000  H
  H135     1.0000 0.23357  0.92541  0.05399  Biso   1.000  H
  H136     1.0000 0.25874  0.35850  0.61268  Biso   1.000  H
  H137     1.0000 0.64150  0.90024  0.61268  Biso   1.000  H
  H138     1.0000 0.09976  0.74126  0.61268  Biso   1.000  H
  H139     1.0000 0.92541  0.69183  0.94601  Biso   1.000  H
  H140     1.0000 0.30817  0.23357  0.94601  Biso   1.000  H
  H141     1.0000 0.76643  0.07459  0.94601  Biso   1.000  H
  H142     1.0000 0.59207  0.02517  0.27935  Biso   1.000  H
  H143     1.0000 0.97483  0.56691  0.27935  Biso   1.000  H
  H144     1.0000 0.43309  0.40793  0.27935  Biso   1.000  H
  C181     1.0000 0.77000  0.60947  0.27120  Biso   1.000  C
  C182     1.0000 0.39053  0.16053  0.27120  Biso   1.000  C
  C183     1.0000 0.83947  0.23000  0.27120  Biso   1.000  C
  C184     1.0000 0.43667  0.94280  0.60453  Biso   1.000  C
  C185     1.0000 0.05720  0.49386  0.60453  Biso   1.000  C
  C186     1.0000 0.50614  0.56333  0.60453  Biso   1.000  C
  C187     1.0000 0.10333  0.27614  0.93787  Biso   1.000  C
  C188     1.0000 0.72386  0.82720  0.93787  Biso   1.000  C
  C189     1.0000 0.17280  0.89667  0.93787  Biso   1.000  C
  C190     1.0000 0.23000  0.39053  0.72880  Biso   1.000  C
  C191     1.0000 0.60947  0.83947  0.72880  Biso   1.000  C
  C192     1.0000 0.16053  0.77000  0.72880  Biso   1.000  C
  C193     1.0000 0.89667  0.72386  0.06213  Biso   1.000  C
  C194     1.0000 0.27614  0.17280  0.06213  Biso   1.000  C
  C195     1.0000 0.82720  0.10333  0.06213  Biso   1.000  C
  C196     1.0000 0.56333  0.05720  0.39547  Biso   1.000  C
  C197     1.0000 0.94280  0.50614  0.39547  Biso   1.000  C
  C198     1.0000 0.49386  0.43667  0.39547  Biso   1.000  C
  C199     1.0000 0.76639  0.59151  0.14450  Biso   1.000  C
  C200     1.0000 0.40849  0.17488  0.14450  Biso   1.000  C
  C201     1.0000 0.82512  0.23361  0.14450  Biso   1.000  C
  C202     1.0000 0.43306  0.92484  0.47783  Biso   1.000  C
  C203     1.0000 0.07516  0.50821  0.47783  Biso   1.000  C
  C204     1.0000 0.49179  0.56694  0.47783  Biso   1.000  C
  C205     1.0000 0.09972  0.25818  0.81117  Biso   1.000  C
  C206     1.0000 0.74182  0.84155  0.81117  Biso   1.000  C
  C207     1.0000 0.15845  0.90028  0.81117  Biso   1.000  C
  C208     1.0000 0.23361  0.40849  0.85550  Biso   1.000  C
  C209     1.0000 0.59151  0.82512  0.85550  Biso   1.000  C
  C210     1.0000 0.17488  0.76639  0.85550  Biso   1.000  C
  C211     1.0000 0.90028  0.74182  0.18883  Biso   1.000  C
  C212     1.0000 0.25818  0.15845  0.18883  Biso   1.000  C
  C213     1.0000 0.84155  0.09972  0.18883  Biso   1.000  C
  C214     1.0000 0.56694  0.07516  0.52217  Biso   1.000  C
  C215     1.0000 0.92484  0.49179  0.52217  Biso   1.000  C
  C216     1.0000 0.50821  0.43306  0.52217  Biso   1.000  C
  H145     1.0000 0.78645  0.57884  0.11774  Biso   1.000  H
  H146     1.0000 0.42116  0.20761  0.11774  Biso   1.000  H
  H147     1.0000 0.79239  0.21355  0.11774  Biso   1.000  H
  H148     1.0000 0.45312  0.91217  0.45107  Biso   1.000  H
  H149     1.0000 0.08783  0.54094  0.45107  Biso   1.000  H
  H150     1.0000 0.45906  0.54688  0.45107  Biso   1.000  H
  H151     1.0000 0.11978  0.24551  0.78441  Biso   1.000  H
  H152     1.0000 0.75449  0.87428  0.78441  Biso   1.000  H
  H153     1.0000 0.12572  0.88022  0.78441  Biso   1.000  H
  H154     1.0000 0.21355  0.42116  0.88226  Biso   1.000  H
  H155     1.0000 0.57884  0.79239  0.88226  Biso   1.000  H
  H156     1.0000 0.20761  0.78645  0.88226  Biso   1.000  H
  H157     1.0000 0.88022  0.75449  0.21559  Biso   1.000  H
  H158     1.0000 0.24551  0.12572  0.21559  Biso   1.000  H
  H159     1.0000 0.87428  0.11978  0.21559  Biso   1.000  H
  H160     1.0000 0.54688  0.08783  0.54893  Biso   1.000  H
  H161     1.0000 0.91217  0.45906  0.54893  Biso   1.000  H
  H162     1.0000 0.54094  0.45312  0.54893  Biso   1.000  H
  C217     1.0000 0.73267  0.59261  0.05840  Biso   1.000  C
  C218     1.0000 0.40739  0.14006  0.05840  Biso   1.000  C
  C219     1.0000 0.85994  0.26733  0.05840  Biso   1.000  C
  C220     1.0000 0.39934  0.92594  0.39173  Biso   1.000  C
  C221     1.0000 0.07406  0.47339  0.39173  Biso   1.000  C
  C222     1.0000 0.52661  0.60066  0.39173  Biso   1.000  C
  C223     1.0000 0.06600  0.25928  0.72507  Biso   1.000  C
  C224     1.0000 0.74072  0.80673  0.72507  Biso   1.000  C
  C225     1.0000 0.19327  0.93400  0.72507  Biso   1.000  C
  C226     1.0000 0.26733  0.40739  0.94160  Biso   1.000  C
  C227     1.0000 0.59261  0.85994  0.94160  Biso   1.000  C
  C228     1.0000 0.14006  0.73267  0.94160  Biso   1.000  C
  C229     1.0000 0.93400  0.74072  0.27493  Biso   1.000  C
  C230     1.0000 0.25928  0.19327  0.27493  Biso   1.000  C
  C231     1.0000 0.80673  0.06600  0.27493  Biso   1.000  C
  C232     1.0000 0.60066  0.07406  0.60827  Biso   1.000  C
  C233     1.0000 0.92594  0.52661  0.60827  Biso   1.000  C
  C234     1.0000 0.47339  0.39934  0.60827  Biso   1.000  C
  H163     1.0000 0.73085  0.58060  0.97329  Biso   1.000  H
  H164     1.0000 0.41940  0.15025  0.97329  Biso   1.000  H
  H165     1.0000 0.84975  0.26915  0.97329  Biso   1.000  H
  H166     1.0000 0.39752  0.91393  0.30662  Biso   1.000  H
  H167     1.0000 0.08607  0.48358  0.30662  Biso   1.000  H
  H168     1.0000 0.51642  0.60248  0.30662  Biso   1.000  H
  H169     1.0000 0.06418  0.24727  0.63996  Biso   1.000  H
  H170     1.0000 0.75273  0.81692  0.63996  Biso   1.000  H
  H171     1.0000 0.18308  0.93582  0.63996  Biso   1.000  H
  H172     1.0000 0.26915  0.41940  0.02671  Biso   1.000  H
  H173     1.0000 0.58060  0.84975  0.02671  Biso   1.000  H
  H174     1.0000 0.15025  0.73085  0.02671  Biso   1.000  H
  H175     1.0000 0.93582  0.75273  0.36004  Biso   1.000  H
  H176     1.0000 0.24727  0.18308  0.36004  Biso   1.000  H
  H177     1.0000 0.81692  0.06418  0.36004  Biso   1.000  H
  H178     1.0000 0.60248  0.08607  0.69338  Biso   1.000  H
  H179     1.0000 0.91393  0.51642  0.69338  Biso   1.000  H
  H180     1.0000 0.48358  0.39752  0.69338  Biso   1.000  H
  C235     1.0000 0.80483  0.60855  0.36790  Biso   1.000  C
  C236     1.0000 0.39145  0.19628  0.36790  Biso   1.000  C
  C237     1.0000 0.80372  0.19517  0.36790  Biso   1.000  C
  C238     1.0000 0.47150  0.94188  0.70123  Biso   1.000  C
  C239     1.0000 0.05812  0.52961  0.70123  Biso   1.000  C
  C240     1.0000 0.47039  0.52850  0.70123  Biso   1.000  C
  C241     1.0000 0.13816  0.27522  0.03457  Biso   1.000  C
  C242     1.0000 0.72478  0.86295  0.03457  Biso   1.000  C
  C243     1.0000 0.13705  0.86184  0.03457  Biso   1.000  C
  C244     1.0000 0.19517  0.39145  0.63210  Biso   1.000  C
  C245     1.0000 0.60855  0.80372  0.63210  Biso   1.000  C
  C246     1.0000 0.19628  0.80483  0.63210  Biso   1.000  C
  C247     1.0000 0.86184  0.72478  0.96543  Biso   1.000  C
  C248     1.0000 0.27522  0.13705  0.96543  Biso   1.000  C
  C249     1.0000 0.86295  0.13816  0.96543  Biso   1.000  C
  C250     1.0000 0.52850  0.05812  0.29877  Biso   1.000  C
  C251     1.0000 0.94188  0.47039  0.29877  Biso   1.000  C
  C252     1.0000 0.52961  0.47150  0.29877  Biso   1.000  C
  C253     1.0000 0.82601  0.64540  0.46250  Biso   1.000  C
  C254     1.0000 0.35460  0.18061  0.46250  Biso   1.000  C
  C255     1.0000 0.81939  0.17399  0.46250  Biso   1.000  C
  C256     1.0000 0.49268  0.97873  0.79583  Biso   1.000  C
  C257     1.0000 0.02127  0.51394  0.79583  Biso   1.000  C
  C258     1.0000 0.48606  0.50732  0.79583  Biso   1.000  C
  C259     1.0000 0.15934  0.31207  0.12917  Biso   1.000  C
  C260     1.0000 0.68793  0.84728  0.12917  Biso   1.000  C
  C261     1.0000 0.15272  0.84066  0.12917  Biso   1.000  C
  C262     1.0000 0.17399  0.35460  0.53750  Biso   1.000  C
  C263     1.0000 0.64540  0.81939  0.53750  Biso   1.000  C
  C264     1.0000 0.18061  0.82601  0.53750  Biso   1.000  C
  C265     1.0000 0.84066  0.68793  0.87083  Biso   1.000  C
  C266     1.0000 0.31207  0.15272  0.87083  Biso   1.000  C
  C267     1.0000 0.84728  0.15934  0.87083  Biso   1.000  C
  C268     1.0000 0.50732  0.02127  0.20417  Biso   1.000  C
  C269     1.0000 0.97873  0.48606  0.20417  Biso   1.000  C
  C270     1.0000 0.51394  0.49268  0.20417  Biso   1.000  C
  H181     1.0000 0.81814  0.67055  0.46501  Biso   1.000  H
  H182     1.0000 0.32945  0.14759  0.46501  Biso   1.000  H
  H183     1.0000 0.85241  0.18186  0.46501  Biso   1.000  H
  H184     1.0000 0.48481  0.00388  0.79834  Biso   1.000  H
  H185     1.0000 0.99612  0.48092  0.79834  Biso   1.000  H
  H186     1.0000 0.51908  0.51519  0.79834  Biso   1.000  H
  H187     1.0000 0.15147  0.33722  0.13168  Biso   1.000  H
  H188     1.0000 0.66278  0.81426  0.13168  Biso   1.000  H
  H189     1.0000 0.18574  0.84853  0.13168  Biso   1.000  H
  H190     1.0000 0.18186  0.32945  0.53499  Biso   1.000  H
  H191     1.0000 0.67055  0.85241  0.53499  Biso   1.000  H
  H192     1.0000 0.14759  0.81814  0.53499  Biso   1.000  H
  H193     1.0000 0.84853  0.66278  0.86832  Biso   1.000  H
  H194     1.0000 0.33722  0.18574  0.86832  Biso   1.000  H
  H195     1.0000 0.81426  0.15147  0.86832  Biso   1.000  H
  H196     1.0000 0.51519  0.99612  0.20166  Biso   1.000  H
  H197     1.0000 0.00388  0.51908  0.20166  Biso   1.000  H
  H198     1.0000 0.48092  0.48481  0.20166  Biso   1.000  H
  C271     1.0000 0.85852  0.64486  0.55220  Biso   1.000  C
  C272     1.0000 0.35514  0.21366  0.55220  Biso   1.000  C
  C273     1.0000 0.78634  0.14148  0.55220  Biso   1.000  C
  C274     1.0000 0.52519  0.97819  0.88553  Biso   1.000  C
  C275     1.0000 0.02181  0.54699  0.88553  Biso   1.000  C
  C276     1.0000 0.45301  0.47481  0.88553  Biso   1.000  C
  C277     1.0000 0.19185  0.31153  0.21887  Biso   1.000  C
  C278     1.0000 0.68847  0.88033  0.21887  Biso   1.000  C
  C279     1.0000 0.11967  0.80815  0.21887  Biso   1.000  C
  C280     1.0000 0.14148  0.35514  0.44780  Biso   1.000  C
  C281     1.0000 0.64486  0.78634  0.44780  Biso   1.000  C
  C282     1.0000 0.21366  0.85852  0.44780  Biso   1.000  C
  C283     1.0000 0.80815  0.68847  0.78113  Biso   1.000  C
  C284     1.0000 0.31153  0.11967  0.78113  Biso   1.000  C
  C285     1.0000 0.88033  0.19185  0.78113  Biso   1.000  C
  C286     1.0000 0.47481  0.02181  0.11447  Biso   1.000  C
  C287     1.0000 0.97819  0.45301  0.11447  Biso   1.000  C
  C288     1.0000 0.54699  0.52519  0.11447  Biso   1.000  C
  H199     1.0000 0.87251  0.67027  0.61412  Biso   1.000  H
  H200     1.0000 0.32973  0.20224  0.61412  Biso   1.000  H
  H201     1.0000 0.79776  0.12749  0.61412  Biso   1.000  H
  H202     1.0000 0.53918  0.00360  0.94745  Biso   1.000  H
  H203     1.0000 0.99640  0.53557  0.94745  Biso   1.000  H
  H204     1.0000 0.46443  0.46082  0.94745  Biso   1.000  H
  H205     1.0000 0.20584  0.33694  0.28079  Biso   1.000  H
  H206     1.0000 0.66306  0.86891  0.28079  Biso   1.000  H
  H207     1.0000 0.13109  0.79416  0.28079  Biso   1.000  H
  H208     1.0000 0.12749  0.32973  0.38588  Biso   1.000  H
  H209     1.0000 0.67027  0.79776  0.38588  Biso   1.000  H
  H210     1.0000 0.20224  0.87251  0.38588  Biso   1.000  H
  H211     1.0000 0.79416  0.66306  0.71921  Biso   1.000  H
  H212     1.0000 0.33694  0.13109  0.71921  Biso   1.000  H
  H213     1.0000 0.86891  0.20584  0.71921  Biso   1.000  H
  H214     1.0000 0.46082  0.99640  0.05255  Biso   1.000  H
  H215     1.0000 0.00360  0.46443  0.05255  Biso   1.000  H
  H216     1.0000 0.53557  0.53918  0.05255  Biso   1.000  H
  C289     1.0000 0.85045  0.57388  0.46500  Biso   1.000  C
  C290     1.0000 0.42612  0.27657  0.46500  Biso   1.000  C
  C291     1.0000 0.72343  0.14955  0.46500  Biso   1.000  C
  C292     1.0000 0.51712  0.90721  0.79833  Biso   1.000  C
  C293     1.0000 0.09279  0.60990  0.79833  Biso   1.000  C
  C294     1.0000 0.39010  0.48288  0.79833  Biso   1.000  C
  C295     1.0000 0.18378  0.24055  0.13167  Biso   1.000  C
  C296     1.0000 0.75945  0.94324  0.13167  Biso   1.000  C
  C297     1.0000 0.05676  0.81622  0.13167  Biso   1.000  C
  C298     1.0000 0.14955  0.42612  0.53500  Biso   1.000  C
  C299     1.0000 0.57388  0.72343  0.53500  Biso   1.000  C
  C300     1.0000 0.27657  0.85045  0.53500  Biso   1.000  C
  C301     1.0000 0.81622  0.75945  0.86833  Biso   1.000  C
  C302     1.0000 0.24055  0.05676  0.86833  Biso   1.000  C
  C303     1.0000 0.94324  0.18378  0.86833  Biso   1.000  C
  C304     1.0000 0.48288  0.09279  0.20167  Biso   1.000  C
  C305     1.0000 0.90721  0.39010  0.20167  Biso   1.000  C
  C306     1.0000 0.60990  0.51712  0.20167  Biso   1.000  C
  H217     1.0000 0.85833  0.54874  0.46639  Biso   1.000  H
  H218     1.0000 0.45126  0.30959  0.46639  Biso   1.000  H
  H219     1.0000 0.69041  0.14167  0.46639  Biso   1.000  H
  H220     1.0000 0.52500  0.88207  0.79972  Biso   1.000  H
  H221     1.0000 0.11793  0.64292  0.79972  Biso   1.000  H
  H222     1.0000 0.35708  0.47500  0.79972  Biso   1.000  H
  H223     1.0000 0.19166  0.21541  0.13306  Biso   1.000  H
  H224     1.0000 0.78459  0.97626  0.13306  Biso   1.000  H
  H225     1.0000 0.02374  0.80834  0.13306  Biso   1.000  H
  H226     1.0000 0.14167  0.45126  0.53361  Biso   1.000  H
  H227     1.0000 0.54874  0.69041  0.53361  Biso   1.000  H
  H228     1.0000 0.30959  0.85833  0.53361  Biso   1.000  H
  H229     1.0000 0.80834  0.78459  0.86694  Biso   1.000  H
  H230     1.0000 0.21541  0.02374  0.86694  Biso   1.000  H
  H231     1.0000 0.97626  0.19166  0.86694  Biso   1.000  H
  H232     1.0000 0.47500  0.11793  0.20028  Biso   1.000  H
  H233     1.0000 0.88207  0.35708  0.20028  Biso   1.000  H
  H234     1.0000 0.64292  0.52500  0.20028  Biso   1.000  H
  C307     1.0000 0.81814  0.57204  0.37020  Biso   1.000  C
  C308     1.0000 0.42796  0.24610  0.37020  Biso   1.000  C
  C309     1.0000 0.75390  0.18186  0.37020  Biso   1.000  C
  C310     1.0000 0.48481  0.90537  0.70353  Biso   1.000  C
  C311     1.0000 0.09463  0.57943  0.70353  Biso   1.000  C
  C312     1.0000 0.42057  0.51519  0.70353  Biso   1.000  C
  C313     1.0000 0.15147  0.23871  0.03687  Biso   1.000  C
  C314     1.0000 0.76129  0.91277  0.03687  Biso   1.000  C
  C315     1.0000 0.08723  0.84853  0.03687  Biso   1.000  C
  C316     1.0000 0.18186  0.42796  0.62980  Biso   1.000  C
  C317     1.0000 0.57204  0.75390  0.62980  Biso   1.000  C
  C318     1.0000 0.24610  0.81814  0.62980  Biso   1.000  C
  C319     1.0000 0.84853  0.76129  0.96313  Biso   1.000  C
  C320     1.0000 0.23871  0.08723  0.96313  Biso   1.000  C
  C321     1.0000 0.91277  0.15147  0.96313  Biso   1.000  C
  C322     1.0000 0.51519  0.09463  0.29647  Biso   1.000  C
  C323     1.0000 0.90537  0.42057  0.29647  Biso   1.000  C
  C324     1.0000 0.57943  0.48481  0.29647  Biso   1.000  C
  H235     1.0000 0.80527  0.54665  0.30800  Biso   1.000  H
  H236     1.0000 0.45335  0.25862  0.30800  Biso   1.000  H
  H237     1.0000 0.74138  0.19473  0.30800  Biso   1.000  H
  H238     1.0000 0.47194  0.87998  0.64133  Biso   1.000  H
  H239     1.0000 0.12002  0.59195  0.64133  Biso   1.000  H
  H240     1.0000 0.40805  0.52806  0.64133  Biso   1.000  H
  H241     1.0000 0.13860  0.21332  0.97467  Biso   1.000  H
  H242     1.0000 0.78668  0.92529  0.97467  Biso   1.000  H
  H243     1.0000 0.07471  0.86140  0.97467  Biso   1.000  H
  H244     1.0000 0.19473  0.45335  0.69200  Biso   1.000  H
  H245     1.0000 0.54665  0.74138  0.69200  Biso   1.000  H
  H246     1.0000 0.25862  0.80527  0.69200  Biso   1.000  H
  H247     1.0000 0.86140  0.78668  0.02533  Biso   1.000  H
  H248     1.0000 0.21332  0.07471  0.02533  Biso   1.000  H
  H249     1.0000 0.92529  0.13860  0.02533  Biso   1.000  H
  H250     1.0000 0.52806  0.12002  0.35867  Biso   1.000  H
  H251     1.0000 0.87998  0.40805  0.35867  Biso   1.000  H
  H252     1.0000 0.59195  0.47194  0.35867  Biso   1.000  H
