data_image0
_cell_length_a       15.598
_cell_length_b       15.598
_cell_length_c       59.01
_cell_angle_alpha    90
_cell_angle_beta     90
_cell_angle_gamma    120

_symmetry_space_group_name_H-M    "P 1"
_symmetry_int_tables_number       1

loop_
  _symmetry_equiv_pos_as_xyz
  'x, y, z'

loop_
  _atom_site_label
  _atom_site_occupancy
  _atom_site_fract_x
  _atom_site_fract_y
  _atom_site_fract_z
  _atom_site_thermal_displace_type
  _atom_site_B_iso_or_equiv
  _atom_site_type_symbol
  Cu1      1.0000 0.53436  0.49218  0.25170  Biso   1.000  Cu
  Cu2      1.0000 0.50782  0.04218  0.25170  Biso   1.000  Cu
  Cu3      1.0000 0.95782  0.46564  0.25170  Biso   1.000  Cu
  Cu4      1.0000 0.20103  0.82551  0.58503  Biso   1.000  Cu
  Cu5      1.0000 0.17449  0.37551  0.58503  Biso   1.000  Cu
  Cu6      1.0000 0.62449  0.79897  0.58503  Biso   1.000  Cu
  Cu7      1.0000 0.86769  0.15885  0.91837  Biso   1.000  Cu
  Cu8      1.0000 0.84115  0.70885  0.91837  Biso   1.000  Cu
  Cu9      1.0000 0.29115  0.13231  0.91837  Biso   1.000  Cu
  Cu10     1.0000 0.46564  0.50782  0.74830  Biso   1.000  Cu
  Cu11     1.0000 0.49218  0.95782  0.74830  Biso   1.000  Cu
  Cu12     1.0000 0.04218  0.53436  0.74830  Biso   1.000  Cu
  Cu13     1.0000 0.13231  0.84115  0.08163  Biso   1.000  Cu
  Cu14     1.0000 0.15885  0.29115  0.08163  Biso   1.000  Cu
  Cu15     1.0000 0.70885  0.86769  0.08163  Biso   1.000  Cu
  Cu16     1.0000 0.79897  0.17449  0.41497  Biso   1.000  Cu
  Cu17     1.0000 0.82551  0.62449  0.41497  Biso   1.000  Cu
  Cu18     1.0000 0.37551  0.20103  0.41497  Biso   1.000  Cu
  O1       1.0000 0.41397  0.39137  0.26690  Biso   1.000  O
  O2       1.0000 0.60863  0.02260  0.26690  Biso   1.000  O
  O3       1.0000 0.97740  0.58603  0.26690  Biso   1.000  O
  O4       1.0000 0.08064  0.72470  0.60023  Biso   1.000  O
  O5       1.0000 0.27530  0.35593  0.60023  Biso   1.000  O
  O6       1.0000 0.64407  0.91936  0.60023  Biso   1.000  O
  O7       1.0000 0.74730  0.05804  0.93357  Biso   1.000  O
  O8       1.0000 0.94196  0.68927  0.93357  Biso   1.000  O
  O9       1.0000 0.31073  0.25270  0.93357  Biso   1.000  O
  O10      1.0000 0.58603  0.60863  0.73310  Biso   1.000  O
  O11      1.0000 0.39137  0.97740  0.73310  Biso   1.000  O
  O12      1.0000 0.02260  0.41397  0.73310  Biso   1.000  O
  O13      1.0000 0.25270  0.94196  0.06643  Biso   1.000  O
  O14      1.0000 0.05804  0.31073  0.06643  Biso   1.000  O
  O15      1.0000 0.68927  0.74730  0.06643  Biso   1.000  O
  O16      1.0000 0.91936  0.27530  0.39977  Biso   1.000  O
  O17      1.0000 0.72470  0.64407  0.39977  Biso   1.000  O
  O18      1.0000 0.35593  0.08064  0.39977  Biso   1.000  O
  O19      1.0000 0.64120  0.44192  0.26499  Biso   1.000  O
  O20      1.0000 0.55808  0.19928  0.26499  Biso   1.000  O
  O21      1.0000 0.80072  0.35880  0.26499  Biso   1.000  O
  O22      1.0000 0.30787  0.77525  0.59832  Biso   1.000  O
  O23      1.0000 0.22475  0.53261  0.59832  Biso   1.000  O
  O24      1.0000 0.46739  0.69213  0.59832  Biso   1.000  O
  O25      1.0000 0.97453  0.10859  0.93166  Biso   1.000  O
  O26      1.0000 0.89141  0.86595  0.93166  Biso   1.000  O
  O27      1.0000 0.13405  0.02547  0.93166  Biso   1.000  O
  O28      1.0000 0.35880  0.55808  0.73501  Biso   1.000  O
  O29      1.0000 0.44192  0.80072  0.73501  Biso   1.000  O
  O30      1.0000 0.19928  0.64120  0.73501  Biso   1.000  O
  O31      1.0000 0.02547  0.89141  0.06834  Biso   1.000  O
  O32      1.0000 0.10859  0.13405  0.06834  Biso   1.000  O
  O33      1.0000 0.86595  0.97453  0.06834  Biso   1.000  O
  O34      1.0000 0.69213  0.22475  0.40168  Biso   1.000  O
  O35      1.0000 0.77525  0.46739  0.40168  Biso   1.000  O
  O36      1.0000 0.53261  0.30787  0.40168  Biso   1.000  O
  H1       1.0000 0.61280  0.39620  0.27550  Biso   1.000  H
  H2       1.0000 0.60380  0.21660  0.27550  Biso   1.000  H
  H3       1.0000 0.78340  0.38720  0.27550  Biso   1.000  H
  H4       1.0000 0.27947  0.72953  0.60883  Biso   1.000  H
  H5       1.0000 0.27047  0.54993  0.60883  Biso   1.000  H
  H6       1.0000 0.45007  0.72053  0.60883  Biso   1.000  H
  H7       1.0000 0.94613  0.06287  0.94217  Biso   1.000  H
  H8       1.0000 0.93713  0.88327  0.94217  Biso   1.000  H
  H9       1.0000 0.11673  0.05387  0.94217  Biso   1.000  H
  H10      1.0000 0.38720  0.60380  0.72450  Biso   1.000  H
  H11      1.0000 0.39620  0.78340  0.72450  Biso   1.000  H
  H12      1.0000 0.21660  0.61280  0.72450  Biso   1.000  H
  H13      1.0000 0.05387  0.93713  0.05783  Biso   1.000  H
  H14      1.0000 0.06287  0.11673  0.05783  Biso   1.000  H
  H15      1.0000 0.88327  0.94613  0.05783  Biso   1.000  H
  H16      1.0000 0.72053  0.27047  0.39117  Biso   1.000  H
  H17      1.0000 0.72953  0.45007  0.39117  Biso   1.000  H
  H18      1.0000 0.54993  0.27947  0.39117  Biso   1.000  H
  H19      1.0000 0.69130  0.49040  0.27230  Biso   1.000  H
  H20      1.0000 0.50960  0.20090  0.27230  Biso   1.000  H
  H21      1.0000 0.79910  0.30870  0.27230  Biso   1.000  H
  H22      1.0000 0.35797  0.82373  0.60563  Biso   1.000  H
  H23      1.0000 0.17627  0.53423  0.60563  Biso   1.000  H
  H24      1.0000 0.46577  0.64203  0.60563  Biso   1.000  H
  H25      1.0000 0.02463  0.15707  0.93897  Biso   1.000  H
  H26      1.0000 0.84293  0.86757  0.93897  Biso   1.000  H
  H27      1.0000 0.13243  0.97537  0.93897  Biso   1.000  H
  H28      1.0000 0.30870  0.50960  0.72770  Biso   1.000  H
  H29      1.0000 0.49040  0.79910  0.72770  Biso   1.000  H
  H30      1.0000 0.20090  0.69130  0.72770  Biso   1.000  H
  H31      1.0000 0.97537  0.84293  0.06103  Biso   1.000  H
  H32      1.0000 0.15707  0.13243  0.06103  Biso   1.000  H
  H33      1.0000 0.86757  0.02463  0.06103  Biso   1.000  H
  H34      1.0000 0.64203  0.17627  0.39437  Biso   1.000  H
  H35      1.0000 0.82373  0.46577  0.39437  Biso   1.000  H
  H36      1.0000 0.53423  0.35797  0.39437  Biso   1.000  H
  O37      1.0000 0.46912  0.30057  0.28387  Biso   1.000  O
  O38      1.0000 0.69943  0.16855  0.28387  Biso   1.000  O
  O39      1.0000 0.83145  0.53088  0.28387  Biso   1.000  O
  O40      1.0000 0.13579  0.63390  0.61720  Biso   1.000  O
  O41      1.0000 0.36610  0.50188  0.61720  Biso   1.000  O
  O42      1.0000 0.49812  0.86421  0.61720  Biso   1.000  O
  O43      1.0000 0.80245  0.96724  0.95054  Biso   1.000  O
  O44      1.0000 0.03276  0.83522  0.95054  Biso   1.000  O
  O45      1.0000 0.16478  0.19755  0.95054  Biso   1.000  O
  O46      1.0000 0.53088  0.69943  0.71613  Biso   1.000  O
  O47      1.0000 0.30057  0.83145  0.71613  Biso   1.000  O
  O48      1.0000 0.16855  0.46912  0.71613  Biso   1.000  O
  O49      1.0000 0.19755  0.03276  0.04946  Biso   1.000  O
  O50      1.0000 0.96724  0.16478  0.04946  Biso   1.000  O
  O51      1.0000 0.83522  0.80245  0.04946  Biso   1.000  O
  O52      1.0000 0.86421  0.36610  0.38280  Biso   1.000  O
  O53      1.0000 0.63390  0.49812  0.38280  Biso   1.000  O
  O54      1.0000 0.50188  0.13579  0.38280  Biso   1.000  O
  O55      1.0000 0.64549  0.59735  0.23605  Biso   1.000  O
  O56      1.0000 0.40265  0.04814  0.23605  Biso   1.000  O
  O57      1.0000 0.95186  0.35451  0.23605  Biso   1.000  O
  O58      1.0000 0.31216  0.93068  0.56938  Biso   1.000  O
  O59      1.0000 0.06932  0.38147  0.56938  Biso   1.000  O
  O60      1.0000 0.61853  0.68784  0.56938  Biso   1.000  O
  O61      1.0000 0.97882  0.26402  0.90272  Biso   1.000  O
  O62      1.0000 0.73598  0.71481  0.90272  Biso   1.000  O
  O63      1.0000 0.28519  0.02118  0.90272  Biso   1.000  O
  O64      1.0000 0.35451  0.40265  0.76395  Biso   1.000  O
  O65      1.0000 0.59735  0.95186  0.76395  Biso   1.000  O
  O66      1.0000 0.04814  0.64549  0.76395  Biso   1.000  O
  O67      1.0000 0.02118  0.73598  0.09728  Biso   1.000  O
  O68      1.0000 0.26402  0.28519  0.09728  Biso   1.000  O
  O69      1.0000 0.71481  0.97882  0.09728  Biso   1.000  O
  O70      1.0000 0.68784  0.06932  0.43062  Biso   1.000  O
  O71      1.0000 0.93068  0.61853  0.43062  Biso   1.000  O
  O72      1.0000 0.38147  0.31216  0.43062  Biso   1.000  O
  O73      1.0000 0.55656  0.63950  0.21486  Biso   1.000  O
  O74      1.0000 0.36050  0.91706  0.21486  Biso   1.000  O
  O75      1.0000 0.08294  0.44344  0.21486  Biso   1.000  O
  O76      1.0000 0.22323  0.97283  0.54819  Biso   1.000  O
  O77      1.0000 0.02717  0.25039  0.54819  Biso   1.000  O
  O78      1.0000 0.74961  0.77677  0.54819  Biso   1.000  O
  O79      1.0000 0.88989  0.30617  0.88153  Biso   1.000  O
  O80      1.0000 0.69383  0.58373  0.88153  Biso   1.000  O
  O81      1.0000 0.41627  0.11011  0.88153  Biso   1.000  O
  O82      1.0000 0.44344  0.36050  0.78514  Biso   1.000  O
  O83      1.0000 0.63950  0.08294  0.78514  Biso   1.000  O
  O84      1.0000 0.91706  0.55656  0.78514  Biso   1.000  O
  O85      1.0000 0.11011  0.69383  0.11847  Biso   1.000  O
  O86      1.0000 0.30617  0.41627  0.11847  Biso   1.000  O
  O87      1.0000 0.58373  0.88989  0.11847  Biso   1.000  O
  O88      1.0000 0.77677  0.02717  0.45181  Biso   1.000  O
  O89      1.0000 0.97283  0.74961  0.45181  Biso   1.000  O
  O90      1.0000 0.25039  0.22323  0.45181  Biso   1.000  O
  N1       1.0000 0.48904  0.40057  0.22461  Biso   1.000  N
  N2       1.0000 0.59943  0.08847  0.22461  Biso   1.000  N
  N3       1.0000 0.91153  0.51096  0.22461  Biso   1.000  N
  N4       1.0000 0.15571  0.73390  0.55794  Biso   1.000  N
  N5       1.0000 0.26610  0.42180  0.55794  Biso   1.000  N
  N6       1.0000 0.57820  0.84429  0.55794  Biso   1.000  N
  N7       1.0000 0.82237  0.06724  0.89128  Biso   1.000  N
  N8       1.0000 0.93276  0.75514  0.89128  Biso   1.000  N
  N9       1.0000 0.24486  0.17763  0.89128  Biso   1.000  N
  N10      1.0000 0.51096  0.59943  0.77539  Biso   1.000  N
  N11      1.0000 0.40057  0.91153  0.77539  Biso   1.000  N
  N12      1.0000 0.08847  0.48904  0.77539  Biso   1.000  N
  N13      1.0000 0.17763  0.93276  0.10872  Biso   1.000  N
  N14      1.0000 0.06724  0.24486  0.10872  Biso   1.000  N
  N15      1.0000 0.75514  0.82237  0.10872  Biso   1.000  N
  N16      1.0000 0.84429  0.26610  0.44206  Biso   1.000  N
  N17      1.0000 0.73390  0.57820  0.44206  Biso   1.000  N
  N18      1.0000 0.42180  0.15571  0.44206  Biso   1.000  N
  N19      1.0000 0.56277  0.58524  0.27810  Biso   1.000  N
  N20      1.0000 0.41476  0.97753  0.27810  Biso   1.000  N
  N21      1.0000 0.02247  0.43723  0.27810  Biso   1.000  N
  N22      1.0000 0.22944  0.91857  0.61143  Biso   1.000  N
  N23      1.0000 0.08143  0.31086  0.61143  Biso   1.000  N
  N24      1.0000 0.68914  0.77056  0.61143  Biso   1.000  N
  N25      1.0000 0.89610  0.25191  0.94477  Biso   1.000  N
  N26      1.0000 0.74809  0.64420  0.94477  Biso   1.000  N
  N27      1.0000 0.35580  0.10390  0.94477  Biso   1.000  N
  N28      1.0000 0.43723  0.41476  0.72190  Biso   1.000  N
  N29      1.0000 0.58524  0.02247  0.72190  Biso   1.000  N
  N30      1.0000 0.97753  0.56277  0.72190  Biso   1.000  N
  N31      1.0000 0.10390  0.74809  0.05523  Biso   1.000  N
  N32      1.0000 0.25191  0.35580  0.05523  Biso   1.000  N
  N33      1.0000 0.64420  0.89610  0.05523  Biso   1.000  N
  N34      1.0000 0.77056  0.08143  0.38857  Biso   1.000  N
  N35      1.0000 0.91857  0.68914  0.38857  Biso   1.000  N
  N36      1.0000 0.31086  0.22944  0.38857  Biso   1.000  N
  N37      1.0000 0.00000  0.00000  0.28501  Biso   1.000  N
  N38      1.0000 0.66667  0.33333  0.61834  Biso   1.000  N
  N39      1.0000 0.33333  0.66667  0.95168  Biso   1.000  N
  N40      1.0000 0.00000  0.00000  0.71499  Biso   1.000  N
  N41      1.0000 0.66667  0.33333  0.04832  Biso   1.000  N
  N42      1.0000 0.33333  0.66667  0.38166  Biso   1.000  N
  N43      1.0000 0.00000  0.00000  0.19733  Biso   1.000  N
  N44      1.0000 0.66667  0.33333  0.53066  Biso   1.000  N
  N45      1.0000 0.33333  0.66667  0.86400  Biso   1.000  N
  N46      1.0000 0.00000  0.00000  0.80267  Biso   1.000  N
  N47      1.0000 0.66667  0.33333  0.13600  Biso   1.000  N
  N48      1.0000 0.33333  0.66667  0.46934  Biso   1.000  N
  C1       1.0000 0.36790  0.17560  0.17383  Biso   1.000  C
  C2       1.0000 0.82440  0.19230  0.17383  Biso   1.000  C
  C3       1.0000 0.80770  0.63210  0.17383  Biso   1.000  C
  C4       1.0000 0.03457  0.50893  0.50716  Biso   1.000  C
  C5       1.0000 0.49107  0.52563  0.50716  Biso   1.000  C
  C6       1.0000 0.47437  0.96543  0.50716  Biso   1.000  C
  C7       1.0000 0.70123  0.84227  0.84050  Biso   1.000  C
  C8       1.0000 0.15773  0.85897  0.84050  Biso   1.000  C
  C9       1.0000 0.14103  0.29877  0.84050  Biso   1.000  C
  C10      1.0000 0.63210  0.82440  0.82617  Biso   1.000  C
  C11      1.0000 0.17560  0.80770  0.82617  Biso   1.000  C
  C12      1.0000 0.19230  0.36790  0.82617  Biso   1.000  C
  C13      1.0000 0.29877  0.15773  0.15950  Biso   1.000  C
  C14      1.0000 0.84227  0.14103  0.15950  Biso   1.000  C
  C15      1.0000 0.85897  0.70123  0.15950  Biso   1.000  C
  C16      1.0000 0.96543  0.49107  0.49284  Biso   1.000  C
  C17      1.0000 0.50893  0.47437  0.49284  Biso   1.000  C
  C18      1.0000 0.52563  0.03457  0.49284  Biso   1.000  C
  H37      1.0000 0.39450  0.13390  0.17360  Biso   1.000  H
  H38      1.0000 0.86610  0.26060  0.17360  Biso   1.000  H
  H39      1.0000 0.73940  0.60550  0.17360  Biso   1.000  H
  H40      1.0000 0.06117  0.46723  0.50693  Biso   1.000  H
  H41      1.0000 0.53277  0.59393  0.50693  Biso   1.000  H
  H42      1.0000 0.40607  0.93883  0.50693  Biso   1.000  H
  H43      1.0000 0.72783  0.80057  0.84027  Biso   1.000  H
  H44      1.0000 0.19943  0.92727  0.84027  Biso   1.000  H
  H45      1.0000 0.07273  0.27217  0.84027  Biso   1.000  H
  H46      1.0000 0.60550  0.86610  0.82640  Biso   1.000  H
  H47      1.0000 0.13390  0.73940  0.82640  Biso   1.000  H
  H48      1.0000 0.26060  0.39450  0.82640  Biso   1.000  H
  H49      1.0000 0.27217  0.19943  0.15973  Biso   1.000  H
  H50      1.0000 0.80057  0.07273  0.15973  Biso   1.000  H
  H51      1.0000 0.92727  0.72783  0.15973  Biso   1.000  H
  H52      1.0000 0.93883  0.53277  0.49307  Biso   1.000  H
  H53      1.0000 0.46723  0.40607  0.49307  Biso   1.000  H
  H54      1.0000 0.59393  0.06117  0.49307  Biso   1.000  H
  C19      1.0000 0.40860  0.25680  0.19066  Biso   1.000  C
  C20      1.0000 0.74320  0.15180  0.19066  Biso   1.000  C
  C21      1.0000 0.84820  0.59140  0.19066  Biso   1.000  C
  C22      1.0000 0.07527  0.59013  0.52399  Biso   1.000  C
  C23      1.0000 0.40987  0.48513  0.52399  Biso   1.000  C
  C24      1.0000 0.51487  0.92473  0.52399  Biso   1.000  C
  C25      1.0000 0.74193  0.92347  0.85733  Biso   1.000  C
  C26      1.0000 0.07653  0.81847  0.85733  Biso   1.000  C
  C27      1.0000 0.18153  0.25807  0.85733  Biso   1.000  C
  C28      1.0000 0.59140  0.74320  0.80934  Biso   1.000  C
  C29      1.0000 0.25680  0.84820  0.80934  Biso   1.000  C
  C30      1.0000 0.15180  0.40860  0.80934  Biso   1.000  C
  C31      1.0000 0.25807  0.07653  0.14267  Biso   1.000  C
  C32      1.0000 0.92347  0.18153  0.14267  Biso   1.000  C
  C33      1.0000 0.81847  0.74193  0.14267  Biso   1.000  C
  C34      1.0000 0.92473  0.40987  0.47601  Biso   1.000  C
  C35      1.0000 0.59013  0.51487  0.47601  Biso   1.000  C
  C36      1.0000 0.48513  0.07527  0.47601  Biso   1.000  C
  C37      1.0000 0.47680  0.26020  0.20556  Biso   1.000  C
  C38      1.0000 0.73980  0.21660  0.20556  Biso   1.000  C
  C39      1.0000 0.78340  0.52320  0.20556  Biso   1.000  C
  C40      1.0000 0.14347  0.59353  0.53889  Biso   1.000  C
  C41      1.0000 0.40647  0.54993  0.53889  Biso   1.000  C
  C42      1.0000 0.45007  0.85653  0.53889  Biso   1.000  C
  C43      1.0000 0.81013  0.92687  0.87223  Biso   1.000  C
  C44      1.0000 0.07313  0.88327  0.87223  Biso   1.000  C
  C45      1.0000 0.11673  0.18987  0.87223  Biso   1.000  C
  C46      1.0000 0.52320  0.73980  0.79444  Biso   1.000  C
  C47      1.0000 0.26020  0.78340  0.79444  Biso   1.000  C
  C48      1.0000 0.21660  0.47680  0.79444  Biso   1.000  C
  C49      1.0000 0.18987  0.07313  0.12777  Biso   1.000  C
  C50      1.0000 0.92687  0.11673  0.12777  Biso   1.000  C
  C51      1.0000 0.88327  0.81013  0.12777  Biso   1.000  C
  C52      1.0000 0.85653  0.40647  0.46111  Biso   1.000  C
  C53      1.0000 0.59353  0.45007  0.46111  Biso   1.000  C
  C54      1.0000 0.54993  0.14347  0.46111  Biso   1.000  C
  H55      1.0000 0.49760  0.21400  0.20450  Biso   1.000  H
  H56      1.0000 0.78600  0.28360  0.20450  Biso   1.000  H
  H57      1.0000 0.71640  0.50240  0.20450  Biso   1.000  H
  H58      1.0000 0.16427  0.54733  0.53783  Biso   1.000  H
  H59      1.0000 0.45267  0.61693  0.53783  Biso   1.000  H
  H60      1.0000 0.38307  0.83573  0.53783  Biso   1.000  H
  H61      1.0000 0.83093  0.88067  0.87117  Biso   1.000  H
  H62      1.0000 0.11933  0.95027  0.87117  Biso   1.000  H
  H63      1.0000 0.04973  0.16907  0.87117  Biso   1.000  H
  H64      1.0000 0.50240  0.78600  0.79550  Biso   1.000  H
  H65      1.0000 0.21400  0.71640  0.79550  Biso   1.000  H
  H66      1.0000 0.28360  0.49760  0.79550  Biso   1.000  H
  H67      1.0000 0.16907  0.11933  0.12883  Biso   1.000  H
  H68      1.0000 0.88067  0.04973  0.12883  Biso   1.000  H
  H69      1.0000 0.95027  0.83093  0.12883  Biso   1.000  H
  H70      1.0000 0.83573  0.45267  0.46217  Biso   1.000  H
  H71      1.0000 0.54733  0.38307  0.46217  Biso   1.000  H
  H72      1.0000 0.61693  0.16427  0.46217  Biso   1.000  H
  C55      1.0000 0.51490  0.33160  0.22213  Biso   1.000  C
  C56      1.0000 0.66840  0.18330  0.22213  Biso   1.000  C
  C57      1.0000 0.81670  0.48510  0.22213  Biso   1.000  C
  C58      1.0000 0.18157  0.66493  0.55546  Biso   1.000  C
  C59      1.0000 0.33507  0.51663  0.55546  Biso   1.000  C
  C60      1.0000 0.48337  0.81843  0.55546  Biso   1.000  C
  C61      1.0000 0.84823  0.99827  0.88880  Biso   1.000  C
  C62      1.0000 0.00173  0.84997  0.88880  Biso   1.000  C
  C63      1.0000 0.15003  0.15177  0.88880  Biso   1.000  C
  C64      1.0000 0.48510  0.66840  0.77787  Biso   1.000  C
  C65      1.0000 0.33160  0.81670  0.77787  Biso   1.000  C
  C66      1.0000 0.18330  0.51490  0.77787  Biso   1.000  C
  C67      1.0000 0.15177  0.00173  0.11120  Biso   1.000  C
  C68      1.0000 0.99827  0.15003  0.11120  Biso   1.000  C
  C69      1.0000 0.84997  0.84823  0.11120  Biso   1.000  C
  C70      1.0000 0.81843  0.33507  0.44454  Biso   1.000  C
  C71      1.0000 0.66493  0.48337  0.44454  Biso   1.000  C
  C72      1.0000 0.51663  0.18157  0.44454  Biso   1.000  C
  H73      1.0000 0.56110  0.33180  0.23210  Biso   1.000  H
  H74      1.0000 0.66820  0.22930  0.23210  Biso   1.000  H
  H75      1.0000 0.77070  0.43890  0.23210  Biso   1.000  H
  H76      1.0000 0.22777  0.66513  0.56543  Biso   1.000  H
  H77      1.0000 0.33487  0.56263  0.56543  Biso   1.000  H
  H78      1.0000 0.43737  0.77223  0.56543  Biso   1.000  H
  H79      1.0000 0.89443  0.99847  0.89877  Biso   1.000  H
  H80      1.0000 0.00153  0.89597  0.89877  Biso   1.000  H
  H81      1.0000 0.10403  0.10557  0.89877  Biso   1.000  H
  H82      1.0000 0.43890  0.66820  0.76790  Biso   1.000  H
  H83      1.0000 0.33180  0.77070  0.76790  Biso   1.000  H
  H84      1.0000 0.22930  0.56110  0.76790  Biso   1.000  H
  H85      1.0000 0.10557  0.00153  0.10123  Biso   1.000  H
  H86      1.0000 0.99847  0.10403  0.10123  Biso   1.000  H
  H87      1.0000 0.89597  0.89443  0.10123  Biso   1.000  H
  H88      1.0000 0.77223  0.33487  0.43457  Biso   1.000  H
  H89      1.0000 0.66513  0.43737  0.43457  Biso   1.000  H
  H90      1.0000 0.56263  0.22777  0.43457  Biso   1.000  H
  C73      1.0000 0.42320  0.39930  0.21019  Biso   1.000  C
  C74      1.0000 0.60070  0.02390  0.21019  Biso   1.000  C
  C75      1.0000 0.97610  0.57680  0.21019  Biso   1.000  C
  C76      1.0000 0.08987  0.73263  0.54352  Biso   1.000  C
  C77      1.0000 0.26737  0.35723  0.54352  Biso   1.000  C
  C78      1.0000 0.64277  0.91013  0.54352  Biso   1.000  C
  C79      1.0000 0.75653  0.06597  0.87686  Biso   1.000  C
  C80      1.0000 0.93403  0.69057  0.87686  Biso   1.000  C
  C81      1.0000 0.30943  0.24347  0.87686  Biso   1.000  C
  C82      1.0000 0.57680  0.60070  0.78981  Biso   1.000  C
  C83      1.0000 0.39930  0.97610  0.78981  Biso   1.000  C
  C84      1.0000 0.02390  0.42320  0.78981  Biso   1.000  C
  C85      1.0000 0.24347  0.93403  0.12314  Biso   1.000  C
  C86      1.0000 0.06597  0.30943  0.12314  Biso   1.000  C
  C87      1.0000 0.69057  0.75653  0.12314  Biso   1.000  C
  C88      1.0000 0.91013  0.26737  0.45648  Biso   1.000  C
  C89      1.0000 0.73263  0.64277  0.45648  Biso   1.000  C
  C90      1.0000 0.35723  0.08987  0.45648  Biso   1.000  C
  H91      1.0000 0.40440  0.44700  0.21160  Biso   1.000  H
  H92      1.0000 0.55300  0.95740  0.21160  Biso   1.000  H
  H93      1.0000 0.04260  0.59560  0.21160  Biso   1.000  H
  H94      1.0000 0.07107  0.78033  0.54493  Biso   1.000  H
  H95      1.0000 0.21967  0.29073  0.54493  Biso   1.000  H
  H96      1.0000 0.70927  0.92893  0.54493  Biso   1.000  H
  H97      1.0000 0.73773  0.11367  0.87827  Biso   1.000  H
  H98      1.0000 0.88633  0.62407  0.87827  Biso   1.000  H
  H99      1.0000 0.37593  0.26227  0.87827  Biso   1.000  H
  H100     1.0000 0.59560  0.55300  0.78840  Biso   1.000  H
  H101     1.0000 0.44700  0.04260  0.78840  Biso   1.000  H
  H102     1.0000 0.95740  0.40440  0.78840  Biso   1.000  H
  H103     1.0000 0.26227  0.88633  0.12173  Biso   1.000  H
  H104     1.0000 0.11367  0.37593  0.12173  Biso   1.000  H
  H105     1.0000 0.62407  0.73773  0.12173  Biso   1.000  H
  H106     1.0000 0.92893  0.21967  0.45507  Biso   1.000  H
  H107     1.0000 0.78033  0.70927  0.45507  Biso   1.000  H
  H108     1.0000 0.29073  0.07107  0.45507  Biso   1.000  H
  C91      1.0000 0.38100  0.32870  0.19301  Biso   1.000  C
  C92      1.0000 0.67130  0.05230  0.19301  Biso   1.000  C
  C93      1.0000 0.94770  0.61900  0.19301  Biso   1.000  C
  C94      1.0000 0.04767  0.66203  0.52634  Biso   1.000  C
  C95      1.0000 0.33797  0.38563  0.52634  Biso   1.000  C
  C96      1.0000 0.61437  0.95233  0.52634  Biso   1.000  C
  C97      1.0000 0.71433  0.99537  0.85968  Biso   1.000  C
  C98      1.0000 0.00463  0.71897  0.85968  Biso   1.000  C
  C99      1.0000 0.28103  0.28567  0.85968  Biso   1.000  C
  C100     1.0000 0.61900  0.67130  0.80699  Biso   1.000  C
  C101     1.0000 0.32870  0.94770  0.80699  Biso   1.000  C
  C102     1.0000 0.05230  0.38100  0.80699  Biso   1.000  C
  C103     1.0000 0.28567  0.00463  0.14032  Biso   1.000  C
  C104     1.0000 0.99537  0.28103  0.14032  Biso   1.000  C
  C105     1.0000 0.71897  0.71433  0.14032  Biso   1.000  C
  C106     1.0000 0.95233  0.33797  0.47366  Biso   1.000  C
  C107     1.0000 0.66203  0.61437  0.47366  Biso   1.000  C
  C108     1.0000 0.38563  0.04767  0.47366  Biso   1.000  C
  H109     1.0000 0.33480  0.32960  0.18320  Biso   1.000  H
  H110     1.0000 0.67040  0.00520  0.18320  Biso   1.000  H
  H111     1.0000 0.99480  0.66520  0.18320  Biso   1.000  H
  H112     1.0000 0.00147  0.66293  0.51653  Biso   1.000  H
  H113     1.0000 0.33707  0.33853  0.51653  Biso   1.000  H
  H114     1.0000 0.66147  0.99853  0.51653  Biso   1.000  H
  H115     1.0000 0.66813  0.99627  0.84987  Biso   1.000  H
  H116     1.0000 0.00373  0.67187  0.84987  Biso   1.000  H
  H117     1.0000 0.32813  0.33187  0.84987  Biso   1.000  H
  H118     1.0000 0.66520  0.67040  0.81680  Biso   1.000  H
  H119     1.0000 0.32960  0.99480  0.81680  Biso   1.000  H
  H120     1.0000 0.00520  0.33480  0.81680  Biso   1.000  H
  H121     1.0000 0.33187  0.00373  0.15013  Biso   1.000  H
  H122     1.0000 0.99627  0.32813  0.15013  Biso   1.000  H
  H123     1.0000 0.67187  0.66813  0.15013  Biso   1.000  H
  H124     1.0000 0.99853  0.33707  0.48347  Biso   1.000  H
  H125     1.0000 0.66293  0.66147  0.48347  Biso   1.000  H
  H126     1.0000 0.33853  0.00147  0.48347  Biso   1.000  H
  C109     1.0000 0.65230  0.78630  0.33389  Biso   1.000  C
  C110     1.0000 0.21370  0.86600  0.33389  Biso   1.000  C
  C111     1.0000 0.13400  0.34770  0.33389  Biso   1.000  C
  C112     1.0000 0.31897  0.11963  0.66722  Biso   1.000  C
  C113     1.0000 0.88037  0.19933  0.66722  Biso   1.000  C
  C114     1.0000 0.80067  0.68103  0.66722  Biso   1.000  C
  C115     1.0000 0.98563  0.45297  0.00056  Biso   1.000  C
  C116     1.0000 0.54703  0.53267  0.00056  Biso   1.000  C
  C117     1.0000 0.46733  0.01437  0.00056  Biso   1.000  C
  C118     1.0000 0.34770  0.21370  0.66611  Biso   1.000  C
  C119     1.0000 0.78630  0.13400  0.66611  Biso   1.000  C
  C120     1.0000 0.86600  0.65230  0.66611  Biso   1.000  C
  C121     1.0000 0.01437  0.54703  0.99944  Biso   1.000  C
  C122     1.0000 0.45297  0.46733  0.99944  Biso   1.000  C
  C123     1.0000 0.53267  0.98563  0.99944  Biso   1.000  C
  C124     1.0000 0.68103  0.88037  0.33278  Biso   1.000  C
  C125     1.0000 0.11963  0.80067  0.33278  Biso   1.000  C
  C126     1.0000 0.19933  0.31897  0.33278  Biso   1.000  C
  H127     1.0000 0.65230  0.76030  0.34810  Biso   1.000  H
  H128     1.0000 0.23970  0.89200  0.34810  Biso   1.000  H
  H129     1.0000 0.10800  0.34770  0.34810  Biso   1.000  H
  H130     1.0000 0.31897  0.09363  0.68143  Biso   1.000  H
  H131     1.0000 0.90637  0.22533  0.68143  Biso   1.000  H
  H132     1.0000 0.77467  0.68103  0.68143  Biso   1.000  H
  H133     1.0000 0.98563  0.42697  0.01477  Biso   1.000  H
  H134     1.0000 0.57303  0.55867  0.01477  Biso   1.000  H
  H135     1.0000 0.44133  0.01437  0.01477  Biso   1.000  H
  H136     1.0000 0.34770  0.23970  0.65190  Biso   1.000  H
  H137     1.0000 0.76030  0.10800  0.65190  Biso   1.000  H
  H138     1.0000 0.89200  0.65230  0.65190  Biso   1.000  H
  H139     1.0000 0.01437  0.57303  0.98523  Biso   1.000  H
  H140     1.0000 0.42697  0.44133  0.98523  Biso   1.000  H
  H141     1.0000 0.55867  0.98563  0.98523  Biso   1.000  H
  H142     1.0000 0.68103  0.90637  0.31857  Biso   1.000  H
  H143     1.0000 0.09363  0.77467  0.31857  Biso   1.000  H
  H144     1.0000 0.22533  0.31897  0.31857  Biso   1.000  H
  C127     1.0000 0.61980  0.71760  0.31431  Biso   1.000  C
  C128     1.0000 0.28240  0.90220  0.31431  Biso   1.000  C
  C129     1.0000 0.09780  0.38020  0.31431  Biso   1.000  C
  C130     1.0000 0.28647  0.05093  0.64764  Biso   1.000  C
  C131     1.0000 0.94907  0.23553  0.64764  Biso   1.000  C
  C132     1.0000 0.76447  0.71353  0.64764  Biso   1.000  C
  C133     1.0000 0.95313  0.38427  0.98098  Biso   1.000  C
  C134     1.0000 0.61573  0.56887  0.98098  Biso   1.000  C
  C135     1.0000 0.43113  0.04687  0.98098  Biso   1.000  C
  C136     1.0000 0.38020  0.28240  0.68569  Biso   1.000  C
  C137     1.0000 0.71760  0.09780  0.68569  Biso   1.000  C
  C138     1.0000 0.90220  0.61980  0.68569  Biso   1.000  C
  C139     1.0000 0.04687  0.61573  0.01902  Biso   1.000  C
  C140     1.0000 0.38427  0.43113  0.01902  Biso   1.000  C
  C141     1.0000 0.56887  0.95313  0.01902  Biso   1.000  C
  C142     1.0000 0.71353  0.94907  0.35236  Biso   1.000  C
  C143     1.0000 0.05093  0.76447  0.35236  Biso   1.000  C
  C144     1.0000 0.23553  0.28647  0.35236  Biso   1.000  C
  C145     1.0000 0.60210  0.62220  0.31735  Biso   1.000  C
  C146     1.0000 0.37780  0.97990  0.31735  Biso   1.000  C
  C147     1.0000 0.02010  0.39790  0.31735  Biso   1.000  C
  C148     1.0000 0.26877  0.95553  0.65068  Biso   1.000  C
  C149     1.0000 0.04447  0.31323  0.65068  Biso   1.000  C
  C150     1.0000 0.68677  0.73123  0.65068  Biso   1.000  C
  C151     1.0000 0.93543  0.28887  0.98402  Biso   1.000  C
  C152     1.0000 0.71113  0.64657  0.98402  Biso   1.000  C
  C153     1.0000 0.35343  0.06457  0.98402  Biso   1.000  C
  C154     1.0000 0.39790  0.37780  0.68265  Biso   1.000  C
  C155     1.0000 0.62220  0.02010  0.68265  Biso   1.000  C
  C156     1.0000 0.97990  0.60210  0.68265  Biso   1.000  C
  C157     1.0000 0.06457  0.71113  0.01598  Biso   1.000  C
  C158     1.0000 0.28887  0.35343  0.01598  Biso   1.000  C
  C159     1.0000 0.64657  0.93543  0.01598  Biso   1.000  C
  C160     1.0000 0.73123  0.04447  0.34932  Biso   1.000  C
  C161     1.0000 0.95553  0.68677  0.34932  Biso   1.000  C
  C162     1.0000 0.31323  0.26877  0.34932  Biso   1.000  C
  H145     1.0000 0.60960  0.60110  0.33160  Biso   1.000  H
  H146     1.0000 0.39890  0.00850  0.33160  Biso   1.000  H
  H147     1.0000 0.99150  0.39040  0.33160  Biso   1.000  H
  H148     1.0000 0.27627  0.93443  0.66493  Biso   1.000  H
  H149     1.0000 0.06557  0.34183  0.66493  Biso   1.000  H
  H150     1.0000 0.65817  0.72373  0.66493  Biso   1.000  H
  H151     1.0000 0.94293  0.26777  0.99827  Biso   1.000  H
  H152     1.0000 0.73223  0.67517  0.99827  Biso   1.000  H
  H153     1.0000 0.32483  0.05707  0.99827  Biso   1.000  H
  H154     1.0000 0.39040  0.39890  0.66840  Biso   1.000  H
  H155     1.0000 0.60110  0.99150  0.66840  Biso   1.000  H
  H156     1.0000 0.00850  0.60960  0.66840  Biso   1.000  H
  H157     1.0000 0.05707  0.73223  0.00173  Biso   1.000  H
  H158     1.0000 0.26777  0.32483  0.00173  Biso   1.000  H
  H159     1.0000 0.67517  0.94293  0.00173  Biso   1.000  H
  H160     1.0000 0.72373  0.06557  0.33507  Biso   1.000  H
  H161     1.0000 0.93443  0.65817  0.33507  Biso   1.000  H
  H162     1.0000 0.34183  0.27627  0.33507  Biso   1.000  H
  C163     1.0000 0.57310  0.55830  0.29898  Biso   1.000  C
  C164     1.0000 0.44170  0.01480  0.29898  Biso   1.000  C
  C165     1.0000 0.98520  0.42690  0.29898  Biso   1.000  C
  C166     1.0000 0.23977  0.89163  0.63231  Biso   1.000  C
  C167     1.0000 0.10837  0.34813  0.63231  Biso   1.000  C
  C168     1.0000 0.65187  0.76023  0.63231  Biso   1.000  C
  C169     1.0000 0.90643  0.22497  0.96565  Biso   1.000  C
  C170     1.0000 0.77503  0.68147  0.96565  Biso   1.000  C
  C171     1.0000 0.31853  0.09357  0.96565  Biso   1.000  C
  C172     1.0000 0.42690  0.44170  0.70102  Biso   1.000  C
  C173     1.0000 0.55830  0.98520  0.70102  Biso   1.000  C
  C174     1.0000 0.01480  0.57310  0.70102  Biso   1.000  C
  C175     1.0000 0.09357  0.77503  0.03435  Biso   1.000  C
  C176     1.0000 0.22497  0.31853  0.03435  Biso   1.000  C
  C177     1.0000 0.68147  0.90643  0.03435  Biso   1.000  C
  C178     1.0000 0.76023  0.10837  0.36769  Biso   1.000  C
  C179     1.0000 0.89163  0.65187  0.36769  Biso   1.000  C
  C180     1.0000 0.34813  0.23977  0.36769  Biso   1.000  C
  H163     1.0000 0.56020  0.49400  0.30130  Biso   1.000  H
  H164     1.0000 0.50600  0.06620  0.30130  Biso   1.000  H
  H165     1.0000 0.93380  0.43980  0.30130  Biso   1.000  H
  H166     1.0000 0.22687  0.82733  0.63463  Biso   1.000  H
  H167     1.0000 0.17267  0.39953  0.63463  Biso   1.000  H
  H168     1.0000 0.60047  0.77313  0.63463  Biso   1.000  H
  H169     1.0000 0.89353  0.16067  0.96797  Biso   1.000  H
  H170     1.0000 0.83933  0.73287  0.96797  Biso   1.000  H
  H171     1.0000 0.26713  0.10647  0.96797  Biso   1.000  H
  H172     1.0000 0.43980  0.50600  0.69870  Biso   1.000  H
  H173     1.0000 0.49400  0.93380  0.69870  Biso   1.000  H
  H174     1.0000 0.06620  0.56020  0.69870  Biso   1.000  H
  H175     1.0000 0.10647  0.83933  0.03203  Biso   1.000  H
  H176     1.0000 0.16067  0.26713  0.03203  Biso   1.000  H
  H177     1.0000 0.73287  0.89353  0.03203  Biso   1.000  H
  H178     1.0000 0.77313  0.17267  0.36537  Biso   1.000  H
  H179     1.0000 0.82733  0.60047  0.36537  Biso   1.000  H
  H180     1.0000 0.39953  0.22687  0.36537  Biso   1.000  H
  C181     1.0000 0.58010  0.67710  0.27528  Biso   1.000  C
  C182     1.0000 0.32290  0.90300  0.27528  Biso   1.000  C
  C183     1.0000 0.09700  0.41990  0.27528  Biso   1.000  C
  C184     1.0000 0.24677  0.01043  0.60861  Biso   1.000  C
  C185     1.0000 0.98957  0.23633  0.60861  Biso   1.000  C
  C186     1.0000 0.76367  0.75323  0.60861  Biso   1.000  C
  C187     1.0000 0.91343  0.34377  0.94195  Biso   1.000  C
  C188     1.0000 0.65623  0.56967  0.94195  Biso   1.000  C
  C189     1.0000 0.43033  0.08657  0.94195  Biso   1.000  C
  C190     1.0000 0.41990  0.32290  0.72472  Biso   1.000  C
  C191     1.0000 0.67710  0.09700  0.72472  Biso   1.000  C
  C192     1.0000 0.90300  0.58010  0.72472  Biso   1.000  C
  C193     1.0000 0.08657  0.65623  0.05805  Biso   1.000  C
  C194     1.0000 0.34377  0.43033  0.05805  Biso   1.000  C
  C195     1.0000 0.56967  0.91343  0.05805  Biso   1.000  C
  C196     1.0000 0.75323  0.98957  0.39139  Biso   1.000  C
  C197     1.0000 0.01043  0.76367  0.39139  Biso   1.000  C
  C198     1.0000 0.23633  0.24677  0.39139  Biso   1.000  C
  H181     1.0000 0.57330  0.69690  0.26080  Biso   1.000  H
  H182     1.0000 0.30310  0.87640  0.26080  Biso   1.000  H
  H183     1.0000 0.12360  0.42670  0.26080  Biso   1.000  H
  H184     1.0000 0.23997  0.03023  0.59413  Biso   1.000  H
  H185     1.0000 0.96977  0.20973  0.59413  Biso   1.000  H
  H186     1.0000 0.79027  0.76003  0.59413  Biso   1.000  H
  H187     1.0000 0.90663  0.36357  0.92747  Biso   1.000  H
  H188     1.0000 0.63643  0.54307  0.92747  Biso   1.000  H
  H189     1.0000 0.45693  0.09337  0.92747  Biso   1.000  H
  H190     1.0000 0.42670  0.30310  0.73920  Biso   1.000  H
  H191     1.0000 0.69690  0.12360  0.73920  Biso   1.000  H
  H192     1.0000 0.87640  0.57330  0.73920  Biso   1.000  H
  H193     1.0000 0.09337  0.63643  0.07253  Biso   1.000  H
  H194     1.0000 0.36357  0.45693  0.07253  Biso   1.000  H
  H195     1.0000 0.54307  0.90663  0.07253  Biso   1.000  H
  H196     1.0000 0.76003  0.96977  0.40587  Biso   1.000  H
  H197     1.0000 0.03023  0.79027  0.40587  Biso   1.000  H
  H198     1.0000 0.20973  0.23997  0.40587  Biso   1.000  H
  C199     1.0000 0.60780  0.74440  0.29280  Biso   1.000  C
  C200     1.0000 0.25560  0.86340  0.29280  Biso   1.000  C
  C201     1.0000 0.13660  0.39220  0.29280  Biso   1.000  C
  C202     1.0000 0.27447  0.07773  0.62613  Biso   1.000  C
  C203     1.0000 0.92227  0.19673  0.62613  Biso   1.000  C
  C204     1.0000 0.80327  0.72553  0.62613  Biso   1.000  C
  C205     1.0000 0.94113  0.41107  0.95947  Biso   1.000  C
  C206     1.0000 0.58893  0.53007  0.95947  Biso   1.000  C
  C207     1.0000 0.46993  0.05887  0.95947  Biso   1.000  C
  C208     1.0000 0.39220  0.25560  0.70720  Biso   1.000  C
  C209     1.0000 0.74440  0.13660  0.70720  Biso   1.000  C
  C210     1.0000 0.86340  0.60780  0.70720  Biso   1.000  C
  C211     1.0000 0.05887  0.58893  0.04053  Biso   1.000  C
  C212     1.0000 0.41107  0.46993  0.04053  Biso   1.000  C
  C213     1.0000 0.53007  0.94113  0.04053  Biso   1.000  C
  C214     1.0000 0.72553  0.92227  0.37387  Biso   1.000  C
  C215     1.0000 0.07773  0.80327  0.37387  Biso   1.000  C
  C216     1.0000 0.19673  0.27447  0.37387  Biso   1.000  C
  H199     1.0000 0.61830  0.80770  0.29010  Biso   1.000  H
  H200     1.0000 0.19230  0.81060  0.29010  Biso   1.000  H
  H201     1.0000 0.18940  0.38170  0.29010  Biso   1.000  H
  H202     1.0000 0.28497  0.14103  0.62343  Biso   1.000  H
  H203     1.0000 0.85897  0.14393  0.62343  Biso   1.000  H
  H204     1.0000 0.85607  0.71503  0.62343  Biso   1.000  H
  H205     1.0000 0.95163  0.47437  0.95677  Biso   1.000  H
  H206     1.0000 0.52563  0.47727  0.95677  Biso   1.000  H
  H207     1.0000 0.52273  0.04837  0.95677  Biso   1.000  H
  H208     1.0000 0.38170  0.19230  0.70990  Biso   1.000  H
  H209     1.0000 0.80770  0.18940  0.70990  Biso   1.000  H
  H210     1.0000 0.81060  0.61830  0.70990  Biso   1.000  H
  H211     1.0000 0.04837  0.52563  0.04323  Biso   1.000  H
  H212     1.0000 0.47437  0.52273  0.04323  Biso   1.000  H
  H213     1.0000 0.47727  0.95163  0.04323  Biso   1.000  H
  H214     1.0000 0.71503  0.85897  0.37657  Biso   1.000  H
  H215     1.0000 0.14103  0.85607  0.37657  Biso   1.000  H
  H216     1.0000 0.14393  0.28497  0.37657  Biso   1.000  H
  C217     1.0000 0.40187  0.31419  0.27650  Biso   1.000  C
  C218     1.0000 0.68581  0.08768  0.27650  Biso   1.000  C
  C219     1.0000 0.91232  0.59813  0.27650  Biso   1.000  C
  C220     1.0000 0.06854  0.64752  0.60983  Biso   1.000  C
  C221     1.0000 0.35248  0.42101  0.60983  Biso   1.000  C
  C222     1.0000 0.57899  0.93146  0.60983  Biso   1.000  C
  C223     1.0000 0.73520  0.98086  0.94317  Biso   1.000  C
  C224     1.0000 0.01914  0.75435  0.94317  Biso   1.000  C
  C225     1.0000 0.24565  0.26480  0.94317  Biso   1.000  C
  C226     1.0000 0.59813  0.68581  0.72350  Biso   1.000  C
  C227     1.0000 0.31419  0.91232  0.72350  Biso   1.000  C
  C228     1.0000 0.08768  0.40187  0.72350  Biso   1.000  C
  C229     1.0000 0.26480  0.01914  0.05683  Biso   1.000  C
  C230     1.0000 0.98086  0.24565  0.05683  Biso   1.000  C
  C231     1.0000 0.75435  0.73520  0.05683  Biso   1.000  C
  C232     1.0000 0.93146  0.35248  0.39017  Biso   1.000  C
  C233     1.0000 0.64752  0.57899  0.39017  Biso   1.000  C
  C234     1.0000 0.42101  0.06854  0.39017  Biso   1.000  C
  C235     1.0000 0.29533  0.23255  0.27911  Biso   1.000  C
  C236     1.0000 0.76745  0.06278  0.27911  Biso   1.000  C
  C237     1.0000 0.93722  0.70467  0.27911  Biso   1.000  C
  C238     1.0000 0.96200  0.56588  0.61244  Biso   1.000  C
  C239     1.0000 0.43412  0.39611  0.61244  Biso   1.000  C
  C240     1.0000 0.60389  0.03800  0.61244  Biso   1.000  C
  C241     1.0000 0.62866  0.89922  0.94578  Biso   1.000  C
  C242     1.0000 0.10078  0.72945  0.94578  Biso   1.000  C
  C243     1.0000 0.27055  0.37134  0.94578  Biso   1.000  C
  C244     1.0000 0.70467  0.76745  0.72089  Biso   1.000  C
  C245     1.0000 0.23255  0.93722  0.72089  Biso   1.000  C
  C246     1.0000 0.06278  0.29533  0.72089  Biso   1.000  C
  C247     1.0000 0.37134  0.10078  0.05422  Biso   1.000  C
  C248     1.0000 0.89922  0.27055  0.05422  Biso   1.000  C
  C249     1.0000 0.72945  0.62866  0.05422  Biso   1.000  C
  C250     1.0000 0.03800  0.43412  0.38756  Biso   1.000  C
  C251     1.0000 0.56588  0.60389  0.38756  Biso   1.000  C
  C252     1.0000 0.39611  0.96200  0.38756  Biso   1.000  C
  C253     1.0000 0.27203  0.15048  0.29245  Biso   1.000  C
  C254     1.0000 0.84952  0.12155  0.29245  Biso   1.000  C
  C255     1.0000 0.87845  0.72797  0.29245  Biso   1.000  C
  C256     1.0000 0.93870  0.48381  0.62578  Biso   1.000  C
  C257     1.0000 0.51619  0.45488  0.62578  Biso   1.000  C
  C258     1.0000 0.54512  0.06130  0.62578  Biso   1.000  C
  C259     1.0000 0.60536  0.81715  0.95912  Biso   1.000  C
  C260     1.0000 0.18285  0.78822  0.95912  Biso   1.000  C
  C261     1.0000 0.21178  0.39464  0.95912  Biso   1.000  C
  C262     1.0000 0.72797  0.84952  0.70755  Biso   1.000  C
  C263     1.0000 0.15048  0.87845  0.70755  Biso   1.000  C
  C264     1.0000 0.12155  0.27203  0.70755  Biso   1.000  C
  C265     1.0000 0.39464  0.18285  0.04088  Biso   1.000  C
  C266     1.0000 0.81715  0.21178  0.04088  Biso   1.000  C
  C267     1.0000 0.78822  0.60536  0.04088  Biso   1.000  C
  C268     1.0000 0.06130  0.51619  0.37422  Biso   1.000  C
  C269     1.0000 0.48381  0.54512  0.37422  Biso   1.000  C
  C270     1.0000 0.45488  0.93870  0.37422  Biso   1.000  C
  H217     1.0000 0.32220  0.14600  0.29990  Biso   1.000  H
  H218     1.0000 0.85400  0.17620  0.29990  Biso   1.000  H
  H219     1.0000 0.82380  0.67780  0.29990  Biso   1.000  H
  H220     1.0000 0.98887  0.47933  0.63323  Biso   1.000  H
  H221     1.0000 0.52067  0.50953  0.63323  Biso   1.000  H
  H222     1.0000 0.49047  0.01113  0.63323  Biso   1.000  H
  H223     1.0000 0.65553  0.81267  0.96657  Biso   1.000  H
  H224     1.0000 0.18733  0.84287  0.96657  Biso   1.000  H
  H225     1.0000 0.15713  0.34447  0.96657  Biso   1.000  H
  H226     1.0000 0.67780  0.85400  0.70010  Biso   1.000  H
  H227     1.0000 0.14600  0.82380  0.70010  Biso   1.000  H
  H228     1.0000 0.17620  0.32220  0.70010  Biso   1.000  H
  H229     1.0000 0.34447  0.18733  0.03343  Biso   1.000  H
  H230     1.0000 0.81267  0.15713  0.03343  Biso   1.000  H
  H231     1.0000 0.84287  0.65553  0.03343  Biso   1.000  H
  H232     1.0000 0.01113  0.52067  0.36677  Biso   1.000  H
  H233     1.0000 0.47933  0.49047  0.36677  Biso   1.000  H
  H234     1.0000 0.50953  0.98887  0.36677  Biso   1.000  H
  C271     1.0000 0.17439  0.07496  0.29475  Biso   1.000  C
  C272     1.0000 0.92504  0.09943  0.29475  Biso   1.000  C
  C273     1.0000 0.90057  0.82561  0.29475  Biso   1.000  C
  C274     1.0000 0.84106  0.40829  0.62808  Biso   1.000  C
  C275     1.0000 0.59171  0.43276  0.62808  Biso   1.000  C
  C276     1.0000 0.56724  0.15894  0.62808  Biso   1.000  C
  C277     1.0000 0.50772  0.74163  0.96142  Biso   1.000  C
  C278     1.0000 0.25837  0.76610  0.96142  Biso   1.000  C
  C279     1.0000 0.23390  0.49228  0.96142  Biso   1.000  C
  C280     1.0000 0.82561  0.92504  0.70525  Biso   1.000  C
  C281     1.0000 0.07496  0.90057  0.70525  Biso   1.000  C
  C282     1.0000 0.09943  0.17439  0.70525  Biso   1.000  C
  C283     1.0000 0.49228  0.25837  0.03858  Biso   1.000  C
  C284     1.0000 0.74163  0.23390  0.03858  Biso   1.000  C
  C285     1.0000 0.76610  0.50772  0.03858  Biso   1.000  C
  C286     1.0000 0.15894  0.59171  0.37192  Biso   1.000  C
  C287     1.0000 0.40829  0.56724  0.37192  Biso   1.000  C
  C288     1.0000 0.43276  0.84106  0.37192  Biso   1.000  C
  H235     1.0000 0.15930  0.02100  0.30400  Biso   1.000  H
  H236     1.0000 0.97900  0.13830  0.30400  Biso   1.000  H
  H237     1.0000 0.86170  0.84070  0.30400  Biso   1.000  H
  H238     1.0000 0.82597  0.35433  0.63733  Biso   1.000  H
  H239     1.0000 0.64567  0.47163  0.63733  Biso   1.000  H
  H240     1.0000 0.52837  0.17403  0.63733  Biso   1.000  H
  H241     1.0000 0.49263  0.68767  0.97067  Biso   1.000  H
  H242     1.0000 0.31233  0.80497  0.97067  Biso   1.000  H
  H243     1.0000 0.19503  0.50737  0.97067  Biso   1.000  H
  H244     1.0000 0.84070  0.97900  0.69600  Biso   1.000  H
  H245     1.0000 0.02100  0.86170  0.69600  Biso   1.000  H
  H246     1.0000 0.13830  0.15930  0.69600  Biso   1.000  H
  H247     1.0000 0.50737  0.31233  0.02933  Biso   1.000  H
  H248     1.0000 0.68767  0.19503  0.02933  Biso   1.000  H
  H249     1.0000 0.80497  0.49263  0.02933  Biso   1.000  H
  H250     1.0000 0.17403  0.64567  0.36267  Biso   1.000  H
  H251     1.0000 0.35433  0.52837  0.36267  Biso   1.000  H
  H252     1.0000 0.47163  0.82597  0.36267  Biso   1.000  H
  C289     1.0000 0.09913  0.07979  0.28324  Biso   1.000  C
  C290     1.0000 0.92021  0.01934  0.28324  Biso   1.000  C
  C291     1.0000 0.98066  0.90087  0.28324  Biso   1.000  C
  C292     1.0000 0.76580  0.41312  0.61657  Biso   1.000  C
  C293     1.0000 0.58688  0.35267  0.61657  Biso   1.000  C
  C294     1.0000 0.64733  0.23420  0.61657  Biso   1.000  C
  C295     1.0000 0.43246  0.74646  0.94991  Biso   1.000  C
  C296     1.0000 0.25354  0.68601  0.94991  Biso   1.000  C
  C297     1.0000 0.31399  0.56754  0.94991  Biso   1.000  C
  C298     1.0000 0.90087  0.92021  0.71676  Biso   1.000  C
  C299     1.0000 0.07979  0.98066  0.71676  Biso   1.000  C
  C300     1.0000 0.01934  0.09913  0.71676  Biso   1.000  C
  C301     1.0000 0.56754  0.25354  0.05009  Biso   1.000  C
  C302     1.0000 0.74646  0.31399  0.05009  Biso   1.000  C
  C303     1.0000 0.68601  0.43246  0.05009  Biso   1.000  C
  C304     1.0000 0.23420  0.58688  0.38343  Biso   1.000  C
  C305     1.0000 0.41312  0.64733  0.38343  Biso   1.000  C
  C306     1.0000 0.35267  0.76580  0.38343  Biso   1.000  C
  C307     1.0000 0.12235  0.16203  0.26975  Biso   1.000  C
  C308     1.0000 0.83797  0.96032  0.26975  Biso   1.000  C
  C309     1.0000 0.03968  0.87765  0.26975  Biso   1.000  C
  C310     1.0000 0.78902  0.49536  0.60308  Biso   1.000  C
  C311     1.0000 0.50464  0.29365  0.60308  Biso   1.000  C
  C312     1.0000 0.70635  0.21098  0.60308  Biso   1.000  C
  C313     1.0000 0.45568  0.82870  0.93642  Biso   1.000  C
  C314     1.0000 0.17130  0.62699  0.93642  Biso   1.000  C
  C315     1.0000 0.37301  0.54432  0.93642  Biso   1.000  C
  C316     1.0000 0.87765  0.83797  0.73025  Biso   1.000  C
  C317     1.0000 0.16203  0.03968  0.73025  Biso   1.000  C
  C318     1.0000 0.96032  0.12235  0.73025  Biso   1.000  C
  C319     1.0000 0.54432  0.17130  0.06358  Biso   1.000  C
  C320     1.0000 0.82870  0.37301  0.06358  Biso   1.000  C
  C321     1.0000 0.62699  0.45568  0.06358  Biso   1.000  C
  C322     1.0000 0.21098  0.50464  0.39692  Biso   1.000  C
  C323     1.0000 0.49536  0.70635  0.39692  Biso   1.000  C
  C324     1.0000 0.29365  0.78902  0.39692  Biso   1.000  C
  H253     1.0000 0.07250  0.16610  0.26200  Biso   1.000  H
  H254     1.0000 0.83390  0.90640  0.26200  Biso   1.000  H
  H255     1.0000 0.09360  0.92750  0.26200  Biso   1.000  H
  H256     1.0000 0.73917  0.49943  0.59533  Biso   1.000  H
  H257     1.0000 0.50057  0.23973  0.59533  Biso   1.000  H
  H258     1.0000 0.76027  0.26083  0.59533  Biso   1.000  H
  H259     1.0000 0.40583  0.83277  0.92867  Biso   1.000  H
  H260     1.0000 0.16723  0.57307  0.92867  Biso   1.000  H
  H261     1.0000 0.42693  0.59417  0.92867  Biso   1.000  H
  H262     1.0000 0.92750  0.83390  0.73800  Biso   1.000  H
  H263     1.0000 0.16610  0.09360  0.73800  Biso   1.000  H
  H264     1.0000 0.90640  0.07250  0.73800  Biso   1.000  H
  H265     1.0000 0.59417  0.16723  0.07133  Biso   1.000  H
  H266     1.0000 0.83277  0.42693  0.07133  Biso   1.000  H
  H267     1.0000 0.57307  0.40583  0.07133  Biso   1.000  H
  H268     1.0000 0.26083  0.50057  0.40467  Biso   1.000  H
  H269     1.0000 0.49943  0.76027  0.40467  Biso   1.000  H
  H270     1.0000 0.23973  0.73917  0.40467  Biso   1.000  H
  C325     1.0000 0.21962  0.23759  0.26791  Biso   1.000  C
  C326     1.0000 0.76241  0.98203  0.26791  Biso   1.000  C
  C327     1.0000 0.01797  0.78038  0.26791  Biso   1.000  C
  C328     1.0000 0.88629  0.57092  0.60124  Biso   1.000  C
  C329     1.0000 0.42908  0.31536  0.60124  Biso   1.000  C
  C330     1.0000 0.68464  0.11371  0.60124  Biso   1.000  C
  C331     1.0000 0.55295  0.90426  0.93458  Biso   1.000  C
  C332     1.0000 0.09574  0.64870  0.93458  Biso   1.000  C
  C333     1.0000 0.35130  0.44705  0.93458  Biso   1.000  C
  C334     1.0000 0.78038  0.76241  0.73209  Biso   1.000  C
  C335     1.0000 0.23759  0.01797  0.73209  Biso   1.000  C
  C336     1.0000 0.98203  0.21962  0.73209  Biso   1.000  C
  C337     1.0000 0.44705  0.09574  0.06542  Biso   1.000  C
  C338     1.0000 0.90426  0.35130  0.06542  Biso   1.000  C
  C339     1.0000 0.64870  0.55295  0.06542  Biso   1.000  C
  C340     1.0000 0.11371  0.42908  0.39876  Biso   1.000  C
  C341     1.0000 0.57092  0.68464  0.39876  Biso   1.000  C
  C342     1.0000 0.31536  0.88629  0.39876  Biso   1.000  C
  H271     1.0000 0.23450  0.29260  0.25900  Biso   1.000  H
  H272     1.0000 0.70740  0.94190  0.25900  Biso   1.000  H
  H273     1.0000 0.05810  0.76550  0.25900  Biso   1.000  H
  H274     1.0000 0.90117  0.62593  0.59233  Biso   1.000  H
  H275     1.0000 0.37407  0.27523  0.59233  Biso   1.000  H
  H276     1.0000 0.72477  0.09883  0.59233  Biso   1.000  H
  H277     1.0000 0.56783  0.95927  0.92567  Biso   1.000  H
  H278     1.0000 0.04073  0.60857  0.92567  Biso   1.000  H
  H279     1.0000 0.39143  0.43217  0.92567  Biso   1.000  H
  H280     1.0000 0.76550  0.70740  0.74100  Biso   1.000  H
  H281     1.0000 0.29260  0.05810  0.74100  Biso   1.000  H
  H282     1.0000 0.94190  0.23450  0.74100  Biso   1.000  H
  H283     1.0000 0.43217  0.04073  0.07433  Biso   1.000  H
  H284     1.0000 0.95927  0.39143  0.07433  Biso   1.000  H
  H285     1.0000 0.60857  0.56783  0.07433  Biso   1.000  H
  H286     1.0000 0.09883  0.37407  0.40767  Biso   1.000  H
  H287     1.0000 0.62593  0.72477  0.40767  Biso   1.000  H
  H288     1.0000 0.27523  0.90117  0.40767  Biso   1.000  H
  C343     1.0000 0.63660  0.65210  0.22159  Biso   1.000  C
  C344     1.0000 0.34790  0.98450  0.22159  Biso   1.000  C
  C345     1.0000 0.01550  0.36340  0.22159  Biso   1.000  C
  C346     1.0000 0.30327  0.98543  0.55492  Biso   1.000  C
  C347     1.0000 0.01457  0.31783  0.55492  Biso   1.000  C
  C348     1.0000 0.68217  0.69673  0.55492  Biso   1.000  C
  C349     1.0000 0.96993  0.31877  0.88826  Biso   1.000  C
  C350     1.0000 0.68123  0.65117  0.88826  Biso   1.000  C
  C351     1.0000 0.34883  0.03007  0.88826  Biso   1.000  C
  C352     1.0000 0.36340  0.34790  0.77841  Biso   1.000  C
  C353     1.0000 0.65210  0.01550  0.77841  Biso   1.000  C
  C354     1.0000 0.98450  0.63660  0.77841  Biso   1.000  C
  C355     1.0000 0.03007  0.68123  0.11174  Biso   1.000  C
  C356     1.0000 0.31877  0.34883  0.11174  Biso   1.000  C
  C357     1.0000 0.65117  0.96993  0.11174  Biso   1.000  C
  C358     1.0000 0.69673  0.01457  0.44508  Biso   1.000  C
  C359     1.0000 0.98543  0.68217  0.44508  Biso   1.000  C
  C360     1.0000 0.31783  0.30327  0.44508  Biso   1.000  C
  C361     1.0000 0.73218  0.74115  0.21411  Biso   1.000  C
  C362     1.0000 0.25885  0.99103  0.21411  Biso   1.000  C
  C363     1.0000 0.00897  0.26782  0.21411  Biso   1.000  C
  C364     1.0000 0.39885  0.07448  0.54744  Biso   1.000  C
  C365     1.0000 0.92552  0.32436  0.54744  Biso   1.000  C
  C366     1.0000 0.67564  0.60115  0.54744  Biso   1.000  C
  C367     1.0000 0.06551  0.40782  0.88078  Biso   1.000  C
  C368     1.0000 0.59218  0.65770  0.88078  Biso   1.000  C
  C369     1.0000 0.34230  0.93449  0.88078  Biso   1.000  C
  C370     1.0000 0.26782  0.25885  0.78589  Biso   1.000  C
  C371     1.0000 0.74115  0.00897  0.78589  Biso   1.000  C
  C372     1.0000 0.99103  0.73218  0.78589  Biso   1.000  C
  C373     1.0000 0.93449  0.59218  0.11922  Biso   1.000  C
  C374     1.0000 0.40782  0.34230  0.11922  Biso   1.000  C
  C375     1.0000 0.65770  0.06551  0.11922  Biso   1.000  C
  C376     1.0000 0.60115  0.92552  0.45256  Biso   1.000  C
  C377     1.0000 0.07448  0.67564  0.45256  Biso   1.000  C
  C378     1.0000 0.32436  0.39885  0.45256  Biso   1.000  C
  C379     1.0000 0.73386  0.80663  0.19795  Biso   1.000  C
  C380     1.0000 0.19337  0.92723  0.19795  Biso   1.000  C
  C381     1.0000 0.07277  0.26614  0.19795  Biso   1.000  C
  C382     1.0000 0.40053  0.13996  0.53128  Biso   1.000  C
  C383     1.0000 0.86004  0.26056  0.53128  Biso   1.000  C
  C384     1.0000 0.73944  0.59947  0.53128  Biso   1.000  C
  C385     1.0000 0.06719  0.47330  0.86462  Biso   1.000  C
  C386     1.0000 0.52670  0.59390  0.86462  Biso   1.000  C
  C387     1.0000 0.40610  0.93281  0.86462  Biso   1.000  C
  C388     1.0000 0.26614  0.19337  0.80205  Biso   1.000  C
  C389     1.0000 0.80663  0.07277  0.80205  Biso   1.000  C
  C390     1.0000 0.92723  0.73386  0.80205  Biso   1.000  C
  C391     1.0000 0.93281  0.52670  0.13538  Biso   1.000  C
  C392     1.0000 0.47330  0.40610  0.13538  Biso   1.000  C
  C393     1.0000 0.59390  0.06719  0.13538  Biso   1.000  C
  C394     1.0000 0.59947  0.86004  0.46872  Biso   1.000  C
  C395     1.0000 0.13996  0.73944  0.46872  Biso   1.000  C
  C396     1.0000 0.26056  0.40053  0.46872  Biso   1.000  C
  H289     1.0000 0.67510  0.79510  0.19120  Biso   1.000  H
  H290     1.0000 0.20490  0.88000  0.19120  Biso   1.000  H
  H291     1.0000 0.12000  0.32490  0.19120  Biso   1.000  H
  H292     1.0000 0.34177  0.12843  0.52453  Biso   1.000  H
  H293     1.0000 0.87157  0.21333  0.52453  Biso   1.000  H
  H294     1.0000 0.78667  0.65823  0.52453  Biso   1.000  H
  H295     1.0000 0.00843  0.46177  0.85787  Biso   1.000  H
  H296     1.0000 0.53823  0.54667  0.85787  Biso   1.000  H
  H297     1.0000 0.45333  0.99157  0.85787  Biso   1.000  H
  H298     1.0000 0.32490  0.20490  0.80880  Biso   1.000  H
  H299     1.0000 0.79510  0.12000  0.80880  Biso   1.000  H
  H300     1.0000 0.88000  0.67510  0.80880  Biso   1.000  H
  H301     1.0000 0.99157  0.53823  0.14213  Biso   1.000  H
  H302     1.0000 0.46177  0.45333  0.14213  Biso   1.000  H
  H303     1.0000 0.54667  0.00843  0.14213  Biso   1.000  H
  H304     1.0000 0.65823  0.87157  0.47547  Biso   1.000  H
  H305     1.0000 0.12843  0.78667  0.47547  Biso   1.000  H
  H306     1.0000 0.21333  0.34177  0.47547  Biso   1.000  H
  C397     1.0000 0.82271  0.88935  0.19171  Biso   1.000  C
  C398     1.0000 0.11065  0.93336  0.19171  Biso   1.000  C
  C399     1.0000 0.06664  0.17729  0.19171  Biso   1.000  C
  C400     1.0000 0.48938  0.22268  0.52504  Biso   1.000  C
  C401     1.0000 0.77732  0.26669  0.52504  Biso   1.000  C
  C402     1.0000 0.73331  0.51062  0.52504  Biso   1.000  C
  C403     1.0000 0.15604  0.55602  0.85838  Biso   1.000  C
  C404     1.0000 0.44398  0.60003  0.85838  Biso   1.000  C
  C405     1.0000 0.39997  0.84396  0.85838  Biso   1.000  C
  C406     1.0000 0.17729  0.11065  0.80829  Biso   1.000  C
  C407     1.0000 0.88935  0.06664  0.80829  Biso   1.000  C
  C408     1.0000 0.93336  0.82271  0.80829  Biso   1.000  C
  C409     1.0000 0.84396  0.44398  0.14162  Biso   1.000  C
  C410     1.0000 0.55602  0.39997  0.14162  Biso   1.000  C
  C411     1.0000 0.60003  0.15604  0.14162  Biso   1.000  C
  C412     1.0000 0.51062  0.77732  0.47496  Biso   1.000  C
  C413     1.0000 0.22268  0.73331  0.47496  Biso   1.000  C
  C414     1.0000 0.26669  0.48938  0.47496  Biso   1.000  C
  H307     1.0000 0.82340  0.93150  0.18050  Biso   1.000  H
  H308     1.0000 0.06850  0.89190  0.18050  Biso   1.000  H
  H309     1.0000 0.10810  0.17660  0.18050  Biso   1.000  H
  H310     1.0000 0.49007  0.26483  0.51383  Biso   1.000  H
  H311     1.0000 0.73517  0.22523  0.51383  Biso   1.000  H
  H312     1.0000 0.77477  0.50993  0.51383  Biso   1.000  H
  H313     1.0000 0.15673  0.59817  0.84717  Biso   1.000  H
  H314     1.0000 0.40183  0.55857  0.84717  Biso   1.000  H
  H315     1.0000 0.44143  0.84327  0.84717  Biso   1.000  H
  H316     1.0000 0.17660  0.06850  0.81950  Biso   1.000  H
  H317     1.0000 0.93150  0.10810  0.81950  Biso   1.000  H
  H318     1.0000 0.89190  0.82340  0.81950  Biso   1.000  H
  H319     1.0000 0.84327  0.40183  0.15283  Biso   1.000  H
  H320     1.0000 0.59817  0.44143  0.15283  Biso   1.000  H
  H321     1.0000 0.55857  0.15673  0.15283  Biso   1.000  H
  H322     1.0000 0.50993  0.73517  0.48617  Biso   1.000  H
  H323     1.0000 0.26483  0.77477  0.48617  Biso   1.000  H
  H324     1.0000 0.22523  0.49007  0.48617  Biso   1.000  H
  C415     1.0000 0.91059  0.90922  0.20226  Biso   1.000  C
  C416     1.0000 0.09078  0.00137  0.20226  Biso   1.000  C
  C417     1.0000 0.99863  0.08941  0.20226  Biso   1.000  C
  C418     1.0000 0.57726  0.24255  0.53559  Biso   1.000  C
  C419     1.0000 0.75745  0.33470  0.53559  Biso   1.000  C
  C420     1.0000 0.66530  0.42274  0.53559  Biso   1.000  C
  C421     1.0000 0.24392  0.57589  0.86893  Biso   1.000  C
  C422     1.0000 0.42411  0.66804  0.86893  Biso   1.000  C
  C423     1.0000 0.33196  0.75608  0.86893  Biso   1.000  C
  C424     1.0000 0.08941  0.09078  0.79774  Biso   1.000  C
  C425     1.0000 0.90922  0.99863  0.79774  Biso   1.000  C
  C426     1.0000 0.00137  0.91059  0.79774  Biso   1.000  C
  C427     1.0000 0.75608  0.42411  0.13107  Biso   1.000  C
  C428     1.0000 0.57589  0.33196  0.13107  Biso   1.000  C
  C429     1.0000 0.66804  0.24392  0.13107  Biso   1.000  C
  C430     1.0000 0.42274  0.75745  0.46441  Biso   1.000  C
  C431     1.0000 0.24255  0.66530  0.46441  Biso   1.000  C
  C432     1.0000 0.33470  0.57726  0.46441  Biso   1.000  C
  C433     1.0000 0.90913  0.84276  0.21818  Biso   1.000  C
  C434     1.0000 0.15724  0.06637  0.21818  Biso   1.000  C
  C435     1.0000 0.93363  0.09087  0.21818  Biso   1.000  C
  C436     1.0000 0.57580  0.17609  0.55151  Biso   1.000  C
  C437     1.0000 0.82391  0.39970  0.55151  Biso   1.000  C
  C438     1.0000 0.60030  0.42420  0.55151  Biso   1.000  C
  C439     1.0000 0.24246  0.50943  0.88485  Biso   1.000  C
  C440     1.0000 0.49057  0.73304  0.88485  Biso   1.000  C
  C441     1.0000 0.26696  0.75754  0.88485  Biso   1.000  C
  C442     1.0000 0.09087  0.15724  0.78182  Biso   1.000  C
  C443     1.0000 0.84276  0.93363  0.78182  Biso   1.000  C
  C444     1.0000 0.06637  0.90913  0.78182  Biso   1.000  C
  C445     1.0000 0.75754  0.49057  0.11515  Biso   1.000  C
  C446     1.0000 0.50943  0.26696  0.11515  Biso   1.000  C
  C447     1.0000 0.73304  0.24246  0.11515  Biso   1.000  C
  C448     1.0000 0.42420  0.82391  0.44849  Biso   1.000  C
  C449     1.0000 0.17609  0.60030  0.44849  Biso   1.000  C
  C450     1.0000 0.39970  0.57580  0.44849  Biso   1.000  C
  H325     1.0000 0.96780  0.85400  0.22490  Biso   1.000  H
  H326     1.0000 0.14600  0.11380  0.22490  Biso   1.000  H
  H327     1.0000 0.88620  0.03220  0.22490  Biso   1.000  H
  H328     1.0000 0.63447  0.18733  0.55823  Biso   1.000  H
  H329     1.0000 0.81267  0.44713  0.55823  Biso   1.000  H
  H330     1.0000 0.55287  0.36553  0.55823  Biso   1.000  H
  H331     1.0000 0.30113  0.52067  0.89157  Biso   1.000  H
  H332     1.0000 0.47933  0.78047  0.89157  Biso   1.000  H
  H333     1.0000 0.21953  0.69887  0.89157  Biso   1.000  H
  H334     1.0000 0.03220  0.14600  0.77510  Biso   1.000  H
  H335     1.0000 0.85400  0.88620  0.77510  Biso   1.000  H
  H336     1.0000 0.11380  0.96780  0.77510  Biso   1.000  H
  H337     1.0000 0.69887  0.47933  0.10843  Biso   1.000  H
  H338     1.0000 0.52067  0.21953  0.10843  Biso   1.000  H
  H339     1.0000 0.78047  0.30113  0.10843  Biso   1.000  H
  H340     1.0000 0.36553  0.81267  0.44177  Biso   1.000  H
  H341     1.0000 0.18733  0.55287  0.44177  Biso   1.000  H
  H342     1.0000 0.44713  0.63447  0.44177  Biso   1.000  H
  C451     1.0000 0.82051  0.75999  0.22402  Biso   1.000  C
  C452     1.0000 0.24001  0.06052  0.22402  Biso   1.000  C
  C453     1.0000 0.93948  0.17949  0.22402  Biso   1.000  C
  C454     1.0000 0.48718  0.09332  0.55735  Biso   1.000  C
  C455     1.0000 0.90668  0.39385  0.55735  Biso   1.000  C
  C456     1.0000 0.60615  0.51282  0.55735  Biso   1.000  C
  C457     1.0000 0.15384  0.42666  0.89069  Biso   1.000  C
  C458     1.0000 0.57334  0.72719  0.89069  Biso   1.000  C
  C459     1.0000 0.27281  0.84616  0.89069  Biso   1.000  C
  C460     1.0000 0.17949  0.24001  0.77598  Biso   1.000  C
  C461     1.0000 0.75999  0.93948  0.77598  Biso   1.000  C
  C462     1.0000 0.06052  0.82051  0.77598  Biso   1.000  C
  C463     1.0000 0.84616  0.57334  0.10931  Biso   1.000  C
  C464     1.0000 0.42666  0.27281  0.10931  Biso   1.000  C
  C465     1.0000 0.72719  0.15384  0.10931  Biso   1.000  C
  C466     1.0000 0.51282  0.90668  0.44265  Biso   1.000  C
  C467     1.0000 0.09332  0.60615  0.44265  Biso   1.000  C
  C468     1.0000 0.39385  0.48718  0.44265  Biso   1.000  C
  H343     1.0000 0.82010  0.71620  0.23480  Biso   1.000  H
  H344     1.0000 0.28380  0.10390  0.23480  Biso   1.000  H
  H345     1.0000 0.89610  0.17990  0.23480  Biso   1.000  H
  H346     1.0000 0.48677  0.04953  0.56813  Biso   1.000  H
  H347     1.0000 0.95047  0.43723  0.56813  Biso   1.000  H
  H348     1.0000 0.56277  0.51323  0.56813  Biso   1.000  H
  H349     1.0000 0.15343  0.38287  0.90147  Biso   1.000  H
  H350     1.0000 0.61713  0.77057  0.90147  Biso   1.000  H
  H351     1.0000 0.22943  0.84657  0.90147  Biso   1.000  H
  H352     1.0000 0.17990  0.28380  0.76520  Biso   1.000  H
  H353     1.0000 0.71620  0.89610  0.76520  Biso   1.000  H
  H354     1.0000 0.10390  0.82010  0.76520  Biso   1.000  H
  H355     1.0000 0.84657  0.61713  0.09853  Biso   1.000  H
  H356     1.0000 0.38287  0.22943  0.09853  Biso   1.000  H
  H357     1.0000 0.77057  0.15343  0.09853  Biso   1.000  H
  H358     1.0000 0.51323  0.95047  0.43187  Biso   1.000  H
  H359     1.0000 0.04953  0.56277  0.43187  Biso   1.000  H
  H360     1.0000 0.43723  0.48677  0.43187  Biso   1.000  H
