data_image0
_cell_length_a       15.378
_cell_length_b       19.56
_cell_length_c       39.822
_cell_angle_alpha    90
_cell_angle_beta     90
_cell_angle_gamma    90

_symmetry_space_group_name_H-M    "P 1"
_symmetry_int_tables_number       1

loop_
  _symmetry_equiv_pos_as_xyz
  'x, y, z'

loop_
  _atom_site_label
  _atom_site_occupancy
  _atom_site_fract_x
  _atom_site_fract_y
  _atom_site_fract_z
  _atom_site_thermal_displace_type
  _atom_site_B_iso_or_equiv
  _atom_site_type_symbol
  C1       1.0000 0.40190  0.15900  0.16602  Biso   1.000  C
  C2       1.0000 0.09810  0.84100  0.66602  Biso   1.000  C
  C3       1.0000 0.59810  0.65900  0.33398  Biso   1.000  C
  C4       1.0000 0.90190  0.34100  0.83398  Biso   1.000  C
  C5       1.0000 0.90190  0.65900  0.66602  Biso   1.000  C
  C6       1.0000 0.59810  0.34100  0.16602  Biso   1.000  C
  C7       1.0000 0.09810  0.15900  0.83398  Biso   1.000  C
  C8       1.0000 0.40190  0.84100  0.33398  Biso   1.000  C
  C9       1.0000 0.59810  0.84100  0.83398  Biso   1.000  C
  C10      1.0000 0.90190  0.15900  0.33398  Biso   1.000  C
  C11      1.0000 0.40190  0.34100  0.66602  Biso   1.000  C
  C12      1.0000 0.09810  0.65900  0.16602  Biso   1.000  C
  C13      1.0000 0.09810  0.34100  0.33398  Biso   1.000  C
  C14      1.0000 0.40190  0.65900  0.83398  Biso   1.000  C
  C15      1.0000 0.90190  0.84100  0.16602  Biso   1.000  C
  C16      1.0000 0.59810  0.15900  0.66602  Biso   1.000  C
  C17      1.0000 0.36170  0.09070  0.16368  Biso   1.000  C
  C18      1.0000 0.13830  0.90930  0.66368  Biso   1.000  C
  C19      1.0000 0.63830  0.59070  0.33632  Biso   1.000  C
  C20      1.0000 0.86170  0.40930  0.83632  Biso   1.000  C
  C21      1.0000 0.86170  0.59070  0.66368  Biso   1.000  C
  C22      1.0000 0.63830  0.40930  0.16368  Biso   1.000  C
  C23      1.0000 0.13830  0.09070  0.83632  Biso   1.000  C
  C24      1.0000 0.36170  0.90930  0.33632  Biso   1.000  C
  C25      1.0000 0.63830  0.90930  0.83632  Biso   1.000  C
  C26      1.0000 0.86170  0.09070  0.33632  Biso   1.000  C
  C27      1.0000 0.36170  0.40930  0.66368  Biso   1.000  C
  C28      1.0000 0.13830  0.59070  0.16368  Biso   1.000  C
  C29      1.0000 0.13830  0.40930  0.33632  Biso   1.000  C
  C30      1.0000 0.36170  0.59070  0.83632  Biso   1.000  C
  C31      1.0000 0.86170  0.90930  0.16368  Biso   1.000  C
  C32      1.0000 0.63830  0.09070  0.66368  Biso   1.000  C
  C33      1.0000 0.27270  0.08680  0.16065  Biso   1.000  C
  C34      1.0000 0.22730  0.91320  0.66065  Biso   1.000  C
  C35      1.0000 0.72730  0.58680  0.33935  Biso   1.000  C
  C36      1.0000 0.77270  0.41320  0.83935  Biso   1.000  C
  C37      1.0000 0.77270  0.58680  0.66065  Biso   1.000  C
  C38      1.0000 0.72730  0.41320  0.16065  Biso   1.000  C
  C39      1.0000 0.22730  0.08680  0.83935  Biso   1.000  C
  C40      1.0000 0.27270  0.91320  0.33935  Biso   1.000  C
  C41      1.0000 0.72730  0.91320  0.83935  Biso   1.000  C
  C42      1.0000 0.77270  0.08680  0.33935  Biso   1.000  C
  C43      1.0000 0.27270  0.41320  0.66065  Biso   1.000  C
  C44      1.0000 0.22730  0.58680  0.16065  Biso   1.000  C
  C45      1.0000 0.22730  0.41320  0.33935  Biso   1.000  C
  C46      1.0000 0.27270  0.58680  0.83935  Biso   1.000  C
  C47      1.0000 0.77270  0.91320  0.16065  Biso   1.000  C
  C48      1.0000 0.72730  0.08680  0.66065  Biso   1.000  C
  H1       1.0000 0.24000  0.12650  0.15820  Biso   1.000  H
  H2       1.0000 0.26000  0.87350  0.65820  Biso   1.000  H
  H3       1.0000 0.76000  0.62650  0.34180  Biso   1.000  H
  H4       1.0000 0.74000  0.37350  0.84180  Biso   1.000  H
  H5       1.0000 0.74000  0.62650  0.65820  Biso   1.000  H
  H6       1.0000 0.76000  0.37350  0.15820  Biso   1.000  H
  H7       1.0000 0.26000  0.12650  0.84180  Biso   1.000  H
  H8       1.0000 0.24000  0.87350  0.34180  Biso   1.000  H
  H9       1.0000 0.76000  0.87350  0.84180  Biso   1.000  H
  H10      1.0000 0.74000  0.12650  0.34180  Biso   1.000  H
  H11      1.0000 0.24000  0.37350  0.65820  Biso   1.000  H
  H12      1.0000 0.26000  0.62650  0.15820  Biso   1.000  H
  H13      1.0000 0.26000  0.37350  0.34180  Biso   1.000  H
  H14      1.0000 0.24000  0.62650  0.84180  Biso   1.000  H
  H15      1.0000 0.74000  0.87350  0.15820  Biso   1.000  H
  H16      1.0000 0.76000  0.12650  0.65820  Biso   1.000  H
  C49      1.0000 0.23160  0.02340  0.16122  Biso   1.000  C
  C50      1.0000 0.26840  0.97660  0.66122  Biso   1.000  C
  C51      1.0000 0.76840  0.52340  0.33878  Biso   1.000  C
  C52      1.0000 0.73160  0.47660  0.83878  Biso   1.000  C
  C53      1.0000 0.73160  0.52340  0.66122  Biso   1.000  C
  C54      1.0000 0.76840  0.47660  0.16122  Biso   1.000  C
  C55      1.0000 0.26840  0.02340  0.83878  Biso   1.000  C
  C56      1.0000 0.23160  0.97660  0.33878  Biso   1.000  C
  C57      1.0000 0.76840  0.97660  0.83878  Biso   1.000  C
  C58      1.0000 0.73160  0.02340  0.33878  Biso   1.000  C
  C59      1.0000 0.23160  0.47660  0.66122  Biso   1.000  C
  C60      1.0000 0.26840  0.52340  0.16122  Biso   1.000  C
  C61      1.0000 0.26840  0.47660  0.33878  Biso   1.000  C
  C62      1.0000 0.23160  0.52340  0.83878  Biso   1.000  C
  C63      1.0000 0.73160  0.97660  0.16122  Biso   1.000  C
  C64      1.0000 0.76840  0.02340  0.66122  Biso   1.000  C
  H17      1.0000 0.17140  0.02040  0.15930  Biso   1.000  H
  H18      1.0000 0.32860  0.97960  0.65930  Biso   1.000  H
  H19      1.0000 0.82860  0.52040  0.34070  Biso   1.000  H
  H20      1.0000 0.67140  0.47960  0.84070  Biso   1.000  H
  H21      1.0000 0.67140  0.52040  0.65930  Biso   1.000  H
  H22      1.0000 0.82860  0.47960  0.15930  Biso   1.000  H
  H23      1.0000 0.32860  0.02040  0.84070  Biso   1.000  H
  H24      1.0000 0.17140  0.97960  0.34070  Biso   1.000  H
  H25      1.0000 0.82860  0.97960  0.84070  Biso   1.000  H
  H26      1.0000 0.67140  0.02040  0.34070  Biso   1.000  H
  H27      1.0000 0.17140  0.47960  0.65930  Biso   1.000  H
  H28      1.0000 0.32860  0.52040  0.15930  Biso   1.000  H
  H29      1.0000 0.32860  0.47960  0.34070  Biso   1.000  H
  H30      1.0000 0.17140  0.52040  0.84070  Biso   1.000  H
  H31      1.0000 0.67140  0.97960  0.15930  Biso   1.000  H
  H32      1.0000 0.82860  0.02040  0.65930  Biso   1.000  H
  C65      1.0000 0.28090  0.96540  0.16464  Biso   1.000  C
  C66      1.0000 0.21910  0.03460  0.66464  Biso   1.000  C
  C67      1.0000 0.71910  0.46540  0.33536  Biso   1.000  C
  C68      1.0000 0.78090  0.53460  0.83536  Biso   1.000  C
  C69      1.0000 0.78090  0.46540  0.66464  Biso   1.000  C
  C70      1.0000 0.71910  0.53460  0.16464  Biso   1.000  C
  C71      1.0000 0.21910  0.96540  0.83536  Biso   1.000  C
  C72      1.0000 0.28090  0.03460  0.33536  Biso   1.000  C
  C73      1.0000 0.71910  0.03460  0.83536  Biso   1.000  C
  C74      1.0000 0.78090  0.96540  0.33536  Biso   1.000  C
  C75      1.0000 0.28090  0.53460  0.66464  Biso   1.000  C
  C76      1.0000 0.21910  0.46540  0.16464  Biso   1.000  C
  C77      1.0000 0.21910  0.53460  0.33536  Biso   1.000  C
  C78      1.0000 0.28090  0.46540  0.83536  Biso   1.000  C
  C79      1.0000 0.78090  0.03460  0.16464  Biso   1.000  C
  C80      1.0000 0.71910  0.96540  0.66464  Biso   1.000  C
  C81      1.0000 0.36960  0.96800  0.16600  Biso   1.000  C
  C82      1.0000 0.13040  0.03200  0.66600  Biso   1.000  C
  C83      1.0000 0.63040  0.46800  0.33400  Biso   1.000  C
  C84      1.0000 0.86960  0.53200  0.83400  Biso   1.000  C
  C85      1.0000 0.86960  0.46800  0.66600  Biso   1.000  C
  C86      1.0000 0.63040  0.53200  0.16600  Biso   1.000  C
  C87      1.0000 0.13040  0.96800  0.83400  Biso   1.000  C
  C88      1.0000 0.36960  0.03200  0.33400  Biso   1.000  C
  C89      1.0000 0.63040  0.03200  0.83400  Biso   1.000  C
  C90      1.0000 0.86960  0.96800  0.33400  Biso   1.000  C
  C91      1.0000 0.36960  0.53200  0.66600  Biso   1.000  C
  C92      1.0000 0.13040  0.46800  0.16600  Biso   1.000  C
  C93      1.0000 0.13040  0.53200  0.33400  Biso   1.000  C
  C94      1.0000 0.36960  0.46800  0.83400  Biso   1.000  C
  C95      1.0000 0.86960  0.03200  0.16600  Biso   1.000  C
  C96      1.0000 0.63040  0.96800  0.66600  Biso   1.000  C
  H33      1.0000 0.40170  0.92780  0.16720  Biso   1.000  H
  H34      1.0000 0.09830  0.07220  0.66720  Biso   1.000  H
  H35      1.0000 0.59830  0.42780  0.33280  Biso   1.000  H
  H36      1.0000 0.90170  0.57220  0.83280  Biso   1.000  H
  H37      1.0000 0.90170  0.42780  0.66720  Biso   1.000  H
  H38      1.0000 0.59830  0.57220  0.16720  Biso   1.000  H
  H39      1.0000 0.09830  0.92780  0.83280  Biso   1.000  H
  H40      1.0000 0.40170  0.07220  0.33280  Biso   1.000  H
  H41      1.0000 0.59830  0.07220  0.83280  Biso   1.000  H
  H42      1.0000 0.90170  0.92780  0.33280  Biso   1.000  H
  H43      1.0000 0.40170  0.57220  0.66720  Biso   1.000  H
  H44      1.0000 0.09830  0.42780  0.16720  Biso   1.000  H
  H45      1.0000 0.09830  0.57220  0.33280  Biso   1.000  H
  H46      1.0000 0.40170  0.42780  0.83280  Biso   1.000  H
  H47      1.0000 0.90170  0.07220  0.16720  Biso   1.000  H
  H48      1.0000 0.59830  0.92780  0.66720  Biso   1.000  H
  C97      1.0000 0.41020  0.02900  0.16561  Biso   1.000  C
  C98      1.0000 0.08980  0.97100  0.66561  Biso   1.000  C
  C99      1.0000 0.58980  0.52900  0.33439  Biso   1.000  C
  C100     1.0000 0.91020  0.47100  0.83439  Biso   1.000  C
  C101     1.0000 0.91020  0.52900  0.66561  Biso   1.000  C
  C102     1.0000 0.58980  0.47100  0.16561  Biso   1.000  C
  C103     1.0000 0.08980  0.02900  0.83439  Biso   1.000  C
  C104     1.0000 0.41020  0.97100  0.33439  Biso   1.000  C
  C105     1.0000 0.58980  0.97100  0.83439  Biso   1.000  C
  C106     1.0000 0.91020  0.02900  0.33439  Biso   1.000  C
  C107     1.0000 0.41020  0.47100  0.66561  Biso   1.000  C
  C108     1.0000 0.08980  0.52900  0.16561  Biso   1.000  C
  C109     1.0000 0.08980  0.47100  0.33439  Biso   1.000  C
  C110     1.0000 0.41020  0.52900  0.83439  Biso   1.000  C
  C111     1.0000 0.91020  0.97100  0.16561  Biso   1.000  C
  C112     1.0000 0.58980  0.02900  0.66561  Biso   1.000  C
  H49      1.0000 0.47060  0.03080  0.16660  Biso   1.000  H
  H50      1.0000 0.02940  0.96920  0.66660  Biso   1.000  H
  H51      1.0000 0.52940  0.53080  0.33340  Biso   1.000  H
  H52      1.0000 0.97060  0.46920  0.83340  Biso   1.000  H
  H53      1.0000 0.97060  0.53080  0.66660  Biso   1.000  H
  H54      1.0000 0.52940  0.46920  0.16660  Biso   1.000  H
  H55      1.0000 0.02940  0.03080  0.83340  Biso   1.000  H
  H56      1.0000 0.47060  0.96920  0.33340  Biso   1.000  H
  H57      1.0000 0.52940  0.96920  0.83340  Biso   1.000  H
  H58      1.0000 0.97060  0.03080  0.33340  Biso   1.000  H
  H59      1.0000 0.47060  0.46920  0.66660  Biso   1.000  H
  H60      1.0000 0.02940  0.53080  0.16660  Biso   1.000  H
  H61      1.0000 0.02940  0.46920  0.33340  Biso   1.000  H
  H62      1.0000 0.47060  0.53080  0.83340  Biso   1.000  H
  H63      1.0000 0.97060  0.96920  0.16660  Biso   1.000  H
  H64      1.0000 0.52940  0.03080  0.66660  Biso   1.000  H
  C113     1.0000 0.23040  0.89720  0.16820  Biso   1.000  C
  C114     1.0000 0.26960  0.10280  0.66820  Biso   1.000  C
  C115     1.0000 0.76960  0.39720  0.33180  Biso   1.000  C
  C116     1.0000 0.73040  0.60280  0.83180  Biso   1.000  C
  C117     1.0000 0.73040  0.39720  0.66820  Biso   1.000  C
  C118     1.0000 0.76960  0.60280  0.16820  Biso   1.000  C
  C119     1.0000 0.26960  0.89720  0.83180  Biso   1.000  C
  C120     1.0000 0.23040  0.10280  0.33180  Biso   1.000  C
  C121     1.0000 0.76960  0.10280  0.83180  Biso   1.000  C
  C122     1.0000 0.73040  0.89720  0.33180  Biso   1.000  C
  C123     1.0000 0.23040  0.60280  0.66820  Biso   1.000  C
  C124     1.0000 0.26960  0.39720  0.16820  Biso   1.000  C
  C125     1.0000 0.26960  0.60280  0.33180  Biso   1.000  C
  C126     1.0000 0.23040  0.39720  0.83180  Biso   1.000  C
  C127     1.0000 0.73040  0.10280  0.16820  Biso   1.000  C
  C128     1.0000 0.76960  0.89720  0.66820  Biso   1.000  C
  C129     1.0000 0.44190  0.35850  0.23785  Biso   1.000  C
  C130     1.0000 0.05810  0.64150  0.73785  Biso   1.000  C
  C131     1.0000 0.55810  0.85850  0.26215  Biso   1.000  C
  C132     1.0000 0.94190  0.14150  0.76215  Biso   1.000  C
  C133     1.0000 0.94190  0.85850  0.73785  Biso   1.000  C
  C134     1.0000 0.55810  0.14150  0.23785  Biso   1.000  C
  C135     1.0000 0.05810  0.35850  0.76215  Biso   1.000  C
  C136     1.0000 0.44190  0.64150  0.26215  Biso   1.000  C
  C137     1.0000 0.55810  0.64150  0.76215  Biso   1.000  C
  C138     1.0000 0.94190  0.35850  0.26215  Biso   1.000  C
  C139     1.0000 0.44190  0.14150  0.73785  Biso   1.000  C
  C140     1.0000 0.05810  0.85850  0.23785  Biso   1.000  C
  C141     1.0000 0.05810  0.14150  0.26215  Biso   1.000  C
  C142     1.0000 0.44190  0.85850  0.76215  Biso   1.000  C
  C143     1.0000 0.94190  0.64150  0.23785  Biso   1.000  C
  C144     1.0000 0.55810  0.35850  0.73785  Biso   1.000  C
  H65      1.0000 0.46670  0.39330  0.22510  Biso   1.000  H
  H66      1.0000 0.03330  0.60670  0.72510  Biso   1.000  H
  H67      1.0000 0.53330  0.89330  0.27490  Biso   1.000  H
  H68      1.0000 0.96670  0.10670  0.77490  Biso   1.000  H
  H69      1.0000 0.96670  0.89330  0.72510  Biso   1.000  H
  H70      1.0000 0.53330  0.10670  0.22510  Biso   1.000  H
  H71      1.0000 0.03330  0.39330  0.77490  Biso   1.000  H
  H72      1.0000 0.46670  0.60670  0.27490  Biso   1.000  H
  H73      1.0000 0.53330  0.60670  0.77490  Biso   1.000  H
  H74      1.0000 0.96670  0.39330  0.27490  Biso   1.000  H
  H75      1.0000 0.46670  0.10670  0.72510  Biso   1.000  H
  H76      1.0000 0.03330  0.89330  0.22510  Biso   1.000  H
  H77      1.0000 0.03330  0.10670  0.27490  Biso   1.000  H
  H78      1.0000 0.46670  0.89330  0.77490  Biso   1.000  H
  H79      1.0000 0.96670  0.60670  0.22510  Biso   1.000  H
  H80      1.0000 0.53330  0.39330  0.72510  Biso   1.000  H
  C145     1.0000 0.44850  0.36310  0.27231  Biso   1.000  C
  C146     1.0000 0.05150  0.63690  0.77231  Biso   1.000  C
  C147     1.0000 0.55150  0.86310  0.22769  Biso   1.000  C
  C148     1.0000 0.94850  0.13690  0.72769  Biso   1.000  C
  C149     1.0000 0.94850  0.86310  0.77231  Biso   1.000  C
  C150     1.0000 0.55150  0.13690  0.27231  Biso   1.000  C
  C151     1.0000 0.05150  0.36310  0.72769  Biso   1.000  C
  C152     1.0000 0.44850  0.63690  0.22769  Biso   1.000  C
  C153     1.0000 0.55150  0.63690  0.72769  Biso   1.000  C
  C154     1.0000 0.94850  0.36310  0.22769  Biso   1.000  C
  C155     1.0000 0.44850  0.13690  0.77231  Biso   1.000  C
  C156     1.0000 0.05150  0.86310  0.27231  Biso   1.000  C
  C157     1.0000 0.05150  0.13690  0.22769  Biso   1.000  C
  C158     1.0000 0.44850  0.86310  0.72769  Biso   1.000  C
  C159     1.0000 0.94850  0.63690  0.27231  Biso   1.000  C
  C160     1.0000 0.55150  0.36310  0.77231  Biso   1.000  C
  H81      1.0000 0.47800  0.39940  0.28220  Biso   1.000  H
  H82      1.0000 0.02200  0.60060  0.78220  Biso   1.000  H
  H83      1.0000 0.52200  0.89940  0.21780  Biso   1.000  H
  H84      1.0000 0.97800  0.10060  0.71780  Biso   1.000  H
  H85      1.0000 0.97800  0.89940  0.78220  Biso   1.000  H
  H86      1.0000 0.52200  0.10060  0.28220  Biso   1.000  H
  H87      1.0000 0.02200  0.39940  0.71780  Biso   1.000  H
  H88      1.0000 0.47800  0.60060  0.21780  Biso   1.000  H
  H89      1.0000 0.52200  0.60060  0.71780  Biso   1.000  H
  H90      1.0000 0.97800  0.39940  0.21780  Biso   1.000  H
  H91      1.0000 0.47800  0.10060  0.78220  Biso   1.000  H
  H92      1.0000 0.02200  0.89940  0.28220  Biso   1.000  H
  H93      1.0000 0.02200  0.10060  0.21780  Biso   1.000  H
  H94      1.0000 0.47800  0.89940  0.71780  Biso   1.000  H
  H95      1.0000 0.97800  0.60060  0.28220  Biso   1.000  H
  H96      1.0000 0.52200  0.39940  0.78220  Biso   1.000  H
  C161     1.0000 0.41080  0.31300  0.29182  Biso   1.000  C
  C162     1.0000 0.08920  0.68700  0.79182  Biso   1.000  C
  C163     1.0000 0.58920  0.81300  0.20818  Biso   1.000  C
  C164     1.0000 0.91080  0.18700  0.70818  Biso   1.000  C
  C165     1.0000 0.91080  0.81300  0.79182  Biso   1.000  C
  C166     1.0000 0.58920  0.18700  0.29182  Biso   1.000  C
  C167     1.0000 0.08920  0.31300  0.70818  Biso   1.000  C
  C168     1.0000 0.41080  0.68700  0.20818  Biso   1.000  C
  C169     1.0000 0.58920  0.68700  0.70818  Biso   1.000  C
  C170     1.0000 0.91080  0.31300  0.20818  Biso   1.000  C
  C171     1.0000 0.41080  0.18700  0.79182  Biso   1.000  C
  C172     1.0000 0.08920  0.81300  0.29182  Biso   1.000  C
  C173     1.0000 0.08920  0.18700  0.20818  Biso   1.000  C
  C174     1.0000 0.41080  0.81300  0.70818  Biso   1.000  C
  C175     1.0000 0.91080  0.68700  0.29182  Biso   1.000  C
  C176     1.0000 0.58920  0.31300  0.79182  Biso   1.000  C
  C177     1.0000 0.36770  0.26020  0.27540  Biso   1.000  C
  C178     1.0000 0.13230  0.73980  0.77540  Biso   1.000  C
  C179     1.0000 0.63230  0.76020  0.22460  Biso   1.000  C
  C180     1.0000 0.86770  0.23980  0.72460  Biso   1.000  C
  C181     1.0000 0.86770  0.76020  0.77540  Biso   1.000  C
  C182     1.0000 0.63230  0.23980  0.27540  Biso   1.000  C
  C183     1.0000 0.13230  0.26020  0.72460  Biso   1.000  C
  C184     1.0000 0.36770  0.73980  0.22460  Biso   1.000  C
  C185     1.0000 0.63230  0.73980  0.72460  Biso   1.000  C
  C186     1.0000 0.86770  0.26020  0.22460  Biso   1.000  C
  C187     1.0000 0.36770  0.23980  0.77540  Biso   1.000  C
  C188     1.0000 0.13230  0.76020  0.27540  Biso   1.000  C
  C189     1.0000 0.13230  0.23980  0.22460  Biso   1.000  C
  C190     1.0000 0.36770  0.76020  0.72460  Biso   1.000  C
  C191     1.0000 0.86770  0.73980  0.27540  Biso   1.000  C
  C192     1.0000 0.63230  0.26020  0.77540  Biso   1.000  C
  H97      1.0000 0.34110  0.22540  0.28750  Biso   1.000  H
  H98      1.0000 0.15890  0.77460  0.78750  Biso   1.000  H
  H99      1.0000 0.65890  0.72540  0.21250  Biso   1.000  H
  H100     1.0000 0.84110  0.27460  0.71250  Biso   1.000  H
  H101     1.0000 0.84110  0.72540  0.78750  Biso   1.000  H
  H102     1.0000 0.65890  0.27460  0.28750  Biso   1.000  H
  H103     1.0000 0.15890  0.22540  0.71250  Biso   1.000  H
  H104     1.0000 0.34110  0.77460  0.21250  Biso   1.000  H
  H105     1.0000 0.65890  0.77460  0.71250  Biso   1.000  H
  H106     1.0000 0.84110  0.22540  0.21250  Biso   1.000  H
  H107     1.0000 0.34110  0.27460  0.78750  Biso   1.000  H
  H108     1.0000 0.15890  0.72540  0.28750  Biso   1.000  H
  H109     1.0000 0.15890  0.27460  0.21250  Biso   1.000  H
  H110     1.0000 0.34110  0.72540  0.71250  Biso   1.000  H
  H111     1.0000 0.84110  0.77460  0.28750  Biso   1.000  H
  H112     1.0000 0.65890  0.22540  0.78750  Biso   1.000  H
  C193     1.0000 0.36550  0.26060  0.24129  Biso   1.000  C
  C194     1.0000 0.13450  0.73940  0.74129  Biso   1.000  C
  C195     1.0000 0.63450  0.76060  0.25871  Biso   1.000  C
  C196     1.0000 0.86550  0.23940  0.75871  Biso   1.000  C
  C197     1.0000 0.86550  0.76060  0.74129  Biso   1.000  C
  C198     1.0000 0.63450  0.23940  0.24129  Biso   1.000  C
  C199     1.0000 0.13450  0.26060  0.75871  Biso   1.000  C
  C200     1.0000 0.36550  0.73940  0.25871  Biso   1.000  C
  C201     1.0000 0.63450  0.73940  0.75871  Biso   1.000  C
  C202     1.0000 0.86550  0.26060  0.25871  Biso   1.000  C
  C203     1.0000 0.36550  0.23940  0.74129  Biso   1.000  C
  C204     1.0000 0.13450  0.76060  0.24129  Biso   1.000  C
  C205     1.0000 0.13450  0.23940  0.25871  Biso   1.000  C
  C206     1.0000 0.36550  0.76060  0.75871  Biso   1.000  C
  C207     1.0000 0.86550  0.73940  0.24129  Biso   1.000  C
  C208     1.0000 0.63450  0.26060  0.74129  Biso   1.000  C
  H113     1.0000 0.33570  0.22530  0.23070  Biso   1.000  H
  H114     1.0000 0.16430  0.77470  0.73070  Biso   1.000  H
  H115     1.0000 0.66430  0.72530  0.26930  Biso   1.000  H
  H116     1.0000 0.83570  0.27470  0.76930  Biso   1.000  H
  H117     1.0000 0.83570  0.72530  0.73070  Biso   1.000  H
  H118     1.0000 0.66430  0.27470  0.23070  Biso   1.000  H
  H119     1.0000 0.16430  0.22530  0.76930  Biso   1.000  H
  H120     1.0000 0.33570  0.77470  0.26930  Biso   1.000  H
  H121     1.0000 0.66430  0.77470  0.76930  Biso   1.000  H
  H122     1.0000 0.83570  0.22530  0.26930  Biso   1.000  H
  H123     1.0000 0.33570  0.27470  0.73070  Biso   1.000  H
  H124     1.0000 0.16430  0.72530  0.23070  Biso   1.000  H
  H125     1.0000 0.16430  0.27470  0.26930  Biso   1.000  H
  H126     1.0000 0.33570  0.72530  0.76930  Biso   1.000  H
  H127     1.0000 0.83570  0.77470  0.23070  Biso   1.000  H
  H128     1.0000 0.66430  0.22530  0.73070  Biso   1.000  H
  C209     1.0000 0.42020  0.32210  0.32956  Biso   1.000  C
  C210     1.0000 0.07980  0.67790  0.82956  Biso   1.000  C
  C211     1.0000 0.57980  0.82210  0.17044  Biso   1.000  C
  C212     1.0000 0.92020  0.17790  0.67044  Biso   1.000  C
  C213     1.0000 0.92020  0.82210  0.82956  Biso   1.000  C
  C214     1.0000 0.57980  0.17790  0.32956  Biso   1.000  C
  C215     1.0000 0.07980  0.32210  0.67044  Biso   1.000  C
  C216     1.0000 0.42020  0.67790  0.17044  Biso   1.000  C
  C217     1.0000 0.57980  0.67790  0.67044  Biso   1.000  C
  C218     1.0000 0.92020  0.32210  0.17044  Biso   1.000  C
  C219     1.0000 0.42020  0.17790  0.82956  Biso   1.000  C
  C220     1.0000 0.07980  0.82210  0.32956  Biso   1.000  C
  C221     1.0000 0.07980  0.17790  0.17044  Biso   1.000  C
  C222     1.0000 0.42020  0.82210  0.67044  Biso   1.000  C
  C223     1.0000 0.92020  0.67790  0.32956  Biso   1.000  C
  C224     1.0000 0.57980  0.32210  0.82956  Biso   1.000  C
  C225     1.0000 0.38230  0.26710  0.38323  Biso   1.000  C
  C226     1.0000 0.11770  0.73290  0.88323  Biso   1.000  C
  C227     1.0000 0.61770  0.76710  0.11677  Biso   1.000  C
  C228     1.0000 0.88230  0.23290  0.61677  Biso   1.000  C
  C229     1.0000 0.88230  0.76710  0.88323  Biso   1.000  C
  C230     1.0000 0.61770  0.23290  0.38323  Biso   1.000  C
  C231     1.0000 0.11770  0.26710  0.61677  Biso   1.000  C
  C232     1.0000 0.38230  0.73290  0.11677  Biso   1.000  C
  C233     1.0000 0.61770  0.73290  0.61677  Biso   1.000  C
  C234     1.0000 0.88230  0.26710  0.11677  Biso   1.000  C
  C235     1.0000 0.38230  0.23290  0.88323  Biso   1.000  C
  C236     1.0000 0.11770  0.76710  0.38323  Biso   1.000  C
  C237     1.0000 0.11770  0.23290  0.11677  Biso   1.000  C
  C238     1.0000 0.38230  0.76710  0.61677  Biso   1.000  C
  C239     1.0000 0.88230  0.73290  0.38323  Biso   1.000  C
  C240     1.0000 0.61770  0.26710  0.88323  Biso   1.000  C
  C241     1.0000 0.39320  0.32150  0.40437  Biso   1.000  C
  C242     1.0000 0.10680  0.67850  0.90437  Biso   1.000  C
  C243     1.0000 0.60680  0.82150  0.09563  Biso   1.000  C
  C244     1.0000 0.89320  0.17850  0.59563  Biso   1.000  C
  C245     1.0000 0.89320  0.82150  0.90437  Biso   1.000  C
  C246     1.0000 0.60680  0.17850  0.40437  Biso   1.000  C
  C247     1.0000 0.10680  0.32150  0.59563  Biso   1.000  C
  C248     1.0000 0.39320  0.67850  0.09563  Biso   1.000  C
  C249     1.0000 0.60680  0.67850  0.59563  Biso   1.000  C
  C250     1.0000 0.89320  0.32150  0.09563  Biso   1.000  C
  C251     1.0000 0.39320  0.17850  0.90437  Biso   1.000  C
  C252     1.0000 0.10680  0.82150  0.40437  Biso   1.000  C
  C253     1.0000 0.10680  0.17850  0.09563  Biso   1.000  C
  C254     1.0000 0.39320  0.82150  0.59563  Biso   1.000  C
  C255     1.0000 0.89320  0.67850  0.40437  Biso   1.000  C
  C256     1.0000 0.60680  0.32150  0.90437  Biso   1.000  C
  H129     1.0000 0.40250  0.36480  0.39540  Biso   1.000  H
  H130     1.0000 0.09750  0.63520  0.89540  Biso   1.000  H
  H131     1.0000 0.59750  0.86480  0.10460  Biso   1.000  H
  H132     1.0000 0.90250  0.13520  0.60460  Biso   1.000  H
  H133     1.0000 0.90250  0.86480  0.89540  Biso   1.000  H
  H134     1.0000 0.59750  0.13520  0.39540  Biso   1.000  H
  H135     1.0000 0.09750  0.36480  0.60460  Biso   1.000  H
  H136     1.0000 0.40250  0.63520  0.10460  Biso   1.000  H
  H137     1.0000 0.59750  0.63520  0.60460  Biso   1.000  H
  H138     1.0000 0.90250  0.36480  0.10460  Biso   1.000  H
  H139     1.0000 0.40250  0.13520  0.89540  Biso   1.000  H
  H140     1.0000 0.09750  0.86480  0.39540  Biso   1.000  H
  H141     1.0000 0.09750  0.13520  0.10460  Biso   1.000  H
  H142     1.0000 0.40250  0.86480  0.60460  Biso   1.000  H
  H143     1.0000 0.90250  0.63520  0.39540  Biso   1.000  H
  H144     1.0000 0.59750  0.36480  0.89540  Biso   1.000  H
  C257     1.0000 0.39080  0.31340  0.43790  Biso   1.000  C
  C258     1.0000 0.10920  0.68660  0.93790  Biso   1.000  C
  C259     1.0000 0.60920  0.81340  0.06210  Biso   1.000  C
  C260     1.0000 0.89080  0.18660  0.56210  Biso   1.000  C
  C261     1.0000 0.89080  0.81340  0.93790  Biso   1.000  C
  C262     1.0000 0.60920  0.18660  0.43790  Biso   1.000  C
  C263     1.0000 0.10920  0.31340  0.56210  Biso   1.000  C
  C264     1.0000 0.39080  0.68660  0.06210  Biso   1.000  C
  C265     1.0000 0.60920  0.68660  0.56210  Biso   1.000  C
  C266     1.0000 0.89080  0.31340  0.06210  Biso   1.000  C
  C267     1.0000 0.39080  0.18660  0.93790  Biso   1.000  C
  C268     1.0000 0.10920  0.81340  0.43790  Biso   1.000  C
  C269     1.0000 0.10920  0.18660  0.06210  Biso   1.000  C
  C270     1.0000 0.39080  0.81340  0.56210  Biso   1.000  C
  C271     1.0000 0.89080  0.68660  0.43790  Biso   1.000  C
  C272     1.0000 0.60920  0.31340  0.93790  Biso   1.000  C
  H145     1.0000 0.39800  0.35120  0.45180  Biso   1.000  H
  H146     1.0000 0.10200  0.64880  0.95180  Biso   1.000  H
  H147     1.0000 0.60200  0.85120  0.04820  Biso   1.000  H
  H148     1.0000 0.89800  0.14880  0.54820  Biso   1.000  H
  H149     1.0000 0.89800  0.85120  0.95180  Biso   1.000  H
  H150     1.0000 0.60200  0.14880  0.45180  Biso   1.000  H
  H151     1.0000 0.10200  0.35120  0.54820  Biso   1.000  H
  H152     1.0000 0.39800  0.64880  0.04820  Biso   1.000  H
  H153     1.0000 0.60200  0.64880  0.54820  Biso   1.000  H
  H154     1.0000 0.89800  0.35120  0.04820  Biso   1.000  H
  H155     1.0000 0.39800  0.14880  0.95180  Biso   1.000  H
  H156     1.0000 0.10200  0.85120  0.45180  Biso   1.000  H
  H157     1.0000 0.10200  0.14880  0.04820  Biso   1.000  H
  H158     1.0000 0.39800  0.85120  0.54820  Biso   1.000  H
  H159     1.0000 0.89800  0.64880  0.45180  Biso   1.000  H
  H160     1.0000 0.60200  0.35120  0.95180  Biso   1.000  H
  C273     1.0000 0.37760  0.24920  0.45212  Biso   1.000  C
  C274     1.0000 0.12240  0.75080  0.95212  Biso   1.000  C
  C275     1.0000 0.62240  0.74920  0.04788  Biso   1.000  C
  C276     1.0000 0.87760  0.25080  0.54788  Biso   1.000  C
  C277     1.0000 0.87760  0.74920  0.95212  Biso   1.000  C
  C278     1.0000 0.62240  0.25080  0.45212  Biso   1.000  C
  C279     1.0000 0.12240  0.24920  0.54788  Biso   1.000  C
  C280     1.0000 0.37760  0.75080  0.04788  Biso   1.000  C
  C281     1.0000 0.62240  0.75080  0.54788  Biso   1.000  C
  C282     1.0000 0.87760  0.24920  0.04788  Biso   1.000  C
  C283     1.0000 0.37760  0.25080  0.95212  Biso   1.000  C
  C284     1.0000 0.12240  0.74920  0.45212  Biso   1.000  C
  C285     1.0000 0.12240  0.25080  0.04788  Biso   1.000  C
  C286     1.0000 0.37760  0.74920  0.54788  Biso   1.000  C
  C287     1.0000 0.87760  0.75080  0.45212  Biso   1.000  C
  C288     1.0000 0.62240  0.24920  0.95212  Biso   1.000  C
  C289     1.0000 0.36380  0.19490  0.43090  Biso   1.000  C
  C290     1.0000 0.13620  0.80510  0.93090  Biso   1.000  C
  C291     1.0000 0.63620  0.69490  0.06910  Biso   1.000  C
  C292     1.0000 0.86380  0.30510  0.56910  Biso   1.000  C
  C293     1.0000 0.86380  0.69490  0.93090  Biso   1.000  C
  C294     1.0000 0.63620  0.30510  0.43090  Biso   1.000  C
  C295     1.0000 0.13620  0.19490  0.56910  Biso   1.000  C
  C296     1.0000 0.36380  0.80510  0.06910  Biso   1.000  C
  C297     1.0000 0.63620  0.80510  0.56910  Biso   1.000  C
  C298     1.0000 0.86380  0.19490  0.06910  Biso   1.000  C
  C299     1.0000 0.36380  0.30510  0.93090  Biso   1.000  C
  C300     1.0000 0.13620  0.69490  0.43090  Biso   1.000  C
  C301     1.0000 0.13620  0.30510  0.06910  Biso   1.000  C
  C302     1.0000 0.36380  0.69490  0.56910  Biso   1.000  C
  C303     1.0000 0.86380  0.80510  0.43090  Biso   1.000  C
  C304     1.0000 0.63620  0.19490  0.93090  Biso   1.000  C
  H161     1.0000 0.35180  0.15200  0.43980  Biso   1.000  H
  H162     1.0000 0.14820  0.84800  0.93980  Biso   1.000  H
  H163     1.0000 0.64820  0.65200  0.06020  Biso   1.000  H
  H164     1.0000 0.85180  0.34800  0.56020  Biso   1.000  H
  H165     1.0000 0.85180  0.65200  0.93980  Biso   1.000  H
  H166     1.0000 0.64820  0.34800  0.43980  Biso   1.000  H
  H167     1.0000 0.14820  0.15200  0.56020  Biso   1.000  H
  H168     1.0000 0.35180  0.84800  0.06020  Biso   1.000  H
  H169     1.0000 0.64820  0.84800  0.56020  Biso   1.000  H
  H170     1.0000 0.85180  0.15200  0.06020  Biso   1.000  H
  H171     1.0000 0.35180  0.34800  0.93980  Biso   1.000  H
  H172     1.0000 0.14820  0.65200  0.43980  Biso   1.000  H
  H173     1.0000 0.14820  0.34800  0.06020  Biso   1.000  H
  H174     1.0000 0.35180  0.65200  0.56020  Biso   1.000  H
  H175     1.0000 0.85180  0.84800  0.43980  Biso   1.000  H
  H176     1.0000 0.64820  0.15200  0.93980  Biso   1.000  H
  C305     1.0000 0.36730  0.20290  0.39748  Biso   1.000  C
  C306     1.0000 0.13270  0.79710  0.89748  Biso   1.000  C
  C307     1.0000 0.63270  0.70290  0.10252  Biso   1.000  C
  C308     1.0000 0.86730  0.29710  0.60252  Biso   1.000  C
  C309     1.0000 0.86730  0.70290  0.89748  Biso   1.000  C
  C310     1.0000 0.63270  0.29710  0.39748  Biso   1.000  C
  C311     1.0000 0.13270  0.20290  0.60252  Biso   1.000  C
  C312     1.0000 0.36730  0.79710  0.10252  Biso   1.000  C
  C313     1.0000 0.63270  0.79710  0.60252  Biso   1.000  C
  C314     1.0000 0.86730  0.20290  0.10252  Biso   1.000  C
  C315     1.0000 0.36730  0.29710  0.89748  Biso   1.000  C
  C316     1.0000 0.13270  0.70290  0.39748  Biso   1.000  C
  C317     1.0000 0.13270  0.29710  0.10252  Biso   1.000  C
  C318     1.0000 0.36730  0.70290  0.60252  Biso   1.000  C
  C319     1.0000 0.86730  0.79710  0.39748  Biso   1.000  C
  C320     1.0000 0.63270  0.20290  0.89748  Biso   1.000  C
  H177     1.0000 0.35960  0.16510  0.38360  Biso   1.000  H
  H178     1.0000 0.14040  0.83490  0.88360  Biso   1.000  H
  H179     1.0000 0.64040  0.66510  0.11640  Biso   1.000  H
  H180     1.0000 0.85960  0.33490  0.61640  Biso   1.000  H
  H181     1.0000 0.85960  0.66510  0.88360  Biso   1.000  H
  H182     1.0000 0.64040  0.33490  0.38360  Biso   1.000  H
  H183     1.0000 0.14040  0.16510  0.61640  Biso   1.000  H
  H184     1.0000 0.35960  0.83490  0.11640  Biso   1.000  H
  H185     1.0000 0.64040  0.83490  0.61640  Biso   1.000  H
  H186     1.0000 0.85960  0.16510  0.11640  Biso   1.000  H
  H187     1.0000 0.35960  0.33490  0.88360  Biso   1.000  H
  H188     1.0000 0.14040  0.66510  0.38360  Biso   1.000  H
  H189     1.0000 0.14040  0.33490  0.11640  Biso   1.000  H
  H190     1.0000 0.35960  0.66510  0.61640  Biso   1.000  H
  H191     1.0000 0.85960  0.83490  0.38360  Biso   1.000  H
  H192     1.0000 0.64040  0.16510  0.88360  Biso   1.000  H
  C321     1.0000 0.38070  0.18560  0.50660  Biso   1.000  C
  C322     1.0000 0.11930  0.81440  0.00660  Biso   1.000  C
  C323     1.0000 0.61930  0.68560  0.99340  Biso   1.000  C
  C324     1.0000 0.88070  0.31440  0.49340  Biso   1.000  C
  C325     1.0000 0.88070  0.68560  0.00660  Biso   1.000  C
  C326     1.0000 0.61930  0.31440  0.50660  Biso   1.000  C
  C327     1.0000 0.11930  0.18560  0.49340  Biso   1.000  C
  C328     1.0000 0.38070  0.81440  0.99340  Biso   1.000  C
  C329     1.0000 0.61930  0.81440  0.49340  Biso   1.000  C
  C330     1.0000 0.88070  0.18560  0.99340  Biso   1.000  C
  C331     1.0000 0.38070  0.31440  0.00660  Biso   1.000  C
  C332     1.0000 0.11930  0.68560  0.50660  Biso   1.000  C
  C333     1.0000 0.11930  0.31440  0.99340  Biso   1.000  C
  C334     1.0000 0.38070  0.68560  0.49340  Biso   1.000  C
  C335     1.0000 0.88070  0.81440  0.50660  Biso   1.000  C
  C336     1.0000 0.61930  0.18560  0.00660  Biso   1.000  C
  C337     1.0000 0.38260  0.19490  0.54350  Biso   1.000  C
  C338     1.0000 0.11740  0.80510  0.04350  Biso   1.000  C
  C339     1.0000 0.61740  0.69490  0.95650  Biso   1.000  C
  C340     1.0000 0.88260  0.30510  0.45650  Biso   1.000  C
  C341     1.0000 0.88260  0.69490  0.04350  Biso   1.000  C
  C342     1.0000 0.61740  0.30510  0.54350  Biso   1.000  C
  C343     1.0000 0.11740  0.19490  0.45650  Biso   1.000  C
  C344     1.0000 0.38260  0.80510  0.95650  Biso   1.000  C
  C345     1.0000 0.61740  0.80510  0.45650  Biso   1.000  C
  C346     1.0000 0.88260  0.19490  0.95650  Biso   1.000  C
  C347     1.0000 0.38260  0.30510  0.04350  Biso   1.000  C
  C348     1.0000 0.11740  0.69490  0.54350  Biso   1.000  C
  C349     1.0000 0.11740  0.30510  0.95650  Biso   1.000  C
  C350     1.0000 0.38260  0.69490  0.45650  Biso   1.000  C
  C351     1.0000 0.88260  0.80510  0.54350  Biso   1.000  C
  C352     1.0000 0.61740  0.19490  0.04350  Biso   1.000  C
  C353     1.0000 0.41280  0.14290  0.56170  Biso   1.000  C
  C354     1.0000 0.08720  0.85710  0.06170  Biso   1.000  C
  C355     1.0000 0.58720  0.64290  0.93830  Biso   1.000  C
  C356     1.0000 0.91280  0.35710  0.43830  Biso   1.000  C
  C357     1.0000 0.91280  0.64290  0.06170  Biso   1.000  C
  C358     1.0000 0.58720  0.35710  0.56170  Biso   1.000  C
  C359     1.0000 0.08720  0.14290  0.43830  Biso   1.000  C
  C360     1.0000 0.41280  0.85710  0.93830  Biso   1.000  C
  C361     1.0000 0.58720  0.85710  0.43830  Biso   1.000  C
  C362     1.0000 0.91280  0.14290  0.93830  Biso   1.000  C
  C363     1.0000 0.41280  0.35710  0.06170  Biso   1.000  C
  C364     1.0000 0.08720  0.64290  0.56170  Biso   1.000  C
  C365     1.0000 0.08720  0.35710  0.93830  Biso   1.000  C
  C366     1.0000 0.41280  0.64290  0.43830  Biso   1.000  C
  C367     1.0000 0.91280  0.85710  0.56170  Biso   1.000  C
  C368     1.0000 0.58720  0.14290  0.06170  Biso   1.000  C
  H193     1.0000 0.43380  0.10450  0.55060  Biso   1.000  H
  H194     1.0000 0.06620  0.89550  0.05060  Biso   1.000  H
  H195     1.0000 0.56620  0.60450  0.94940  Biso   1.000  H
  H196     1.0000 0.93380  0.39550  0.44940  Biso   1.000  H
  H197     1.0000 0.93380  0.60450  0.05060  Biso   1.000  H
  H198     1.0000 0.56620  0.39550  0.55060  Biso   1.000  H
  H199     1.0000 0.06620  0.10450  0.44940  Biso   1.000  H
  H200     1.0000 0.43380  0.89550  0.94940  Biso   1.000  H
  H201     1.0000 0.56620  0.89550  0.44940  Biso   1.000  H
  H202     1.0000 0.93380  0.10450  0.94940  Biso   1.000  H
  H203     1.0000 0.43380  0.39550  0.05060  Biso   1.000  H
  H204     1.0000 0.06620  0.60450  0.55060  Biso   1.000  H
  H205     1.0000 0.06620  0.39550  0.94940  Biso   1.000  H
  H206     1.0000 0.43380  0.60450  0.44940  Biso   1.000  H
  H207     1.0000 0.93380  0.89550  0.55060  Biso   1.000  H
  H208     1.0000 0.56620  0.10450  0.05060  Biso   1.000  H
  C369     1.0000 0.41420  0.14400  0.59660  Biso   1.000  C
  C370     1.0000 0.08580  0.85600  0.09660  Biso   1.000  C
  C371     1.0000 0.58580  0.64400  0.90340  Biso   1.000  C
  C372     1.0000 0.91420  0.35600  0.40340  Biso   1.000  C
  C373     1.0000 0.91420  0.64400  0.09660  Biso   1.000  C
  C374     1.0000 0.58580  0.35600  0.59660  Biso   1.000  C
  C375     1.0000 0.08580  0.14400  0.40340  Biso   1.000  C
  C376     1.0000 0.41420  0.85600  0.90340  Biso   1.000  C
  C377     1.0000 0.58580  0.85600  0.40340  Biso   1.000  C
  C378     1.0000 0.91420  0.14400  0.90340  Biso   1.000  C
  C379     1.0000 0.41420  0.35600  0.09660  Biso   1.000  C
  C380     1.0000 0.08580  0.64400  0.59660  Biso   1.000  C
  C381     1.0000 0.08580  0.35600  0.90340  Biso   1.000  C
  C382     1.0000 0.41420  0.64400  0.40340  Biso   1.000  C
  C383     1.0000 0.91420  0.85600  0.59660  Biso   1.000  C
  C384     1.0000 0.58580  0.14400  0.09660  Biso   1.000  C
  H209     1.0000 0.43280  0.10540  0.60830  Biso   1.000  H
  H210     1.0000 0.06720  0.89460  0.10830  Biso   1.000  H
  H211     1.0000 0.56720  0.60540  0.89170  Biso   1.000  H
  H212     1.0000 0.93280  0.39460  0.39170  Biso   1.000  H
  H213     1.0000 0.93280  0.60540  0.10830  Biso   1.000  H
  H214     1.0000 0.56720  0.39460  0.60830  Biso   1.000  H
  H215     1.0000 0.06720  0.10540  0.39170  Biso   1.000  H
  H216     1.0000 0.43280  0.89460  0.89170  Biso   1.000  H
  H217     1.0000 0.56720  0.89460  0.39170  Biso   1.000  H
  H218     1.0000 0.93280  0.10540  0.89170  Biso   1.000  H
  H219     1.0000 0.43280  0.39460  0.10830  Biso   1.000  H
  H220     1.0000 0.06720  0.60540  0.60830  Biso   1.000  H
  H221     1.0000 0.06720  0.39460  0.89170  Biso   1.000  H
  H222     1.0000 0.43280  0.60540  0.39170  Biso   1.000  H
  H223     1.0000 0.93280  0.89460  0.60830  Biso   1.000  H
  H224     1.0000 0.56720  0.10540  0.10830  Biso   1.000  H
  C385     1.0000 0.35830  0.25000  0.59630  Biso   1.000  C
  C386     1.0000 0.14170  0.75000  0.09630  Biso   1.000  C
  C387     1.0000 0.64170  0.75000  0.90370  Biso   1.000  C
  C388     1.0000 0.85830  0.25000  0.40370  Biso   1.000  C
  C389     1.0000 0.85830  0.75000  0.09630  Biso   1.000  C
  C390     1.0000 0.64170  0.25000  0.59630  Biso   1.000  C
  C391     1.0000 0.14170  0.25000  0.40370  Biso   1.000  C
  C392     1.0000 0.35830  0.75000  0.90370  Biso   1.000  C
  C393     1.0000 0.64170  0.75000  0.40370  Biso   1.000  C
  C394     1.0000 0.85830  0.25000  0.90370  Biso   1.000  C
  C395     1.0000 0.35830  0.25000  0.09630  Biso   1.000  C
  C396     1.0000 0.14170  0.75000  0.59630  Biso   1.000  C
  C397     1.0000 0.14170  0.25000  0.90370  Biso   1.000  C
  C398     1.0000 0.35830  0.75000  0.40370  Biso   1.000  C
  C399     1.0000 0.85830  0.75000  0.59630  Biso   1.000  C
  C400     1.0000 0.64170  0.25000  0.09630  Biso   1.000  C
  H225     1.0000 0.33750  0.28790  0.60780  Biso   1.000  H
  H226     1.0000 0.16250  0.71210  0.10780  Biso   1.000  H
  H227     1.0000 0.66250  0.78790  0.89220  Biso   1.000  H
  H228     1.0000 0.83750  0.21210  0.39220  Biso   1.000  H
  H229     1.0000 0.83750  0.78790  0.10780  Biso   1.000  H
  H230     1.0000 0.66250  0.21210  0.60780  Biso   1.000  H
  H231     1.0000 0.16250  0.28790  0.39220  Biso   1.000  H
  H232     1.0000 0.33750  0.71210  0.89220  Biso   1.000  H
  H233     1.0000 0.66250  0.71210  0.39220  Biso   1.000  H
  H234     1.0000 0.83750  0.28790  0.89220  Biso   1.000  H
  H235     1.0000 0.33750  0.21210  0.10780  Biso   1.000  H
  H236     1.0000 0.16250  0.78790  0.60780  Biso   1.000  H
  H237     1.0000 0.16250  0.21210  0.89220  Biso   1.000  H
  H238     1.0000 0.33750  0.78790  0.39220  Biso   1.000  H
  H239     1.0000 0.83750  0.71210  0.60780  Biso   1.000  H
  H240     1.0000 0.66250  0.28790  0.10780  Biso   1.000  H
  C401     1.0000 0.35530  0.24940  0.56110  Biso   1.000  C
  C402     1.0000 0.14470  0.75060  0.06110  Biso   1.000  C
  C403     1.0000 0.64470  0.74940  0.93890  Biso   1.000  C
  C404     1.0000 0.85530  0.25060  0.43890  Biso   1.000  C
  C405     1.0000 0.85530  0.74940  0.06110  Biso   1.000  C
  C406     1.0000 0.64470  0.25060  0.56110  Biso   1.000  C
  C407     1.0000 0.14470  0.24940  0.43890  Biso   1.000  C
  C408     1.0000 0.35530  0.75060  0.93890  Biso   1.000  C
  C409     1.0000 0.64470  0.75060  0.43890  Biso   1.000  C
  C410     1.0000 0.85530  0.24940  0.93890  Biso   1.000  C
  C411     1.0000 0.35530  0.25060  0.06110  Biso   1.000  C
  C412     1.0000 0.14470  0.74940  0.56110  Biso   1.000  C
  C413     1.0000 0.14470  0.25060  0.93890  Biso   1.000  C
  C414     1.0000 0.35530  0.74940  0.43890  Biso   1.000  C
  C415     1.0000 0.85530  0.75060  0.56110  Biso   1.000  C
  C416     1.0000 0.64470  0.24940  0.06110  Biso   1.000  C
  H241     1.0000 0.33410  0.28740  0.54980  Biso   1.000  H
  H242     1.0000 0.16590  0.71260  0.04980  Biso   1.000  H
  H243     1.0000 0.66590  0.78740  0.95020  Biso   1.000  H
  H244     1.0000 0.83410  0.21260  0.45020  Biso   1.000  H
  H245     1.0000 0.83410  0.78740  0.04980  Biso   1.000  H
  H246     1.0000 0.66590  0.21260  0.54980  Biso   1.000  H
  H247     1.0000 0.16590  0.28740  0.45020  Biso   1.000  H
  H248     1.0000 0.33410  0.71260  0.95020  Biso   1.000  H
  H249     1.0000 0.66590  0.71260  0.45020  Biso   1.000  H
  H250     1.0000 0.83410  0.28740  0.95020  Biso   1.000  H
  H251     1.0000 0.33410  0.21260  0.04980  Biso   1.000  H
  H252     1.0000 0.16590  0.78740  0.54980  Biso   1.000  H
  H253     1.0000 0.16590  0.21260  0.95020  Biso   1.000  H
  H254     1.0000 0.33410  0.78740  0.45020  Biso   1.000  H
  H255     1.0000 0.83410  0.71260  0.54980  Biso   1.000  H
  H256     1.0000 0.66590  0.28740  0.04980  Biso   1.000  H
  Cu1      1.0000 0.39512  0.30543  0.16776  Biso   1.000  Cu
  Cu2      1.0000 0.10488  0.69457  0.66776  Biso   1.000  Cu
  Cu3      1.0000 0.60488  0.80543  0.33224  Biso   1.000  Cu
  Cu4      1.0000 0.89512  0.19457  0.83224  Biso   1.000  Cu
  Cu5      1.0000 0.89512  0.80543  0.66776  Biso   1.000  Cu
  Cu6      1.0000 0.60488  0.19457  0.16776  Biso   1.000  Cu
  Cu7      1.0000 0.10488  0.30543  0.83224  Biso   1.000  Cu
  Cu8      1.0000 0.39512  0.69457  0.33224  Biso   1.000  Cu
  Cu9      1.0000 0.60488  0.69457  0.83224  Biso   1.000  Cu
  Cu10     1.0000 0.89512  0.30543  0.33224  Biso   1.000  Cu
  Cu11     1.0000 0.39512  0.19457  0.66776  Biso   1.000  Cu
  Cu12     1.0000 0.10488  0.80543  0.16776  Biso   1.000  Cu
  Cu13     1.0000 0.10488  0.19457  0.33224  Biso   1.000  Cu
  Cu14     1.0000 0.39512  0.80543  0.83224  Biso   1.000  Cu
  Cu15     1.0000 0.89512  0.69457  0.16776  Biso   1.000  Cu
  Cu16     1.0000 0.60488  0.30543  0.66776  Biso   1.000  Cu
  H257     1.0000 0.35400  0.23900  0.33500  Biso   1.000  H
  H258     1.0000 0.14600  0.76100  0.83500  Biso   1.000  H
  H259     1.0000 0.64600  0.73900  0.16500  Biso   1.000  H
  H260     1.0000 0.85400  0.26100  0.66500  Biso   1.000  H
  H261     1.0000 0.85400  0.73900  0.83500  Biso   1.000  H
  H262     1.0000 0.64600  0.26100  0.33500  Biso   1.000  H
  H263     1.0000 0.14600  0.23900  0.66500  Biso   1.000  H
  H264     1.0000 0.35400  0.76100  0.16500  Biso   1.000  H
  H265     1.0000 0.64600  0.76100  0.66500  Biso   1.000  H
  H266     1.0000 0.85400  0.23900  0.16500  Biso   1.000  H
  H267     1.0000 0.35400  0.26100  0.83500  Biso   1.000  H
  H268     1.0000 0.14600  0.73900  0.33500  Biso   1.000  H
  H269     1.0000 0.14600  0.26100  0.16500  Biso   1.000  H
  H270     1.0000 0.35400  0.73900  0.66500  Biso   1.000  H
  H271     1.0000 0.85400  0.76100  0.33500  Biso   1.000  H
  H272     1.0000 0.64600  0.23900  0.83500  Biso   1.000  H
  H273     1.0000 0.37700  0.28200  0.50330  Biso   1.000  H
  H274     1.0000 0.12300  0.71800  0.00330  Biso   1.000  H
  H275     1.0000 0.62300  0.78200  0.99670  Biso   1.000  H
  H276     1.0000 0.87700  0.21800  0.49670  Biso   1.000  H
  H277     1.0000 0.87700  0.78200  0.00330  Biso   1.000  H
  H278     1.0000 0.62300  0.21800  0.50330  Biso   1.000  H
  H279     1.0000 0.12300  0.28200  0.49670  Biso   1.000  H
  H280     1.0000 0.37700  0.71800  0.99670  Biso   1.000  H
  H281     1.0000 0.62300  0.71800  0.49670  Biso   1.000  H
  H282     1.0000 0.87700  0.28200  0.99670  Biso   1.000  H
  H283     1.0000 0.37700  0.21800  0.00330  Biso   1.000  H
  H284     1.0000 0.12300  0.78200  0.50330  Biso   1.000  H
  H285     1.0000 0.12300  0.21800  0.99670  Biso   1.000  H
  H286     1.0000 0.37700  0.78200  0.49670  Biso   1.000  H
  H287     1.0000 0.87700  0.71800  0.50330  Biso   1.000  H
  H288     1.0000 0.62300  0.28200  0.00330  Biso   1.000  H
  N1       1.0000 0.40290  0.30820  0.22171  Biso   1.000  N
  N2       1.0000 0.09710  0.69180  0.72171  Biso   1.000  N
  N3       1.0000 0.59710  0.80820  0.27829  Biso   1.000  N
  N4       1.0000 0.90290  0.19180  0.77829  Biso   1.000  N
  N5       1.0000 0.90290  0.80820  0.72171  Biso   1.000  N
  N6       1.0000 0.59710  0.19180  0.22171  Biso   1.000  N
  N7       1.0000 0.09710  0.30820  0.77829  Biso   1.000  N
  N8       1.0000 0.40290  0.69180  0.27829  Biso   1.000  N
  N9       1.0000 0.59710  0.69180  0.77829  Biso   1.000  N
  N10      1.0000 0.90290  0.30820  0.27829  Biso   1.000  N
  N11      1.0000 0.40290  0.19180  0.72171  Biso   1.000  N
  N12      1.0000 0.09710  0.80820  0.22171  Biso   1.000  N
  N13      1.0000 0.09710  0.19180  0.27829  Biso   1.000  N
  N14      1.0000 0.40290  0.80820  0.77829  Biso   1.000  N
  N15      1.0000 0.90290  0.69180  0.22171  Biso   1.000  N
  N16      1.0000 0.59710  0.30820  0.72171  Biso   1.000  N
  N17      1.0000 0.38240  0.27120  0.34792  Biso   1.000  N
  N18      1.0000 0.11760  0.72880  0.84792  Biso   1.000  N
  N19      1.0000 0.61760  0.77120  0.15208  Biso   1.000  N
  N20      1.0000 0.88240  0.22880  0.65208  Biso   1.000  N
  N21      1.0000 0.88240  0.77120  0.84792  Biso   1.000  N
  N22      1.0000 0.61760  0.22880  0.34792  Biso   1.000  N
  N23      1.0000 0.11760  0.27120  0.65208  Biso   1.000  N
  N24      1.0000 0.38240  0.72880  0.15208  Biso   1.000  N
  N25      1.0000 0.61760  0.72880  0.65208  Biso   1.000  N
  N26      1.0000 0.88240  0.27120  0.15208  Biso   1.000  N
  N27      1.0000 0.38240  0.22880  0.84792  Biso   1.000  N
  N28      1.0000 0.11760  0.77120  0.34792  Biso   1.000  N
  N29      1.0000 0.11760  0.22880  0.15208  Biso   1.000  N
  N30      1.0000 0.38240  0.77120  0.65208  Biso   1.000  N
  N31      1.0000 0.88240  0.72880  0.34792  Biso   1.000  N
  N32      1.0000 0.61760  0.27120  0.84792  Biso   1.000  N
  N33      1.0000 0.37610  0.24560  0.48805  Biso   1.000  N
  N34      1.0000 0.12390  0.75440  0.98805  Biso   1.000  N
  N35      1.0000 0.62390  0.74560  0.01195  Biso   1.000  N
  N36      1.0000 0.87610  0.25440  0.51195  Biso   1.000  N
  N37      1.0000 0.87610  0.74560  0.98805  Biso   1.000  N
  N38      1.0000 0.62390  0.25440  0.48805  Biso   1.000  N
  N39      1.0000 0.12390  0.24560  0.51195  Biso   1.000  N
  N40      1.0000 0.37610  0.75440  0.01195  Biso   1.000  N
  N41      1.0000 0.62390  0.75440  0.51195  Biso   1.000  N
  N42      1.0000 0.87610  0.24560  0.01195  Biso   1.000  N
  N43      1.0000 0.37610  0.25440  0.98805  Biso   1.000  N
  N44      1.0000 0.12390  0.74560  0.48805  Biso   1.000  N
  N45      1.0000 0.12390  0.25440  0.01195  Biso   1.000  N
  N46      1.0000 0.37610  0.74560  0.51195  Biso   1.000  N
  N47      1.0000 0.87610  0.75440  0.48805  Biso   1.000  N
  N48      1.0000 0.62390  0.24560  0.98805  Biso   1.000  N
  N49      1.0000 0.39000  0.19780  0.61342  Biso   1.000  N
  N50      1.0000 0.11000  0.80220  0.11342  Biso   1.000  N
  N51      1.0000 0.61000  0.69780  0.88658  Biso   1.000  N
  N52      1.0000 0.89000  0.30220  0.38658  Biso   1.000  N
  N53      1.0000 0.89000  0.69780  0.11342  Biso   1.000  N
  N54      1.0000 0.61000  0.30220  0.61342  Biso   1.000  N
  N55      1.0000 0.11000  0.19780  0.38658  Biso   1.000  N
  N56      1.0000 0.39000  0.80220  0.88658  Biso   1.000  N
  N57      1.0000 0.61000  0.80220  0.38658  Biso   1.000  N
  N58      1.0000 0.89000  0.19780  0.88658  Biso   1.000  N
  N59      1.0000 0.39000  0.30220  0.11342  Biso   1.000  N
  N60      1.0000 0.11000  0.69780  0.61342  Biso   1.000  N
  N61      1.0000 0.11000  0.30220  0.88658  Biso   1.000  N
  N62      1.0000 0.39000  0.69780  0.38658  Biso   1.000  N
  N63      1.0000 0.89000  0.80220  0.61342  Biso   1.000  N
  N64      1.0000 0.61000  0.19780  0.11342  Biso   1.000  N
  O1       1.0000 0.35260  0.21040  0.16917  Biso   1.000  O
  O2       1.0000 0.14740  0.78960  0.66917  Biso   1.000  O
  O3       1.0000 0.64740  0.71040  0.33083  Biso   1.000  O
  O4       1.0000 0.85260  0.28960  0.83083  Biso   1.000  O
  O5       1.0000 0.85260  0.71040  0.66917  Biso   1.000  O
  O6       1.0000 0.64740  0.28960  0.16917  Biso   1.000  O
  O7       1.0000 0.14740  0.21040  0.83083  Biso   1.000  O
  O8       1.0000 0.35260  0.78960  0.33083  Biso   1.000  O
  O9       1.0000 0.64740  0.78960  0.83083  Biso   1.000  O
  O10      1.0000 0.85260  0.21040  0.33083  Biso   1.000  O
  O11      1.0000 0.35260  0.28960  0.66917  Biso   1.000  O
  O12      1.0000 0.14740  0.71040  0.16917  Biso   1.000  O
  O13      1.0000 0.14740  0.28960  0.33083  Biso   1.000  O
  O14      1.0000 0.35260  0.71040  0.83083  Biso   1.000  O
  O15      1.0000 0.85260  0.78960  0.16917  Biso   1.000  O
  O16      1.0000 0.64740  0.21040  0.66917  Biso   1.000  O
  O17      1.0000 0.48320  0.16440  0.16416  Biso   1.000  O
  O18      1.0000 0.01680  0.83560  0.66416  Biso   1.000  O
  O19      1.0000 0.51680  0.66440  0.33584  Biso   1.000  O
  O20      1.0000 0.98320  0.33560  0.83584  Biso   1.000  O
  O21      1.0000 0.98320  0.66440  0.66416  Biso   1.000  O
  O22      1.0000 0.51680  0.33560  0.16416  Biso   1.000  O
  O23      1.0000 0.01680  0.16440  0.83584  Biso   1.000  O
  O24      1.0000 0.48320  0.83560  0.33584  Biso   1.000  O
  O25      1.0000 0.51680  0.83560  0.83584  Biso   1.000  O
  O26      1.0000 0.98320  0.16440  0.33584  Biso   1.000  O
  O27      1.0000 0.48320  0.33560  0.66416  Biso   1.000  O
  O28      1.0000 0.01680  0.66440  0.16416  Biso   1.000  O
  O29      1.0000 0.01680  0.33560  0.33584  Biso   1.000  O
  O30      1.0000 0.48320  0.66440  0.83584  Biso   1.000  O
  O31      1.0000 0.98320  0.83560  0.16416  Biso   1.000  O
  O32      1.0000 0.51680  0.16440  0.66416  Biso   1.000  O
  O33      1.0000 0.14900  0.90120  0.16607  Biso   1.000  O
  O34      1.0000 0.35100  0.09880  0.66607  Biso   1.000  O
  O35      1.0000 0.85100  0.40120  0.33393  Biso   1.000  O
  O36      1.0000 0.64900  0.59880  0.83393  Biso   1.000  O
  O37      1.0000 0.64900  0.40120  0.66607  Biso   1.000  O
  O38      1.0000 0.85100  0.59880  0.16607  Biso   1.000  O
  O39      1.0000 0.35100  0.90120  0.83393  Biso   1.000  O
  O40      1.0000 0.14900  0.09880  0.33393  Biso   1.000  O
  O41      1.0000 0.85100  0.09880  0.83393  Biso   1.000  O
  O42      1.0000 0.64900  0.90120  0.33393  Biso   1.000  O
  O43      1.0000 0.14900  0.59880  0.66607  Biso   1.000  O
  O44      1.0000 0.35100  0.40120  0.16607  Biso   1.000  O
  O45      1.0000 0.35100  0.59880  0.33393  Biso   1.000  O
  O46      1.0000 0.14900  0.40120  0.83393  Biso   1.000  O
  O47      1.0000 0.64900  0.09880  0.16607  Biso   1.000  O
  O48      1.0000 0.85100  0.90120  0.66607  Biso   1.000  O
  O49      1.0000 0.27120  0.84400  0.17212  Biso   1.000  O
  O50      1.0000 0.22880  0.15600  0.67212  Biso   1.000  O
  O51      1.0000 0.72880  0.34400  0.32788  Biso   1.000  O
  O52      1.0000 0.77120  0.65600  0.82788  Biso   1.000  O
  O53      1.0000 0.77120  0.34400  0.67212  Biso   1.000  O
  O54      1.0000 0.72880  0.65600  0.17212  Biso   1.000  O
  O55      1.0000 0.22880  0.84400  0.82788  Biso   1.000  O
  O56      1.0000 0.27120  0.15600  0.32788  Biso   1.000  O
  O57      1.0000 0.72880  0.15600  0.82788  Biso   1.000  O
  O58      1.0000 0.77120  0.84400  0.32788  Biso   1.000  O
  O59      1.0000 0.27120  0.65600  0.67212  Biso   1.000  O
  O60      1.0000 0.22880  0.34400  0.17212  Biso   1.000  O
  O61      1.0000 0.22880  0.65600  0.32788  Biso   1.000  O
  O62      1.0000 0.27120  0.34400  0.82788  Biso   1.000  O
  O63      1.0000 0.77120  0.15600  0.17212  Biso   1.000  O
  O64      1.0000 0.72880  0.84400  0.67212  Biso   1.000  O
  O65      1.0000 0.45730  0.37030  0.34147  Biso   1.000  O
  O66      1.0000 0.04270  0.62970  0.84147  Biso   1.000  O
  O67      1.0000 0.54270  0.87030  0.15853  Biso   1.000  O
  O68      1.0000 0.95730  0.12970  0.65853  Biso   1.000  O
  O69      1.0000 0.95730  0.87030  0.84147  Biso   1.000  O
  O70      1.0000 0.54270  0.12970  0.34147  Biso   1.000  O
  O71      1.0000 0.04270  0.37030  0.65853  Biso   1.000  O
  O72      1.0000 0.45730  0.62970  0.15853  Biso   1.000  O
  O73      1.0000 0.54270  0.62970  0.65853  Biso   1.000  O
  O74      1.0000 0.95730  0.37030  0.15853  Biso   1.000  O
  O75      1.0000 0.45730  0.12970  0.84147  Biso   1.000  O
  O76      1.0000 0.04270  0.87030  0.34147  Biso   1.000  O
  O77      1.0000 0.04270  0.12970  0.15853  Biso   1.000  O
  O78      1.0000 0.45730  0.87030  0.65853  Biso   1.000  O
  O79      1.0000 0.95730  0.62970  0.34147  Biso   1.000  O
  O80      1.0000 0.54270  0.37030  0.84147  Biso   1.000  O
  O81      1.0000 0.38620  0.12900  0.49349  Biso   1.000  O
  O82      1.0000 0.11380  0.87100  0.99349  Biso   1.000  O
  O83      1.0000 0.61380  0.62900  0.00651  Biso   1.000  O
  O84      1.0000 0.88620  0.37100  0.50651  Biso   1.000  O
  O85      1.0000 0.88620  0.62900  0.99349  Biso   1.000  O
  O86      1.0000 0.61380  0.37100  0.49349  Biso   1.000  O
  O87      1.0000 0.11380  0.12900  0.50651  Biso   1.000  O
  O88      1.0000 0.38620  0.87100  0.00651  Biso   1.000  O
  O89      1.0000 0.61380  0.87100  0.50651  Biso   1.000  O
  O90      1.0000 0.88620  0.12900  0.00651  Biso   1.000  O
  O91      1.0000 0.38620  0.37100  0.99349  Biso   1.000  O
  O92      1.0000 0.11380  0.62900  0.49349  Biso   1.000  O
  O93      1.0000 0.11380  0.37100  0.00651  Biso   1.000  O
  O94      1.0000 0.38620  0.62900  0.50651  Biso   1.000  O
  O95      1.0000 0.88620  0.87100  0.49349  Biso   1.000  O
  O96      1.0000 0.61380  0.12900  0.99349  Biso   1.000  O
