data_image0
_cell_length_a       18.3411
_cell_length_b       18.3411
_cell_length_c       52.6041
_cell_angle_alpha    90
_cell_angle_beta     90
_cell_angle_gamma    120

_symmetry_space_group_name_H-M    "P 1"
_symmetry_int_tables_number       1

loop_
  _symmetry_equiv_pos_as_xyz
  'x, y, z'

loop_
  _atom_site_label
  _atom_site_occupancy
  _atom_site_fract_x
  _atom_site_fract_y
  _atom_site_fract_z
  _atom_site_thermal_displace_type
  _atom_site_B_iso_or_equiv
  _atom_site_type_symbol
  Cu1      1.0000 0.04999  0.52500  0.02031  Biso   1.000  Cu
  Cu2      1.0000 0.47500  0.52499  0.02031  Biso   1.000  Cu
  Cu3      1.0000 0.47501  0.95001  0.02031  Biso   1.000  Cu
  Cu4      1.0000 0.52500  0.04999  0.97969  Biso   1.000  Cu
  Cu5      1.0000 0.52499  0.47500  0.97969  Biso   1.000  Cu
  Cu6      1.0000 0.95001  0.47501  0.97969  Biso   1.000  Cu
  Cu7      1.0000 0.71666  0.85833  0.35364  Biso   1.000  Cu
  Cu8      1.0000 0.14167  0.85832  0.35364  Biso   1.000  Cu
  Cu9      1.0000 0.14168  0.28334  0.35364  Biso   1.000  Cu
  Cu10     1.0000 0.19167  0.38332  0.31302  Biso   1.000  Cu
  Cu11     1.0000 0.19166  0.80833  0.31302  Biso   1.000  Cu
  Cu12     1.0000 0.61668  0.80834  0.31302  Biso   1.000  Cu
  Cu13     1.0000 0.38332  0.19167  0.68698  Biso   1.000  Cu
  Cu14     1.0000 0.80833  0.19166  0.68698  Biso   1.000  Cu
  Cu15     1.0000 0.80834  0.61668  0.68698  Biso   1.000  Cu
  Cu16     1.0000 0.85833  0.71666  0.64636  Biso   1.000  Cu
  Cu17     1.0000 0.85832  0.14167  0.64636  Biso   1.000  Cu
  Cu18     1.0000 0.28334  0.14168  0.64636  Biso   1.000  Cu
  O1       1.0000 0.10930  0.48010  0.00095  Biso   1.000  O
  O2       1.0000 0.51990  0.62920  0.00095  Biso   1.000  O
  O3       1.0000 0.37080  0.89070  0.00095  Biso   1.000  O
  O4       1.0000 0.48010  0.10930  0.99905  Biso   1.000  O
  O5       1.0000 0.62920  0.51990  0.99905  Biso   1.000  O
  O6       1.0000 0.89070  0.37080  0.99905  Biso   1.000  O
  O7       1.0000 0.77597  0.81343  0.33428  Biso   1.000  O
  O8       1.0000 0.18657  0.96253  0.33428  Biso   1.000  O
  O9       1.0000 0.03747  0.22403  0.33428  Biso   1.000  O
  O10      1.0000 0.14677  0.44263  0.33238  Biso   1.000  O
  O11      1.0000 0.29587  0.85323  0.33238  Biso   1.000  O
  O12      1.0000 0.55737  0.70413  0.33238  Biso   1.000  O
  O13      1.0000 0.44263  0.14677  0.66762  Biso   1.000  O
  O14      1.0000 0.85323  0.29587  0.66762  Biso   1.000  O
  O15      1.0000 0.70413  0.55737  0.66762  Biso   1.000  O
  O16      1.0000 0.81343  0.77597  0.66572  Biso   1.000  O
  O17      1.0000 0.96253  0.18657  0.66572  Biso   1.000  O
  O18      1.0000 0.22403  0.03747  0.66572  Biso   1.000  O
  O19      1.0000 0.89070  0.51990  0.99905  Biso   1.000  O
  O20      1.0000 0.48010  0.37080  0.99905  Biso   1.000  O
  O21      1.0000 0.62920  0.10930  0.99905  Biso   1.000  O
  O22      1.0000 0.51990  0.89070  0.00095  Biso   1.000  O
  O23      1.0000 0.37080  0.48010  0.00095  Biso   1.000  O
  O24      1.0000 0.10930  0.62920  0.00095  Biso   1.000  O
  O25      1.0000 0.55737  0.85323  0.33238  Biso   1.000  O
  O26      1.0000 0.14677  0.70413  0.33238  Biso   1.000  O
  O27      1.0000 0.29587  0.44263  0.33238  Biso   1.000  O
  O28      1.0000 0.18657  0.22403  0.33428  Biso   1.000  O
  O29      1.0000 0.03747  0.81343  0.33428  Biso   1.000  O
  O30      1.0000 0.77597  0.96253  0.33428  Biso   1.000  O
  O31      1.0000 0.22403  0.18657  0.66572  Biso   1.000  O
  O32      1.0000 0.81343  0.03747  0.66572  Biso   1.000  O
  O33      1.0000 0.96253  0.77597  0.66572  Biso   1.000  O
  O34      1.0000 0.85323  0.55737  0.66762  Biso   1.000  O
  O35      1.0000 0.70413  0.14677  0.66762  Biso   1.000  O
  O36      1.0000 0.44263  0.29587  0.66762  Biso   1.000  O
  O37      1.0000 0.02600  0.43930  0.96651  Biso   1.000  O
  O38      1.0000 0.56070  0.58670  0.96651  Biso   1.000  O
  O39      1.0000 0.41330  0.97400  0.96651  Biso   1.000  O
  O40      1.0000 0.43930  0.02600  0.03349  Biso   1.000  O
  O41      1.0000 0.58670  0.56070  0.03349  Biso   1.000  O
  O42      1.0000 0.97400  0.41330  0.03349  Biso   1.000  O
  O43      1.0000 0.69267  0.77263  0.29984  Biso   1.000  O
  O44      1.0000 0.22737  0.92003  0.29984  Biso   1.000  O
  O45      1.0000 0.07997  0.30733  0.29984  Biso   1.000  O
  O46      1.0000 0.10597  0.35933  0.36682  Biso   1.000  O
  O47      1.0000 0.25337  0.89403  0.36682  Biso   1.000  O
  O48      1.0000 0.64067  0.74663  0.36682  Biso   1.000  O
  O49      1.0000 0.35933  0.10597  0.63318  Biso   1.000  O
  O50      1.0000 0.89403  0.25337  0.63318  Biso   1.000  O
  O51      1.0000 0.74663  0.64067  0.63318  Biso   1.000  O
  O52      1.0000 0.77263  0.69267  0.70016  Biso   1.000  O
  O53      1.0000 0.92003  0.22737  0.70016  Biso   1.000  O
  O54      1.0000 0.30733  0.07997  0.70016  Biso   1.000  O
  O55      1.0000 0.97400  0.56070  0.03349  Biso   1.000  O
  O56      1.0000 0.43930  0.41330  0.03349  Biso   1.000  O
  O57      1.0000 0.58670  0.02600  0.03349  Biso   1.000  O
  O58      1.0000 0.56070  0.97400  0.96651  Biso   1.000  O
  O59      1.0000 0.41330  0.43930  0.96651  Biso   1.000  O
  O60      1.0000 0.02600  0.58670  0.96651  Biso   1.000  O
  O61      1.0000 0.64067  0.89403  0.36682  Biso   1.000  O
  O62      1.0000 0.10597  0.74663  0.36682  Biso   1.000  O
  O63      1.0000 0.25337  0.35933  0.36682  Biso   1.000  O
  O64      1.0000 0.22737  0.30733  0.29984  Biso   1.000  O
  O65      1.0000 0.07997  0.77263  0.29984  Biso   1.000  O
  O66      1.0000 0.69267  0.92003  0.29984  Biso   1.000  O
  O67      1.0000 0.30733  0.22737  0.70016  Biso   1.000  O
  O68      1.0000 0.77263  0.07997  0.70016  Biso   1.000  O
  O69      1.0000 0.92003  0.69267  0.70016  Biso   1.000  O
  O70      1.0000 0.89403  0.64067  0.63318  Biso   1.000  O
  O71      1.0000 0.74663  0.10597  0.63318  Biso   1.000  O
  O72      1.0000 0.35933  0.25337  0.63318  Biso   1.000  O
  O73      1.0000 0.11930  0.55970  0.05530  Biso   1.000  O
  O74      1.0000 0.44030  0.55960  0.05530  Biso   1.000  O
  O75      1.0000 0.44040  0.88070  0.05530  Biso   1.000  O
  O76      1.0000 0.55970  0.11930  0.94470  Biso   1.000  O
  O77      1.0000 0.55960  0.44030  0.94470  Biso   1.000  O
  O78      1.0000 0.88070  0.44040  0.94470  Biso   1.000  O
  O79      1.0000 0.78597  0.89303  0.38863  Biso   1.000  O
  O80      1.0000 0.10697  0.89293  0.38863  Biso   1.000  O
  O81      1.0000 0.10707  0.21403  0.38863  Biso   1.000  O
  O82      1.0000 0.22637  0.45263  0.27803  Biso   1.000  O
  O83      1.0000 0.22627  0.77363  0.27803  Biso   1.000  O
  O84      1.0000 0.54737  0.77373  0.27803  Biso   1.000  O
  O85      1.0000 0.45263  0.22637  0.72197  Biso   1.000  O
  O86      1.0000 0.77363  0.22627  0.72197  Biso   1.000  O
  O87      1.0000 0.77373  0.54737  0.72197  Biso   1.000  O
  O88      1.0000 0.89303  0.78597  0.61137  Biso   1.000  O
  O89      1.0000 0.89293  0.10697  0.61137  Biso   1.000  O
  O90      1.0000 0.21403  0.10707  0.61137  Biso   1.000  O
  C1       1.0000 0.09050  0.45060  0.97860  Biso   1.000  C
  C2       1.0000 0.54940  0.63990  0.97860  Biso   1.000  C
  C3       1.0000 0.36010  0.90950  0.97860  Biso   1.000  C
  C4       1.0000 0.45060  0.09050  0.02140  Biso   1.000  C
  C5       1.0000 0.63990  0.54940  0.02140  Biso   1.000  C
  C6       1.0000 0.90950  0.36010  0.02140  Biso   1.000  C
  C7       1.0000 0.75717  0.78393  0.31193  Biso   1.000  C
  C8       1.0000 0.21607  0.97323  0.31193  Biso   1.000  C
  C9       1.0000 0.02677  0.24283  0.31193  Biso   1.000  C
  C10      1.0000 0.11727  0.42383  0.35473  Biso   1.000  C
  C11      1.0000 0.30657  0.88273  0.35473  Biso   1.000  C
  C12      1.0000 0.57617  0.69343  0.35473  Biso   1.000  C
  C13      1.0000 0.42383  0.11727  0.64527  Biso   1.000  C
  C14      1.0000 0.88273  0.30657  0.64527  Biso   1.000  C
  C15      1.0000 0.69343  0.57617  0.64527  Biso   1.000  C
  C16      1.0000 0.78393  0.75717  0.68807  Biso   1.000  C
  C17      1.0000 0.97323  0.21607  0.68807  Biso   1.000  C
  C18      1.0000 0.24283  0.02677  0.68807  Biso   1.000  C
  C19      1.0000 0.90950  0.54940  0.02140  Biso   1.000  C
  C20      1.0000 0.45060  0.36010  0.02140  Biso   1.000  C
  C21      1.0000 0.63990  0.09050  0.02140  Biso   1.000  C
  C22      1.0000 0.54940  0.90950  0.97860  Biso   1.000  C
  C23      1.0000 0.36010  0.45060  0.97860  Biso   1.000  C
  C24      1.0000 0.09050  0.63990  0.97860  Biso   1.000  C
  C25      1.0000 0.57617  0.88273  0.35473  Biso   1.000  C
  C26      1.0000 0.11727  0.69343  0.35473  Biso   1.000  C
  C27      1.0000 0.30657  0.42383  0.35473  Biso   1.000  C
  C28      1.0000 0.21607  0.24283  0.31193  Biso   1.000  C
  C29      1.0000 0.02677  0.78393  0.31193  Biso   1.000  C
  C30      1.0000 0.75717  0.97323  0.31193  Biso   1.000  C
  C31      1.0000 0.24283  0.21607  0.68807  Biso   1.000  C
  C32      1.0000 0.78393  0.02677  0.68807  Biso   1.000  C
  C33      1.0000 0.97323  0.75717  0.68807  Biso   1.000  C
  C34      1.0000 0.88273  0.57617  0.64527  Biso   1.000  C
  C35      1.0000 0.69343  0.11727  0.64527  Biso   1.000  C
  C36      1.0000 0.42383  0.30657  0.64527  Biso   1.000  C
  C37      1.0000 0.22200  0.44400  0.97822  Biso   1.000  C
  C38      1.0000 0.55600  0.77800  0.97822  Biso   1.000  C
  C39      1.0000 0.22200  0.77800  0.97822  Biso   1.000  C
  C40      1.0000 0.44400  0.22200  0.02178  Biso   1.000  C
  C41      1.0000 0.77800  0.55600  0.02178  Biso   1.000  C
  C42      1.0000 0.77800  0.22200  0.02178  Biso   1.000  C
  C43      1.0000 0.88867  0.77733  0.31155  Biso   1.000  C
  C44      1.0000 0.22267  0.11133  0.31155  Biso   1.000  C
  C45      1.0000 0.88867  0.11133  0.31155  Biso   1.000  C
  C46      1.0000 0.11067  0.55533  0.35511  Biso   1.000  C
  C47      1.0000 0.44467  0.88933  0.35511  Biso   1.000  C
  C48      1.0000 0.44467  0.55533  0.35511  Biso   1.000  C
  C49      1.0000 0.55533  0.11067  0.64489  Biso   1.000  C
  C50      1.0000 0.88933  0.44467  0.64489  Biso   1.000  C
  C51      1.0000 0.55533  0.44467  0.64489  Biso   1.000  C
  C52      1.0000 0.77733  0.88867  0.68845  Biso   1.000  C
  C53      1.0000 0.11133  0.22267  0.68845  Biso   1.000  C
  C54      1.0000 0.11133  0.88867  0.68845  Biso   1.000  C
  H1       1.0000 0.23120  0.46250  0.99540  Biso   1.000  H
  H2       1.0000 0.53750  0.76870  0.99540  Biso   1.000  H
  H3       1.0000 0.23130  0.76880  0.99540  Biso   1.000  H
  H4       1.0000 0.46250  0.23120  0.00460  Biso   1.000  H
  H5       1.0000 0.76870  0.53750  0.00460  Biso   1.000  H
  H6       1.0000 0.76880  0.23130  0.00460  Biso   1.000  H
  H7       1.0000 0.89787  0.79583  0.32873  Biso   1.000  H
  H8       1.0000 0.20417  0.10203  0.32873  Biso   1.000  H
  H9       1.0000 0.89797  0.10213  0.32873  Biso   1.000  H
  H10      1.0000 0.12917  0.56453  0.33793  Biso   1.000  H
  H11      1.0000 0.43537  0.87083  0.33793  Biso   1.000  H
  H12      1.0000 0.43547  0.56463  0.33793  Biso   1.000  H
  H13      1.0000 0.56453  0.12917  0.66207  Biso   1.000  H
  H14      1.0000 0.87083  0.43537  0.66207  Biso   1.000  H
  H15      1.0000 0.56463  0.43547  0.66207  Biso   1.000  H
  H16      1.0000 0.79583  0.89787  0.67127  Biso   1.000  H
  H17      1.0000 0.10203  0.20417  0.67127  Biso   1.000  H
  H18      1.0000 0.10213  0.89797  0.67127  Biso   1.000  H
  C55      1.0000 0.15030  0.43060  0.96577  Biso   1.000  C
  C56      1.0000 0.56940  0.71970  0.96577  Biso   1.000  C
  C57      1.0000 0.28030  0.84970  0.96577  Biso   1.000  C
  C58      1.0000 0.43060  0.15030  0.03423  Biso   1.000  C
  C59      1.0000 0.71970  0.56940  0.03423  Biso   1.000  C
  C60      1.0000 0.84970  0.28030  0.03423  Biso   1.000  C
  C61      1.0000 0.81697  0.76393  0.29910  Biso   1.000  C
  C62      1.0000 0.23607  0.05303  0.29910  Biso   1.000  C
  C63      1.0000 0.94697  0.18303  0.29910  Biso   1.000  C
  C64      1.0000 0.09727  0.48363  0.36756  Biso   1.000  C
  C65      1.0000 0.38637  0.90273  0.36756  Biso   1.000  C
  C66      1.0000 0.51637  0.61363  0.36756  Biso   1.000  C
  C67      1.0000 0.48363  0.09727  0.63244  Biso   1.000  C
  C68      1.0000 0.90273  0.38637  0.63244  Biso   1.000  C
  C69      1.0000 0.61363  0.51637  0.63244  Biso   1.000  C
  C70      1.0000 0.76393  0.81697  0.70090  Biso   1.000  C
  C71      1.0000 0.05303  0.23607  0.70090  Biso   1.000  C
  C72      1.0000 0.18303  0.94697  0.70090  Biso   1.000  C
  C73      1.0000 0.84970  0.56940  0.03423  Biso   1.000  C
  C74      1.0000 0.43060  0.28030  0.03423  Biso   1.000  C
  C75      1.0000 0.71970  0.15030  0.03423  Biso   1.000  C
  C76      1.0000 0.56940  0.84970  0.96577  Biso   1.000  C
  C77      1.0000 0.28030  0.43060  0.96577  Biso   1.000  C
  C78      1.0000 0.15030  0.71970  0.96577  Biso   1.000  C
  C79      1.0000 0.51637  0.90273  0.36756  Biso   1.000  C
  C80      1.0000 0.09727  0.61363  0.36756  Biso   1.000  C
  C81      1.0000 0.38637  0.48363  0.36756  Biso   1.000  C
  C82      1.0000 0.23607  0.18303  0.29910  Biso   1.000  C
  C83      1.0000 0.94697  0.76393  0.29910  Biso   1.000  C
  C84      1.0000 0.81697  0.05303  0.29910  Biso   1.000  C
  C85      1.0000 0.18303  0.23607  0.70090  Biso   1.000  C
  C86      1.0000 0.76393  0.94697  0.70090  Biso   1.000  C
  C87      1.0000 0.05303  0.81697  0.70090  Biso   1.000  C
  C88      1.0000 0.90273  0.51637  0.63244  Biso   1.000  C
  C89      1.0000 0.61363  0.09727  0.63244  Biso   1.000  C
  C90      1.0000 0.48363  0.38637  0.63244  Biso   1.000  C
  C91      1.0000 0.13750  0.40600  0.94042  Biso   1.000  C
  C92      1.0000 0.59400  0.73150  0.94042  Biso   1.000  C
  C93      1.0000 0.26850  0.86250  0.94042  Biso   1.000  C
  C94      1.0000 0.40600  0.13750  0.05958  Biso   1.000  C
  C95      1.0000 0.73150  0.59400  0.05958  Biso   1.000  C
  C96      1.0000 0.86250  0.26850  0.05958  Biso   1.000  C
  C97      1.0000 0.80417  0.73933  0.27375  Biso   1.000  C
  C98      1.0000 0.26067  0.06483  0.27375  Biso   1.000  C
  C99      1.0000 0.93517  0.19583  0.27375  Biso   1.000  C
  C100     1.0000 0.07267  0.47083  0.39291  Biso   1.000  C
  C101     1.0000 0.39817  0.92733  0.39291  Biso   1.000  C
  C102     1.0000 0.52917  0.60183  0.39291  Biso   1.000  C
  C103     1.0000 0.47083  0.07267  0.60709  Biso   1.000  C
  C104     1.0000 0.92733  0.39817  0.60709  Biso   1.000  C
  C105     1.0000 0.60183  0.52917  0.60709  Biso   1.000  C
  C106     1.0000 0.73933  0.80417  0.72625  Biso   1.000  C
  C107     1.0000 0.06483  0.26067  0.72625  Biso   1.000  C
  C108     1.0000 0.19583  0.93517  0.72625  Biso   1.000  C
  C109     1.0000 0.86250  0.59400  0.05958  Biso   1.000  C
  C110     1.0000 0.40600  0.26850  0.05958  Biso   1.000  C
  C111     1.0000 0.73150  0.13750  0.05958  Biso   1.000  C
  C112     1.0000 0.59400  0.86250  0.94042  Biso   1.000  C
  C113     1.0000 0.26850  0.40600  0.94042  Biso   1.000  C
  C114     1.0000 0.13750  0.73150  0.94042  Biso   1.000  C
  C115     1.0000 0.52917  0.92733  0.39291  Biso   1.000  C
  C116     1.0000 0.07267  0.60183  0.39291  Biso   1.000  C
  C117     1.0000 0.39817  0.47083  0.39291  Biso   1.000  C
  C118     1.0000 0.26067  0.19583  0.27375  Biso   1.000  C
  C119     1.0000 0.93517  0.73933  0.27375  Biso   1.000  C
  C120     1.0000 0.80417  0.06483  0.27375  Biso   1.000  C
  C121     1.0000 0.19583  0.26067  0.72625  Biso   1.000  C
  C122     1.0000 0.73933  0.93517  0.72625  Biso   1.000  C
  C123     1.0000 0.06483  0.80417  0.72625  Biso   1.000  C
  C124     1.0000 0.92733  0.52917  0.60709  Biso   1.000  C
  C125     1.0000 0.60183  0.07267  0.60709  Biso   1.000  C
  C126     1.0000 0.47083  0.39817  0.60709  Biso   1.000  C
  H19      1.0000 0.08770  0.39650  0.93200  Biso   1.000  H
  H20      1.0000 0.60350  0.69120  0.93200  Biso   1.000  H
  H21      1.0000 0.30880  0.91230  0.93200  Biso   1.000  H
  H22      1.0000 0.39650  0.08770  0.06800  Biso   1.000  H
  H23      1.0000 0.69120  0.60350  0.06800  Biso   1.000  H
  H24      1.0000 0.91230  0.30880  0.06800  Biso   1.000  H
  H25      1.0000 0.75437  0.72983  0.26533  Biso   1.000  H
  H26      1.0000 0.27017  0.02453  0.26533  Biso   1.000  H
  H27      1.0000 0.97547  0.24563  0.26533  Biso   1.000  H
  H28      1.0000 0.06317  0.42103  0.40133  Biso   1.000  H
  H29      1.0000 0.35787  0.93683  0.40133  Biso   1.000  H
  H30      1.0000 0.57897  0.64213  0.40133  Biso   1.000  H
  H31      1.0000 0.42103  0.06317  0.59867  Biso   1.000  H
  H32      1.0000 0.93683  0.35787  0.59867  Biso   1.000  H
  H33      1.0000 0.64213  0.57897  0.59867  Biso   1.000  H
  H34      1.0000 0.72983  0.75437  0.73467  Biso   1.000  H
  H35      1.0000 0.02453  0.27017  0.73467  Biso   1.000  H
  H36      1.0000 0.24563  0.97547  0.73467  Biso   1.000  H
  H37      1.0000 0.91230  0.60350  0.06800  Biso   1.000  H
  H38      1.0000 0.39650  0.30880  0.06800  Biso   1.000  H
  H39      1.0000 0.69120  0.08770  0.06800  Biso   1.000  H
  H40      1.0000 0.60350  0.91230  0.93200  Biso   1.000  H
  H41      1.0000 0.30880  0.39650  0.93200  Biso   1.000  H
  H42      1.0000 0.08770  0.69120  0.93200  Biso   1.000  H
  H43      1.0000 0.57897  0.93683  0.40133  Biso   1.000  H
  H44      1.0000 0.06317  0.64213  0.40133  Biso   1.000  H
  H45      1.0000 0.35787  0.42103  0.40133  Biso   1.000  H
  H46      1.0000 0.27017  0.24563  0.26533  Biso   1.000  H
  H47      1.0000 0.97547  0.72983  0.26533  Biso   1.000  H
  H48      1.0000 0.75437  0.02453  0.26533  Biso   1.000  H
  H49      1.0000 0.24563  0.27017  0.73467  Biso   1.000  H
  H50      1.0000 0.72983  0.97547  0.73467  Biso   1.000  H
  H51      1.0000 0.02453  0.75437  0.73467  Biso   1.000  H
  H52      1.0000 0.93683  0.57897  0.59867  Biso   1.000  H
  H53      1.0000 0.64213  0.06317  0.59867  Biso   1.000  H
  H54      1.0000 0.42103  0.35787  0.59867  Biso   1.000  H
  C127     1.0000 0.19750  0.39500  0.92716  Biso   1.000  C
  C128     1.0000 0.60500  0.80250  0.92716  Biso   1.000  C
  C129     1.0000 0.19750  0.80250  0.92716  Biso   1.000  C
  C130     1.0000 0.39500  0.19750  0.07284  Biso   1.000  C
  C131     1.0000 0.80250  0.60500  0.07284  Biso   1.000  C
  C132     1.0000 0.80250  0.19750  0.07284  Biso   1.000  C
  C133     1.0000 0.86417  0.72833  0.26049  Biso   1.000  C
  C134     1.0000 0.27167  0.13583  0.26049  Biso   1.000  C
  C135     1.0000 0.86417  0.13583  0.26049  Biso   1.000  C
  C136     1.0000 0.06167  0.53083  0.40617  Biso   1.000  C
  C137     1.0000 0.46917  0.93833  0.40617  Biso   1.000  C
  C138     1.0000 0.46917  0.53083  0.40617  Biso   1.000  C
  C139     1.0000 0.53083  0.06167  0.59383  Biso   1.000  C
  C140     1.0000 0.93833  0.46917  0.59383  Biso   1.000  C
  C141     1.0000 0.53083  0.46917  0.59383  Biso   1.000  C
  C142     1.0000 0.72833  0.86417  0.73951  Biso   1.000  C
  C143     1.0000 0.13583  0.27167  0.73951  Biso   1.000  C
  C144     1.0000 0.13583  0.86417  0.73951  Biso   1.000  C
  C145     1.0000 0.12680  0.38020  0.88508  Biso   1.000  C
  C146     1.0000 0.61980  0.74660  0.88508  Biso   1.000  C
  C147     1.0000 0.25340  0.87320  0.88508  Biso   1.000  C
  C148     1.0000 0.38020  0.12680  0.11492  Biso   1.000  C
  C149     1.0000 0.74660  0.61980  0.11492  Biso   1.000  C
  C150     1.0000 0.87320  0.25340  0.11492  Biso   1.000  C
  C151     1.0000 0.79347  0.71353  0.21841  Biso   1.000  C
  C152     1.0000 0.28647  0.07993  0.21841  Biso   1.000  C
  C153     1.0000 0.92007  0.20653  0.21841  Biso   1.000  C
  C154     1.0000 0.04687  0.46013  0.44825  Biso   1.000  C
  C155     1.0000 0.41327  0.95313  0.44825  Biso   1.000  C
  C156     1.0000 0.53987  0.58673  0.44825  Biso   1.000  C
  C157     1.0000 0.46013  0.04687  0.55175  Biso   1.000  C
  C158     1.0000 0.95313  0.41327  0.55175  Biso   1.000  C
  C159     1.0000 0.58673  0.53987  0.55175  Biso   1.000  C
  C160     1.0000 0.71353  0.79347  0.78159  Biso   1.000  C
  C161     1.0000 0.07993  0.28647  0.78159  Biso   1.000  C
  C162     1.0000 0.20653  0.92007  0.78159  Biso   1.000  C
  C163     1.0000 0.87320  0.61980  0.11492  Biso   1.000  C
  C164     1.0000 0.38020  0.25340  0.11492  Biso   1.000  C
  C165     1.0000 0.74660  0.12680  0.11492  Biso   1.000  C
  C166     1.0000 0.61980  0.87320  0.88508  Biso   1.000  C
  C167     1.0000 0.25340  0.38020  0.88508  Biso   1.000  C
  C168     1.0000 0.12680  0.74660  0.88508  Biso   1.000  C
  C169     1.0000 0.53987  0.95313  0.44825  Biso   1.000  C
  C170     1.0000 0.04687  0.58673  0.44825  Biso   1.000  C
  C171     1.0000 0.41327  0.46013  0.44825  Biso   1.000  C
  C172     1.0000 0.28647  0.20653  0.21841  Biso   1.000  C
  C173     1.0000 0.92007  0.71353  0.21841  Biso   1.000  C
  C174     1.0000 0.79347  0.07993  0.21841  Biso   1.000  C
  C175     1.0000 0.20653  0.28647  0.78159  Biso   1.000  C
  C176     1.0000 0.71353  0.92007  0.78159  Biso   1.000  C
  C177     1.0000 0.07993  0.79347  0.78159  Biso   1.000  C
  C178     1.0000 0.95313  0.53987  0.55175  Biso   1.000  C
  C179     1.0000 0.58673  0.04687  0.55175  Biso   1.000  C
  C180     1.0000 0.46013  0.41327  0.55175  Biso   1.000  C
  H55      1.0000 0.10470  0.41360  0.89210  Biso   1.000  H
  H56      1.0000 0.58640  0.69110  0.89210  Biso   1.000  H
  H57      1.0000 0.30890  0.89530  0.89210  Biso   1.000  H
  H58      1.0000 0.41360  0.10470  0.10790  Biso   1.000  H
  H59      1.0000 0.69110  0.58640  0.10790  Biso   1.000  H
  H60      1.0000 0.89530  0.30890  0.10790  Biso   1.000  H
  H61      1.0000 0.77137  0.74693  0.22543  Biso   1.000  H
  H62      1.0000 0.25307  0.02443  0.22543  Biso   1.000  H
  H63      1.0000 0.97557  0.22863  0.22543  Biso   1.000  H
  H64      1.0000 0.08027  0.43803  0.44123  Biso   1.000  H
  H65      1.0000 0.35777  0.91973  0.44123  Biso   1.000  H
  H66      1.0000 0.56197  0.64223  0.44123  Biso   1.000  H
  H67      1.0000 0.43803  0.08027  0.55877  Biso   1.000  H
  H68      1.0000 0.91973  0.35777  0.55877  Biso   1.000  H
  H69      1.0000 0.64223  0.56197  0.55877  Biso   1.000  H
  H70      1.0000 0.74693  0.77137  0.77457  Biso   1.000  H
  H71      1.0000 0.02443  0.25307  0.77457  Biso   1.000  H
  H72      1.0000 0.22863  0.97557  0.77457  Biso   1.000  H
  H73      1.0000 0.89530  0.58640  0.10790  Biso   1.000  H
  H74      1.0000 0.41360  0.30890  0.10790  Biso   1.000  H
  H75      1.0000 0.69110  0.10470  0.10790  Biso   1.000  H
  H76      1.0000 0.58640  0.89530  0.89210  Biso   1.000  H
  H77      1.0000 0.30890  0.41360  0.89210  Biso   1.000  H
  H78      1.0000 0.10470  0.69110  0.89210  Biso   1.000  H
  H79      1.0000 0.56197  0.91973  0.44123  Biso   1.000  H
  H80      1.0000 0.08027  0.64223  0.44123  Biso   1.000  H
  H81      1.0000 0.35777  0.43803  0.44123  Biso   1.000  H
  H82      1.0000 0.25307  0.22863  0.22543  Biso   1.000  H
  H83      1.0000 0.97557  0.74693  0.22543  Biso   1.000  H
  H84      1.0000 0.77137  0.02443  0.22543  Biso   1.000  H
  H85      1.0000 0.22863  0.25307  0.77457  Biso   1.000  H
  H86      1.0000 0.74693  0.97557  0.77457  Biso   1.000  H
  H87      1.0000 0.02443  0.77137  0.77457  Biso   1.000  H
  H88      1.0000 0.91973  0.56197  0.55877  Biso   1.000  H
  H89      1.0000 0.64223  0.08027  0.55877  Biso   1.000  H
  H90      1.0000 0.43803  0.35777  0.55877  Biso   1.000  H
  C181     1.0000 0.16600  0.34940  0.90085  Biso   1.000  C
  C182     1.0000 0.65060  0.81660  0.90085  Biso   1.000  C
  C183     1.0000 0.18340  0.83400  0.90085  Biso   1.000  C
  C184     1.0000 0.34940  0.16600  0.09915  Biso   1.000  C
  C185     1.0000 0.81660  0.65060  0.09915  Biso   1.000  C
  C186     1.0000 0.83400  0.18340  0.09915  Biso   1.000  C
  C187     1.0000 0.83267  0.68273  0.23418  Biso   1.000  C
  C188     1.0000 0.31727  0.14993  0.23418  Biso   1.000  C
  C189     1.0000 0.85007  0.16733  0.23418  Biso   1.000  C
  C190     1.0000 0.01607  0.49933  0.43248  Biso   1.000  C
  C191     1.0000 0.48327  0.98393  0.43248  Biso   1.000  C
  C192     1.0000 0.50067  0.51673  0.43248  Biso   1.000  C
  C193     1.0000 0.49933  0.01607  0.56752  Biso   1.000  C
  C194     1.0000 0.98393  0.48327  0.56752  Biso   1.000  C
  C195     1.0000 0.51673  0.50067  0.56752  Biso   1.000  C
  C196     1.0000 0.68273  0.83267  0.76582  Biso   1.000  C
  C197     1.0000 0.14993  0.31727  0.76582  Biso   1.000  C
  C198     1.0000 0.16733  0.85007  0.76582  Biso   1.000  C
  C199     1.0000 0.83400  0.65060  0.09915  Biso   1.000  C
  C200     1.0000 0.34940  0.18340  0.09915  Biso   1.000  C
  C201     1.0000 0.81660  0.16600  0.09915  Biso   1.000  C
  C202     1.0000 0.65060  0.83400  0.90085  Biso   1.000  C
  C203     1.0000 0.18340  0.34940  0.90085  Biso   1.000  C
  C204     1.0000 0.16600  0.81660  0.90085  Biso   1.000  C
  C205     1.0000 0.50067  0.98393  0.43248  Biso   1.000  C
  C206     1.0000 0.01607  0.51673  0.43248  Biso   1.000  C
  C207     1.0000 0.48327  0.49933  0.43248  Biso   1.000  C
  C208     1.0000 0.31727  0.16733  0.23418  Biso   1.000  C
  C209     1.0000 0.85007  0.68273  0.23418  Biso   1.000  C
  C210     1.0000 0.83267  0.14993  0.23418  Biso   1.000  C
  C211     1.0000 0.16733  0.31727  0.76582  Biso   1.000  C
  C212     1.0000 0.68273  0.85007  0.76582  Biso   1.000  C
  C213     1.0000 0.14993  0.83267  0.76582  Biso   1.000  C
  C214     1.0000 0.98393  0.50067  0.56752  Biso   1.000  C
  C215     1.0000 0.51673  0.01607  0.56752  Biso   1.000  C
  C216     1.0000 0.49933  0.48327  0.56752  Biso   1.000  C
  C217     1.0000 0.19790  0.30110  0.89073  Biso   1.000  C
  C218     1.0000 0.69890  0.89680  0.89073  Biso   1.000  C
  C219     1.0000 0.10320  0.80210  0.89073  Biso   1.000  C
  C220     1.0000 0.30110  0.19790  0.10927  Biso   1.000  C
  C221     1.0000 0.89680  0.69890  0.10927  Biso   1.000  C
  C222     1.0000 0.80210  0.10320  0.10927  Biso   1.000  C
  C223     1.0000 0.86457  0.63443  0.22406  Biso   1.000  C
  C224     1.0000 0.36557  0.23013  0.22406  Biso   1.000  C
  C225     1.0000 0.76987  0.13543  0.22406  Biso   1.000  C
  C226     1.0000 0.96777  0.53123  0.44260  Biso   1.000  C
  C227     1.0000 0.56347  0.03223  0.44260  Biso   1.000  C
  C228     1.0000 0.46877  0.43653  0.44260  Biso   1.000  C
  C229     1.0000 0.53123  0.96777  0.55740  Biso   1.000  C
  C230     1.0000 0.03223  0.56347  0.55740  Biso   1.000  C
  C231     1.0000 0.43653  0.46877  0.55740  Biso   1.000  C
  C232     1.0000 0.63443  0.86457  0.77594  Biso   1.000  C
  C233     1.0000 0.23013  0.36557  0.77594  Biso   1.000  C
  C234     1.0000 0.13543  0.76987  0.77594  Biso   1.000  C
  C235     1.0000 0.80210  0.69890  0.10927  Biso   1.000  C
  C236     1.0000 0.30110  0.10320  0.10927  Biso   1.000  C
  C237     1.0000 0.89680  0.19790  0.10927  Biso   1.000  C
  C238     1.0000 0.69890  0.80210  0.89073  Biso   1.000  C
  C239     1.0000 0.10320  0.30110  0.89073  Biso   1.000  C
  C240     1.0000 0.19790  0.89680  0.89073  Biso   1.000  C
  C241     1.0000 0.46877  0.03223  0.44260  Biso   1.000  C
  C242     1.0000 0.96777  0.43653  0.44260  Biso   1.000  C
  C243     1.0000 0.56347  0.53123  0.44260  Biso   1.000  C
  C244     1.0000 0.36557  0.13543  0.22406  Biso   1.000  C
  C245     1.0000 0.76987  0.63443  0.22406  Biso   1.000  C
  C246     1.0000 0.86457  0.23013  0.22406  Biso   1.000  C
  C247     1.0000 0.13543  0.36557  0.77594  Biso   1.000  C
  C248     1.0000 0.63443  0.76987  0.77594  Biso   1.000  C
  C249     1.0000 0.23013  0.86457  0.77594  Biso   1.000  C
  C250     1.0000 0.03223  0.46877  0.55740  Biso   1.000  C
  C251     1.0000 0.43653  0.96777  0.55740  Biso   1.000  C
  C252     1.0000 0.53123  0.56347  0.55740  Biso   1.000  C
  H91      1.0000 0.22500  0.27980  0.90160  Biso   1.000  H
  H92      1.0000 0.72020  0.94520  0.90160  Biso   1.000  H
  H93      1.0000 0.05480  0.77500  0.90160  Biso   1.000  H
  H94      1.0000 0.27980  0.22500  0.09840  Biso   1.000  H
  H95      1.0000 0.94520  0.72020  0.09840  Biso   1.000  H
  H96      1.0000 0.77500  0.05480  0.09840  Biso   1.000  H
  H97      1.0000 0.89167  0.61313  0.23493  Biso   1.000  H
  H98      1.0000 0.38687  0.27853  0.23493  Biso   1.000  H
  H99      1.0000 0.72147  0.10833  0.23493  Biso   1.000  H
  H100     1.0000 0.94647  0.55833  0.43173  Biso   1.000  H
  H101     1.0000 0.61187  0.05353  0.43173  Biso   1.000  H
  H102     1.0000 0.44167  0.38813  0.43173  Biso   1.000  H
  H103     1.0000 0.55833  0.94647  0.56827  Biso   1.000  H
  H104     1.0000 0.05353  0.61187  0.56827  Biso   1.000  H
  H105     1.0000 0.38813  0.44167  0.56827  Biso   1.000  H
  H106     1.0000 0.61313  0.89167  0.76507  Biso   1.000  H
  H107     1.0000 0.27853  0.38687  0.76507  Biso   1.000  H
  H108     1.0000 0.10833  0.72147  0.76507  Biso   1.000  H
  H109     1.0000 0.77500  0.72020  0.09840  Biso   1.000  H
  H110     1.0000 0.27980  0.05480  0.09840  Biso   1.000  H
  H111     1.0000 0.94520  0.22500  0.09840  Biso   1.000  H
  H112     1.0000 0.72020  0.77500  0.90160  Biso   1.000  H
  H113     1.0000 0.05480  0.27980  0.90160  Biso   1.000  H
  H114     1.0000 0.22500  0.94520  0.90160  Biso   1.000  H
  H115     1.0000 0.44167  0.05353  0.43173  Biso   1.000  H
  H116     1.0000 0.94647  0.38813  0.43173  Biso   1.000  H
  H117     1.0000 0.61187  0.55833  0.43173  Biso   1.000  H
  H118     1.0000 0.38687  0.10833  0.23493  Biso   1.000  H
  H119     1.0000 0.72147  0.61313  0.23493  Biso   1.000  H
  H120     1.0000 0.89167  0.27853  0.23493  Biso   1.000  H
  H121     1.0000 0.10833  0.38687  0.76507  Biso   1.000  H
  H122     1.0000 0.61313  0.72147  0.76507  Biso   1.000  H
  H123     1.0000 0.27853  0.89167  0.76507  Biso   1.000  H
  H124     1.0000 0.05353  0.44167  0.56827  Biso   1.000  H
  H125     1.0000 0.38813  0.94647  0.56827  Biso   1.000  H
  H126     1.0000 0.55833  0.61187  0.56827  Biso   1.000  H
  C253     1.0000 0.19070  0.28360  0.86484  Biso   1.000  C
  C254     1.0000 0.71640  0.90710  0.86484  Biso   1.000  C
  C255     1.0000 0.09290  0.80930  0.86484  Biso   1.000  C
  C256     1.0000 0.28360  0.19070  0.13516  Biso   1.000  C
  C257     1.0000 0.90710  0.71640  0.13516  Biso   1.000  C
  C258     1.0000 0.80930  0.09290  0.13516  Biso   1.000  C
  C259     1.0000 0.85737  0.61693  0.19817  Biso   1.000  C
  C260     1.0000 0.38307  0.24043  0.19817  Biso   1.000  C
  C261     1.0000 0.75957  0.14263  0.19817  Biso   1.000  C
  C262     1.0000 0.95027  0.52403  0.46849  Biso   1.000  C
  C263     1.0000 0.57377  0.04973  0.46849  Biso   1.000  C
  C264     1.0000 0.47597  0.42623  0.46849  Biso   1.000  C
  C265     1.0000 0.52403  0.95027  0.53151  Biso   1.000  C
  C266     1.0000 0.04973  0.57377  0.53151  Biso   1.000  C
  C267     1.0000 0.42623  0.47597  0.53151  Biso   1.000  C
  C268     1.0000 0.61693  0.85737  0.80183  Biso   1.000  C
  C269     1.0000 0.24043  0.38307  0.80183  Biso   1.000  C
  C270     1.0000 0.14263  0.75957  0.80183  Biso   1.000  C
  C271     1.0000 0.80930  0.71640  0.13516  Biso   1.000  C
  C272     1.0000 0.28360  0.09290  0.13516  Biso   1.000  C
  C273     1.0000 0.90710  0.19070  0.13516  Biso   1.000  C
  C274     1.0000 0.71640  0.80930  0.86484  Biso   1.000  C
  C275     1.0000 0.09290  0.28360  0.86484  Biso   1.000  C
  C276     1.0000 0.19070  0.90710  0.86484  Biso   1.000  C
  C277     1.0000 0.47597  0.04973  0.46849  Biso   1.000  C
  C278     1.0000 0.95027  0.42623  0.46849  Biso   1.000  C
  C279     1.0000 0.57377  0.52403  0.46849  Biso   1.000  C
  C280     1.0000 0.38307  0.14263  0.19817  Biso   1.000  C
  C281     1.0000 0.75957  0.61693  0.19817  Biso   1.000  C
  C282     1.0000 0.85737  0.24043  0.19817  Biso   1.000  C
  C283     1.0000 0.14263  0.38307  0.80183  Biso   1.000  C
  C284     1.0000 0.61693  0.75957  0.80183  Biso   1.000  C
  C285     1.0000 0.24043  0.85737  0.80183  Biso   1.000  C
  C286     1.0000 0.04973  0.47597  0.53151  Biso   1.000  C
  C287     1.0000 0.42623  0.95027  0.53151  Biso   1.000  C
  C288     1.0000 0.52403  0.57377  0.53151  Biso   1.000  C
  H127     1.0000 0.21280  0.25030  0.85790  Biso   1.000  H
  H128     1.0000 0.74970  0.96250  0.85790  Biso   1.000  H
  H129     1.0000 0.03750  0.78720  0.85790  Biso   1.000  H
  H130     1.0000 0.25030  0.21280  0.14210  Biso   1.000  H
  H131     1.0000 0.96250  0.74970  0.14210  Biso   1.000  H
  H132     1.0000 0.78720  0.03750  0.14210  Biso   1.000  H
  H133     1.0000 0.87947  0.58363  0.19123  Biso   1.000  H
  H134     1.0000 0.41637  0.29583  0.19123  Biso   1.000  H
  H135     1.0000 0.70417  0.12053  0.19123  Biso   1.000  H
  H136     1.0000 0.91697  0.54613  0.47543  Biso   1.000  H
  H137     1.0000 0.62917  0.08303  0.47543  Biso   1.000  H
  H138     1.0000 0.45387  0.37083  0.47543  Biso   1.000  H
  H139     1.0000 0.54613  0.91697  0.52457  Biso   1.000  H
  H140     1.0000 0.08303  0.62917  0.52457  Biso   1.000  H
  H141     1.0000 0.37083  0.45387  0.52457  Biso   1.000  H
  H142     1.0000 0.58363  0.87947  0.80877  Biso   1.000  H
  H143     1.0000 0.29583  0.41637  0.80877  Biso   1.000  H
  H144     1.0000 0.12053  0.70417  0.80877  Biso   1.000  H
  H145     1.0000 0.78720  0.74970  0.14210  Biso   1.000  H
  H146     1.0000 0.25030  0.03750  0.14210  Biso   1.000  H
  H147     1.0000 0.96250  0.21280  0.14210  Biso   1.000  H
  H148     1.0000 0.74970  0.78720  0.85790  Biso   1.000  H
  H149     1.0000 0.03750  0.25030  0.85790  Biso   1.000  H
  H150     1.0000 0.21280  0.96250  0.85790  Biso   1.000  H
  H151     1.0000 0.45387  0.08303  0.47543  Biso   1.000  H
  H152     1.0000 0.91697  0.37083  0.47543  Biso   1.000  H
  H153     1.0000 0.62917  0.54613  0.47543  Biso   1.000  H
  H154     1.0000 0.41637  0.12053  0.19123  Biso   1.000  H
  H155     1.0000 0.70417  0.58363  0.19123  Biso   1.000  H
  H156     1.0000 0.87947  0.29583  0.19123  Biso   1.000  H
  H157     1.0000 0.12053  0.41637  0.80877  Biso   1.000  H
  H158     1.0000 0.58363  0.70417  0.80877  Biso   1.000  H
  H159     1.0000 0.29583  0.87947  0.80877  Biso   1.000  H
  H160     1.0000 0.08303  0.45387  0.52457  Biso   1.000  H
  H161     1.0000 0.37083  0.91697  0.52457  Biso   1.000  H
  H162     1.0000 0.54613  0.62917  0.52457  Biso   1.000  H
  C289     1.0000 0.15150  0.31450  0.84907  Biso   1.000  C
  C290     1.0000 0.68550  0.83700  0.84907  Biso   1.000  C
  C291     1.0000 0.16300  0.84850  0.84907  Biso   1.000  C
  C292     1.0000 0.31450  0.15150  0.15093  Biso   1.000  C
  C293     1.0000 0.83700  0.68550  0.15093  Biso   1.000  C
  C294     1.0000 0.84850  0.16300  0.15093  Biso   1.000  C
  C295     1.0000 0.81817  0.64783  0.18240  Biso   1.000  C
  C296     1.0000 0.35217  0.17033  0.18240  Biso   1.000  C
  C297     1.0000 0.82967  0.18183  0.18240  Biso   1.000  C
  C298     1.0000 0.98117  0.48483  0.48426  Biso   1.000  C
  C299     1.0000 0.50367  0.01883  0.48426  Biso   1.000  C
  C300     1.0000 0.51517  0.49633  0.48426  Biso   1.000  C
  C301     1.0000 0.48483  0.98117  0.51574  Biso   1.000  C
  C302     1.0000 0.01883  0.50367  0.51574  Biso   1.000  C
  C303     1.0000 0.49633  0.51517  0.51574  Biso   1.000  C
  C304     1.0000 0.64783  0.81817  0.81760  Biso   1.000  C
  C305     1.0000 0.17033  0.35217  0.81760  Biso   1.000  C
  C306     1.0000 0.18183  0.82967  0.81760  Biso   1.000  C
  C307     1.0000 0.84850  0.68550  0.15093  Biso   1.000  C
  C308     1.0000 0.31450  0.16300  0.15093  Biso   1.000  C
  C309     1.0000 0.83700  0.15150  0.15093  Biso   1.000  C
  C310     1.0000 0.68550  0.84850  0.84907  Biso   1.000  C
  C311     1.0000 0.16300  0.31450  0.84907  Biso   1.000  C
  C312     1.0000 0.15150  0.83700  0.84907  Biso   1.000  C
  C313     1.0000 0.51517  0.01883  0.48426  Biso   1.000  C
  C314     1.0000 0.98117  0.49633  0.48426  Biso   1.000  C
  C315     1.0000 0.50367  0.48483  0.48426  Biso   1.000  C
  C316     1.0000 0.35217  0.18183  0.18240  Biso   1.000  C
  C317     1.0000 0.82967  0.64783  0.18240  Biso   1.000  C
  C318     1.0000 0.81817  0.17033  0.18240  Biso   1.000  C
  C319     1.0000 0.18183  0.35217  0.81760  Biso   1.000  C
  C320     1.0000 0.64783  0.82967  0.81760  Biso   1.000  C
  C321     1.0000 0.17033  0.81817  0.81760  Biso   1.000  C
  C322     1.0000 0.01883  0.51517  0.51574  Biso   1.000  C
  C323     1.0000 0.49633  0.98117  0.51574  Biso   1.000  C
  C324     1.0000 0.48483  0.50367  0.51574  Biso   1.000  C
  C325     1.0000 0.11950  0.36280  0.85919  Biso   1.000  C
  C326     1.0000 0.63720  0.75670  0.85919  Biso   1.000  C
  C327     1.0000 0.24330  0.88050  0.85919  Biso   1.000  C
  C328     1.0000 0.36280  0.11950  0.14081  Biso   1.000  C
  C329     1.0000 0.75670  0.63720  0.14081  Biso   1.000  C
  C330     1.0000 0.88050  0.24330  0.14081  Biso   1.000  C
  C331     1.0000 0.78617  0.69613  0.19252  Biso   1.000  C
  C332     1.0000 0.30387  0.09003  0.19252  Biso   1.000  C
  C333     1.0000 0.90997  0.21383  0.19252  Biso   1.000  C
  C334     1.0000 0.02947  0.45283  0.47414  Biso   1.000  C
  C335     1.0000 0.42337  0.97053  0.47414  Biso   1.000  C
  C336     1.0000 0.54717  0.57663  0.47414  Biso   1.000  C
  C337     1.0000 0.45283  0.02947  0.52586  Biso   1.000  C
  C338     1.0000 0.97053  0.42337  0.52586  Biso   1.000  C
  C339     1.0000 0.57663  0.54717  0.52586  Biso   1.000  C
  C340     1.0000 0.69613  0.78617  0.80748  Biso   1.000  C
  C341     1.0000 0.09003  0.30387  0.80748  Biso   1.000  C
  C342     1.0000 0.21383  0.90997  0.80748  Biso   1.000  C
  C343     1.0000 0.88050  0.63720  0.14081  Biso   1.000  C
  C344     1.0000 0.36280  0.24330  0.14081  Biso   1.000  C
  C345     1.0000 0.75670  0.11950  0.14081  Biso   1.000  C
  C346     1.0000 0.63720  0.88050  0.85919  Biso   1.000  C
  C347     1.0000 0.24330  0.36280  0.85919  Biso   1.000  C
  C348     1.0000 0.11950  0.75670  0.85919  Biso   1.000  C
  C349     1.0000 0.54717  0.97053  0.47414  Biso   1.000  C
  C350     1.0000 0.02947  0.57663  0.47414  Biso   1.000  C
  C351     1.0000 0.42337  0.45283  0.47414  Biso   1.000  C
  C352     1.0000 0.30387  0.21383  0.19252  Biso   1.000  C
  C353     1.0000 0.90997  0.69613  0.19252  Biso   1.000  C
  C354     1.0000 0.78617  0.09003  0.19252  Biso   1.000  C
  C355     1.0000 0.21383  0.30387  0.80748  Biso   1.000  C
  C356     1.0000 0.69613  0.90997  0.80748  Biso   1.000  C
  C357     1.0000 0.09003  0.78617  0.80748  Biso   1.000  C
  C358     1.0000 0.97053  0.54717  0.52586  Biso   1.000  C
  C359     1.0000 0.57663  0.02947  0.52586  Biso   1.000  C
  C360     1.0000 0.45283  0.42337  0.52586  Biso   1.000  C
  C361     1.0000 0.08030  0.39360  0.84342  Biso   1.000  C
  C362     1.0000 0.60640  0.68670  0.84342  Biso   1.000  C
  C363     1.0000 0.31330  0.91970  0.84342  Biso   1.000  C
  C364     1.0000 0.39360  0.08030  0.15658  Biso   1.000  C
  C365     1.0000 0.68670  0.60640  0.15658  Biso   1.000  C
  C366     1.0000 0.91970  0.31330  0.15658  Biso   1.000  C
  C367     1.0000 0.74697  0.72693  0.17675  Biso   1.000  C
  C368     1.0000 0.27307  0.02003  0.17675  Biso   1.000  C
  C369     1.0000 0.97997  0.25303  0.17675  Biso   1.000  C
  C370     1.0000 0.06027  0.41363  0.48991  Biso   1.000  C
  C371     1.0000 0.35337  0.93973  0.48991  Biso   1.000  C
  C372     1.0000 0.58637  0.64663  0.48991  Biso   1.000  C
  C373     1.0000 0.41363  0.06027  0.51009  Biso   1.000  C
  C374     1.0000 0.93973  0.35337  0.51009  Biso   1.000  C
  C375     1.0000 0.64663  0.58637  0.51009  Biso   1.000  C
  C376     1.0000 0.72693  0.74697  0.82325  Biso   1.000  C
  C377     1.0000 0.02003  0.27307  0.82325  Biso   1.000  C
  C378     1.0000 0.25303  0.97997  0.82325  Biso   1.000  C
  C379     1.0000 0.91970  0.60640  0.15658  Biso   1.000  C
  C380     1.0000 0.39360  0.31330  0.15658  Biso   1.000  C
  C381     1.0000 0.68670  0.08030  0.15658  Biso   1.000  C
  C382     1.0000 0.60640  0.91970  0.84342  Biso   1.000  C
  C383     1.0000 0.31330  0.39360  0.84342  Biso   1.000  C
  C384     1.0000 0.08030  0.68670  0.84342  Biso   1.000  C
  C385     1.0000 0.58637  0.93973  0.48991  Biso   1.000  C
  C386     1.0000 0.06027  0.64663  0.48991  Biso   1.000  C
  C387     1.0000 0.35337  0.41363  0.48991  Biso   1.000  C
  C388     1.0000 0.27307  0.25303  0.17675  Biso   1.000  C
  C389     1.0000 0.97997  0.72693  0.17675  Biso   1.000  C
  C390     1.0000 0.74697  0.02003  0.17675  Biso   1.000  C
  C391     1.0000 0.25303  0.27307  0.82325  Biso   1.000  C
  C392     1.0000 0.72693  0.97997  0.82325  Biso   1.000  C
  C393     1.0000 0.02003  0.74697  0.82325  Biso   1.000  C
  C394     1.0000 0.93973  0.58637  0.51009  Biso   1.000  C
  C395     1.0000 0.64663  0.06027  0.51009  Biso   1.000  C
  C396     1.0000 0.41363  0.35337  0.51009  Biso   1.000  C
  C397     1.0000 0.26040  0.29050  0.84910  Biso   1.000  C
  C398     1.0000 0.70950  0.96990  0.84910  Biso   1.000  C
  C399     1.0000 0.03010  0.73960  0.84910  Biso   1.000  C
  C400     1.0000 0.29050  0.26040  0.15090  Biso   1.000  C
  C401     1.0000 0.96990  0.70950  0.15090  Biso   1.000  C
  C402     1.0000 0.73960  0.03010  0.15090  Biso   1.000  C
  C403     1.0000 0.92707  0.62383  0.18243  Biso   1.000  C
  C404     1.0000 0.37617  0.30323  0.18243  Biso   1.000  C
  C405     1.0000 0.69677  0.07293  0.18243  Biso   1.000  C
  C406     1.0000 0.95717  0.59373  0.48423  Biso   1.000  C
  C407     1.0000 0.63657  0.04283  0.48423  Biso   1.000  C
  C408     1.0000 0.40627  0.36343  0.48423  Biso   1.000  C
  C409     1.0000 0.59373  0.95717  0.51577  Biso   1.000  C
  C410     1.0000 0.04283  0.63657  0.51577  Biso   1.000  C
  C411     1.0000 0.36343  0.40627  0.51577  Biso   1.000  C
  C412     1.0000 0.62383  0.92707  0.81757  Biso   1.000  C
  C413     1.0000 0.30323  0.37617  0.81757  Biso   1.000  C
  C414     1.0000 0.07293  0.69677  0.81757  Biso   1.000  C
  C415     1.0000 0.73960  0.70950  0.15090  Biso   1.000  C
  C416     1.0000 0.29050  0.03010  0.15090  Biso   1.000  C
  C417     1.0000 0.96990  0.26040  0.15090  Biso   1.000  C
  C418     1.0000 0.70950  0.73960  0.84910  Biso   1.000  C
  C419     1.0000 0.03010  0.29050  0.84910  Biso   1.000  C
  C420     1.0000 0.26040  0.96990  0.84910  Biso   1.000  C
  C421     1.0000 0.40627  0.04283  0.48423  Biso   1.000  C
  C422     1.0000 0.95717  0.36343  0.48423  Biso   1.000  C
  C423     1.0000 0.63657  0.59373  0.48423  Biso   1.000  C
  C424     1.0000 0.37617  0.07293  0.18243  Biso   1.000  C
  C425     1.0000 0.69677  0.62383  0.18243  Biso   1.000  C
  C426     1.0000 0.92707  0.30323  0.18243  Biso   1.000  C
  C427     1.0000 0.07293  0.37617  0.81757  Biso   1.000  C
  C428     1.0000 0.62383  0.69677  0.81757  Biso   1.000  C
  C429     1.0000 0.30323  0.92707  0.81757  Biso   1.000  C
  C430     1.0000 0.04283  0.40627  0.51577  Biso   1.000  C
  C431     1.0000 0.36343  0.95717  0.51577  Biso   1.000  C
  C432     1.0000 0.59373  0.63657  0.51577  Biso   1.000  C
  H163     1.0000 0.29710  0.27800  0.85880  Biso   1.000  H
  H164     1.0000 0.72200  0.01910  0.85880  Biso   1.000  H
  H165     1.0000 0.98090  0.70290  0.85880  Biso   1.000  H
  H166     1.0000 0.27800  0.29710  0.14120  Biso   1.000  H
  H167     1.0000 0.01910  0.72200  0.14120  Biso   1.000  H
  H168     1.0000 0.70290  0.98090  0.14120  Biso   1.000  H
  H169     1.0000 0.96377  0.61133  0.19213  Biso   1.000  H
  H170     1.0000 0.38867  0.35243  0.19213  Biso   1.000  H
  H171     1.0000 0.64757  0.03623  0.19213  Biso   1.000  H
  H172     1.0000 0.94467  0.63043  0.47453  Biso   1.000  H
  H173     1.0000 0.68577  0.05533  0.47453  Biso   1.000  H
  H174     1.0000 0.36957  0.31423  0.47453  Biso   1.000  H
  H175     1.0000 0.63043  0.94467  0.52547  Biso   1.000  H
  H176     1.0000 0.05533  0.68577  0.52547  Biso   1.000  H
  H177     1.0000 0.31423  0.36957  0.52547  Biso   1.000  H
  H178     1.0000 0.61133  0.96377  0.80787  Biso   1.000  H
  H179     1.0000 0.35243  0.38867  0.80787  Biso   1.000  H
  H180     1.0000 0.03623  0.64757  0.80787  Biso   1.000  H
  H181     1.0000 0.70290  0.72200  0.14120  Biso   1.000  H
  H182     1.0000 0.27800  0.98090  0.14120  Biso   1.000  H
  H183     1.0000 0.01910  0.29710  0.14120  Biso   1.000  H
  H184     1.0000 0.72200  0.70290  0.85880  Biso   1.000  H
  H185     1.0000 0.98090  0.27800  0.85880  Biso   1.000  H
  H186     1.0000 0.29710  0.01910  0.85880  Biso   1.000  H
  H187     1.0000 0.36957  0.05533  0.47453  Biso   1.000  H
  H188     1.0000 0.94467  0.31423  0.47453  Biso   1.000  H
  H189     1.0000 0.68577  0.63043  0.47453  Biso   1.000  H
  H190     1.0000 0.38867  0.03623  0.19213  Biso   1.000  H
  H191     1.0000 0.64757  0.61133  0.19213  Biso   1.000  H
  H192     1.0000 0.96377  0.35243  0.19213  Biso   1.000  H
  H193     1.0000 0.03623  0.38867  0.80787  Biso   1.000  H
  H194     1.0000 0.61133  0.64757  0.80787  Biso   1.000  H
  H195     1.0000 0.35243  0.96377  0.80787  Biso   1.000  H
  H196     1.0000 0.05533  0.36957  0.52547  Biso   1.000  H
  H197     1.0000 0.31423  0.94467  0.52547  Biso   1.000  H
  H198     1.0000 0.63043  0.68577  0.52547  Biso   1.000  H
  C433     1.0000 0.16020  0.42260  0.88277  Biso   1.000  C
  C434     1.0000 0.57740  0.73760  0.88277  Biso   1.000  C
  C435     1.0000 0.26240  0.83980  0.88277  Biso   1.000  C
  C436     1.0000 0.42260  0.16020  0.11723  Biso   1.000  C
  C437     1.0000 0.73760  0.57740  0.11723  Biso   1.000  C
  C438     1.0000 0.83980  0.26240  0.11723  Biso   1.000  C
  C439     1.0000 0.82687  0.75593  0.21610  Biso   1.000  C
  C440     1.0000 0.24407  0.07093  0.21610  Biso   1.000  C
  C441     1.0000 0.92907  0.17313  0.21610  Biso   1.000  C
  C442     1.0000 0.08927  0.49353  0.45056  Biso   1.000  C
  C443     1.0000 0.40427  0.91073  0.45056  Biso   1.000  C
  C444     1.0000 0.50647  0.59573  0.45056  Biso   1.000  C
  C445     1.0000 0.49353  0.08927  0.54944  Biso   1.000  C
  C446     1.0000 0.91073  0.40427  0.54944  Biso   1.000  C
  C447     1.0000 0.59573  0.50647  0.54944  Biso   1.000  C
  C448     1.0000 0.75593  0.82687  0.78390  Biso   1.000  C
  C449     1.0000 0.07093  0.24407  0.78390  Biso   1.000  C
  C450     1.0000 0.17313  0.92907  0.78390  Biso   1.000  C
  C451     1.0000 0.83980  0.57740  0.11723  Biso   1.000  C
  C452     1.0000 0.42260  0.26240  0.11723  Biso   1.000  C
  C453     1.0000 0.73760  0.16020  0.11723  Biso   1.000  C
  C454     1.0000 0.57740  0.83980  0.88277  Biso   1.000  C
  C455     1.0000 0.26240  0.42260  0.88277  Biso   1.000  C
  C456     1.0000 0.16020  0.73760  0.88277  Biso   1.000  C
  C457     1.0000 0.50647  0.91073  0.45056  Biso   1.000  C
  C458     1.0000 0.08927  0.59573  0.45056  Biso   1.000  C
  C459     1.0000 0.40427  0.49353  0.45056  Biso   1.000  C
  C460     1.0000 0.24407  0.17313  0.21610  Biso   1.000  C
  C461     1.0000 0.92907  0.75593  0.21610  Biso   1.000  C
  C462     1.0000 0.82687  0.07093  0.21610  Biso   1.000  C
  C463     1.0000 0.17313  0.24407  0.78390  Biso   1.000  C
  C464     1.0000 0.75593  0.92907  0.78390  Biso   1.000  C
  C465     1.0000 0.07093  0.82687  0.78390  Biso   1.000  C
  C466     1.0000 0.91073  0.50647  0.54944  Biso   1.000  C
  C467     1.0000 0.59573  0.08927  0.54944  Biso   1.000  C
  C468     1.0000 0.49353  0.40427  0.54944  Biso   1.000  C
  H199     1.0000 0.13800  0.45570  0.88990  Biso   1.000  H
  H200     1.0000 0.54430  0.68230  0.88990  Biso   1.000  H
  H201     1.0000 0.31770  0.86200  0.88990  Biso   1.000  H
  H202     1.0000 0.45570  0.13800  0.11010  Biso   1.000  H
  H203     1.0000 0.68230  0.54430  0.11010  Biso   1.000  H
  H204     1.0000 0.86200  0.31770  0.11010  Biso   1.000  H
  H205     1.0000 0.80467  0.78903  0.22323  Biso   1.000  H
  H206     1.0000 0.21097  0.01563  0.22323  Biso   1.000  H
  H207     1.0000 0.98437  0.19533  0.22323  Biso   1.000  H
  H208     1.0000 0.12237  0.47133  0.44343  Biso   1.000  H
  H209     1.0000 0.34897  0.87763  0.44343  Biso   1.000  H
  H210     1.0000 0.52867  0.65103  0.44343  Biso   1.000  H
  H211     1.0000 0.47133  0.12237  0.55657  Biso   1.000  H
  H212     1.0000 0.87763  0.34897  0.55657  Biso   1.000  H
  H213     1.0000 0.65103  0.52867  0.55657  Biso   1.000  H
  H214     1.0000 0.78903  0.80467  0.77677  Biso   1.000  H
  H215     1.0000 0.01563  0.21097  0.77677  Biso   1.000  H
  H216     1.0000 0.19533  0.98437  0.77677  Biso   1.000  H
  H217     1.0000 0.86200  0.54430  0.11010  Biso   1.000  H
  H218     1.0000 0.45570  0.31770  0.11010  Biso   1.000  H
  H219     1.0000 0.68230  0.13800  0.11010  Biso   1.000  H
  H220     1.0000 0.54430  0.86200  0.88990  Biso   1.000  H
  H221     1.0000 0.31770  0.45570  0.88990  Biso   1.000  H
  H222     1.0000 0.13800  0.68230  0.88990  Biso   1.000  H
  H223     1.0000 0.52867  0.87763  0.44343  Biso   1.000  H
  H224     1.0000 0.12237  0.65103  0.44343  Biso   1.000  H
  H225     1.0000 0.34897  0.47133  0.44343  Biso   1.000  H
  H226     1.0000 0.21097  0.19533  0.22323  Biso   1.000  H
  H227     1.0000 0.98437  0.78903  0.22323  Biso   1.000  H
  H228     1.0000 0.80467  0.01563  0.22323  Biso   1.000  H
  H229     1.0000 0.19533  0.21097  0.77677  Biso   1.000  H
  H230     1.0000 0.78903  0.98437  0.77677  Biso   1.000  H
  H231     1.0000 0.01563  0.80467  0.77677  Biso   1.000  H
  H232     1.0000 0.87763  0.52867  0.55657  Biso   1.000  H
  H233     1.0000 0.65103  0.12237  0.55657  Biso   1.000  H
  H234     1.0000 0.47133  0.34897  0.55657  Biso   1.000  H
  C469     1.0000 0.19750  0.39270  0.89817  Biso   1.000  C
  C470     1.0000 0.60730  0.80480  0.89817  Biso   1.000  C
  C471     1.0000 0.19520  0.80250  0.89817  Biso   1.000  C
  C472     1.0000 0.39270  0.19750  0.10183  Biso   1.000  C
  C473     1.0000 0.80480  0.60730  0.10183  Biso   1.000  C
  C474     1.0000 0.80250  0.19520  0.10183  Biso   1.000  C
  C475     1.0000 0.86417  0.72603  0.23150  Biso   1.000  C
  C476     1.0000 0.27397  0.13813  0.23150  Biso   1.000  C
  C477     1.0000 0.86187  0.13583  0.23150  Biso   1.000  C
  C478     1.0000 0.05937  0.53083  0.43516  Biso   1.000  C
  C479     1.0000 0.47147  0.94063  0.43516  Biso   1.000  C
  C480     1.0000 0.46917  0.52853  0.43516  Biso   1.000  C
  C481     1.0000 0.53083  0.05937  0.56484  Biso   1.000  C
  C482     1.0000 0.94063  0.47147  0.56484  Biso   1.000  C
  C483     1.0000 0.52853  0.46917  0.56484  Biso   1.000  C
  C484     1.0000 0.72603  0.86417  0.76850  Biso   1.000  C
  C485     1.0000 0.13813  0.27397  0.76850  Biso   1.000  C
  C486     1.0000 0.13583  0.86187  0.76850  Biso   1.000  C
  C487     1.0000 0.80250  0.60730  0.10183  Biso   1.000  C
  C488     1.0000 0.39270  0.19520  0.10183  Biso   1.000  C
  C489     1.0000 0.80480  0.19750  0.10183  Biso   1.000  C
  C490     1.0000 0.60730  0.80250  0.89817  Biso   1.000  C
  C491     1.0000 0.19520  0.39270  0.89817  Biso   1.000  C
  C492     1.0000 0.19750  0.80480  0.89817  Biso   1.000  C
  C493     1.0000 0.46917  0.94063  0.43516  Biso   1.000  C
  C494     1.0000 0.05937  0.52853  0.43516  Biso   1.000  C
  C495     1.0000 0.47147  0.53083  0.43516  Biso   1.000  C
  C496     1.0000 0.27397  0.13583  0.23150  Biso   1.000  C
  C497     1.0000 0.86187  0.72603  0.23150  Biso   1.000  C
  C498     1.0000 0.86417  0.13813  0.23150  Biso   1.000  C
  C499     1.0000 0.13583  0.27397  0.76850  Biso   1.000  C
  C500     1.0000 0.72603  0.86187  0.76850  Biso   1.000  C
  C501     1.0000 0.13813  0.86417  0.76850  Biso   1.000  C
  C502     1.0000 0.94063  0.46917  0.56484  Biso   1.000  C
  C503     1.0000 0.52853  0.05937  0.56484  Biso   1.000  C
  C504     1.0000 0.53083  0.47147  0.56484  Biso   1.000  C
  C505     1.0000 0.22740  0.33940  0.88757  Biso   1.000  C
  C506     1.0000 0.66060  0.88800  0.88757  Biso   1.000  C
  C507     1.0000 0.11200  0.77260  0.88757  Biso   1.000  C
  C508     1.0000 0.33940  0.22740  0.11243  Biso   1.000  C
  C509     1.0000 0.88800  0.66060  0.11243  Biso   1.000  C
  C510     1.0000 0.77260  0.11200  0.11243  Biso   1.000  C
  C511     1.0000 0.89407  0.67273  0.22090  Biso   1.000  C
  C512     1.0000 0.32727  0.22133  0.22090  Biso   1.000  C
  C513     1.0000 0.77867  0.10593  0.22090  Biso   1.000  C
  C514     1.0000 0.00607  0.56073  0.44576  Biso   1.000  C
  C515     1.0000 0.55467  0.99393  0.44576  Biso   1.000  C
  C516     1.0000 0.43927  0.44533  0.44576  Biso   1.000  C
  C517     1.0000 0.56073  0.00607  0.55424  Biso   1.000  C
  C518     1.0000 0.99393  0.55467  0.55424  Biso   1.000  C
  C519     1.0000 0.44533  0.43927  0.55424  Biso   1.000  C
  C520     1.0000 0.67273  0.89407  0.77910  Biso   1.000  C
  C521     1.0000 0.22133  0.32727  0.77910  Biso   1.000  C
  C522     1.0000 0.10593  0.77867  0.77910  Biso   1.000  C
  C523     1.0000 0.77260  0.66060  0.11243  Biso   1.000  C
  C524     1.0000 0.33940  0.11200  0.11243  Biso   1.000  C
  C525     1.0000 0.88800  0.22740  0.11243  Biso   1.000  C
  C526     1.0000 0.66060  0.77260  0.88757  Biso   1.000  C
  C527     1.0000 0.11200  0.33940  0.88757  Biso   1.000  C
  C528     1.0000 0.22740  0.88800  0.88757  Biso   1.000  C
  C529     1.0000 0.43927  0.99393  0.44576  Biso   1.000  C
  C530     1.0000 0.00607  0.44533  0.44576  Biso   1.000  C
  C531     1.0000 0.55467  0.56073  0.44576  Biso   1.000  C
  C532     1.0000 0.32727  0.10593  0.22090  Biso   1.000  C
  C533     1.0000 0.77867  0.67273  0.22090  Biso   1.000  C
  C534     1.0000 0.89407  0.22133  0.22090  Biso   1.000  C
  C535     1.0000 0.10593  0.32727  0.77910  Biso   1.000  C
  C536     1.0000 0.67273  0.77867  0.77910  Biso   1.000  C
  C537     1.0000 0.22133  0.89407  0.77910  Biso   1.000  C
  C538     1.0000 0.99393  0.43927  0.55424  Biso   1.000  C
  C539     1.0000 0.44533  0.00607  0.55424  Biso   1.000  C
  C540     1.0000 0.56073  0.55467  0.55424  Biso   1.000  C
  H235     1.0000 0.25200  0.31530  0.89840  Biso   1.000  H
  H236     1.0000 0.68470  0.93670  0.89840  Biso   1.000  H
  H237     1.0000 0.06330  0.74800  0.89840  Biso   1.000  H
  H238     1.0000 0.31530  0.25200  0.10160  Biso   1.000  H
  H239     1.0000 0.93670  0.68470  0.10160  Biso   1.000  H
  H240     1.0000 0.74800  0.06330  0.10160  Biso   1.000  H
  H241     1.0000 0.91867  0.64863  0.23173  Biso   1.000  H
  H242     1.0000 0.35137  0.27003  0.23173  Biso   1.000  H
  H243     1.0000 0.72997  0.08133  0.23173  Biso   1.000  H
  H244     1.0000 0.98197  0.58533  0.43493  Biso   1.000  H
  H245     1.0000 0.60337  0.01803  0.43493  Biso   1.000  H
  H246     1.0000 0.41467  0.39663  0.43493  Biso   1.000  H
  H247     1.0000 0.58533  0.98197  0.56507  Biso   1.000  H
  H248     1.0000 0.01803  0.60337  0.56507  Biso   1.000  H
  H249     1.0000 0.39663  0.41467  0.56507  Biso   1.000  H
  H250     1.0000 0.64863  0.91867  0.76827  Biso   1.000  H
  H251     1.0000 0.27003  0.35137  0.76827  Biso   1.000  H
  H252     1.0000 0.08133  0.72997  0.76827  Biso   1.000  H
  H253     1.0000 0.74800  0.68470  0.10160  Biso   1.000  H
  H254     1.0000 0.31530  0.06330  0.10160  Biso   1.000  H
  H255     1.0000 0.93670  0.25200  0.10160  Biso   1.000  H
  H256     1.0000 0.68470  0.74800  0.89840  Biso   1.000  H
  H257     1.0000 0.06330  0.31530  0.89840  Biso   1.000  H
  H258     1.0000 0.25200  0.93670  0.89840  Biso   1.000  H
  H259     1.0000 0.41467  0.01803  0.43493  Biso   1.000  H
  H260     1.0000 0.98197  0.39663  0.43493  Biso   1.000  H
  H261     1.0000 0.60337  0.58533  0.43493  Biso   1.000  H
  H262     1.0000 0.35137  0.08133  0.23173  Biso   1.000  H
  H263     1.0000 0.72997  0.64863  0.23173  Biso   1.000  H
  H264     1.0000 0.91867  0.27003  0.23173  Biso   1.000  H
  H265     1.0000 0.08133  0.35137  0.76827  Biso   1.000  H
  H266     1.0000 0.64863  0.72997  0.76827  Biso   1.000  H
  H267     1.0000 0.27003  0.91867  0.76827  Biso   1.000  H
  H268     1.0000 0.01803  0.41467  0.56507  Biso   1.000  H
  H269     1.0000 0.39663  0.98197  0.56507  Biso   1.000  H
  H270     1.0000 0.58533  0.60337  0.56507  Biso   1.000  H
  C541     1.0000 0.22000  0.32370  0.86157  Biso   1.000  C
  C542     1.0000 0.67630  0.89630  0.86157  Biso   1.000  C
  C543     1.0000 0.10370  0.78000  0.86157  Biso   1.000  C
  C544     1.0000 0.32370  0.22000  0.13843  Biso   1.000  C
  C545     1.0000 0.89630  0.67630  0.13843  Biso   1.000  C
  C546     1.0000 0.78000  0.10370  0.13843  Biso   1.000  C
  C547     1.0000 0.88667  0.65703  0.19490  Biso   1.000  C
  C548     1.0000 0.34297  0.22963  0.19490  Biso   1.000  C
  C549     1.0000 0.77037  0.11333  0.19490  Biso   1.000  C
  C550     1.0000 0.99037  0.55333  0.47176  Biso   1.000  C
  C551     1.0000 0.56297  0.00963  0.47176  Biso   1.000  C
  C552     1.0000 0.44667  0.43703  0.47176  Biso   1.000  C
  C553     1.0000 0.55333  0.99037  0.52824  Biso   1.000  C
  C554     1.0000 0.00963  0.56297  0.52824  Biso   1.000  C
  C555     1.0000 0.43703  0.44667  0.52824  Biso   1.000  C
  C556     1.0000 0.65703  0.88667  0.80510  Biso   1.000  C
  C557     1.0000 0.22963  0.34297  0.80510  Biso   1.000  C
  C558     1.0000 0.11333  0.77037  0.80510  Biso   1.000  C
  C559     1.0000 0.78000  0.67630  0.13843  Biso   1.000  C
  C560     1.0000 0.32370  0.10370  0.13843  Biso   1.000  C
  C561     1.0000 0.89630  0.22000  0.13843  Biso   1.000  C
  C562     1.0000 0.67630  0.78000  0.86157  Biso   1.000  C
  C563     1.0000 0.10370  0.32370  0.86157  Biso   1.000  C
  C564     1.0000 0.22000  0.89630  0.86157  Biso   1.000  C
  C565     1.0000 0.44667  0.00963  0.47176  Biso   1.000  C
  C566     1.0000 0.99037  0.43703  0.47176  Biso   1.000  C
  C567     1.0000 0.56297  0.55333  0.47176  Biso   1.000  C
  C568     1.0000 0.34297  0.11333  0.19490  Biso   1.000  C
  C569     1.0000 0.77037  0.65703  0.19490  Biso   1.000  C
  C570     1.0000 0.88667  0.22963  0.19490  Biso   1.000  C
  C571     1.0000 0.11333  0.34297  0.80510  Biso   1.000  C
  C572     1.0000 0.65703  0.77037  0.80510  Biso   1.000  C
  C573     1.0000 0.22963  0.88667  0.80510  Biso   1.000  C
  C574     1.0000 0.00963  0.44667  0.52824  Biso   1.000  C
  C575     1.0000 0.43703  0.99037  0.52824  Biso   1.000  C
  C576     1.0000 0.55333  0.56297  0.52824  Biso   1.000  C
  H271     1.0000 0.25340  0.29330  0.85240  Biso   1.000  H
  H272     1.0000 0.70670  0.96010  0.85240  Biso   1.000  H
  H273     1.0000 0.03990  0.74660  0.85240  Biso   1.000  H
  H274     1.0000 0.29330  0.25340  0.14760  Biso   1.000  H
  H275     1.0000 0.96010  0.70670  0.14760  Biso   1.000  H
  H276     1.0000 0.74660  0.03990  0.14760  Biso   1.000  H
  H277     1.0000 0.92007  0.62663  0.18573  Biso   1.000  H
  H278     1.0000 0.37337  0.29343  0.18573  Biso   1.000  H
  H279     1.0000 0.70657  0.07993  0.18573  Biso   1.000  H
  H280     1.0000 0.95997  0.58673  0.48093  Biso   1.000  H
  H281     1.0000 0.62677  0.04003  0.48093  Biso   1.000  H
  H282     1.0000 0.41327  0.37323  0.48093  Biso   1.000  H
  H283     1.0000 0.58673  0.95997  0.51907  Biso   1.000  H
  H284     1.0000 0.04003  0.62677  0.51907  Biso   1.000  H
  H285     1.0000 0.37323  0.41327  0.51907  Biso   1.000  H
  H286     1.0000 0.62663  0.92007  0.81427  Biso   1.000  H
  H287     1.0000 0.29343  0.37337  0.81427  Biso   1.000  H
  H288     1.0000 0.07993  0.70657  0.81427  Biso   1.000  H
  H289     1.0000 0.74660  0.70670  0.14760  Biso   1.000  H
  H290     1.0000 0.29330  0.03990  0.14760  Biso   1.000  H
  H291     1.0000 0.96010  0.25340  0.14760  Biso   1.000  H
  H292     1.0000 0.70670  0.74660  0.85240  Biso   1.000  H
  H293     1.0000 0.03990  0.29330  0.85240  Biso   1.000  H
  H294     1.0000 0.25340  0.96010  0.85240  Biso   1.000  H
  H295     1.0000 0.41327  0.04003  0.48093  Biso   1.000  H
  H296     1.0000 0.95997  0.37323  0.48093  Biso   1.000  H
  H297     1.0000 0.62677  0.58673  0.48093  Biso   1.000  H
  H298     1.0000 0.37337  0.07993  0.18573  Biso   1.000  H
  H299     1.0000 0.70657  0.62663  0.18573  Biso   1.000  H
  H300     1.0000 0.92007  0.29343  0.18573  Biso   1.000  H
  H301     1.0000 0.07993  0.37337  0.81427  Biso   1.000  H
  H302     1.0000 0.62663  0.70657  0.81427  Biso   1.000  H
  H303     1.0000 0.29343  0.92007  0.81427  Biso   1.000  H
  H304     1.0000 0.04003  0.41327  0.51907  Biso   1.000  H
  H305     1.0000 0.37323  0.95997  0.51907  Biso   1.000  H
  H306     1.0000 0.58673  0.62677  0.51907  Biso   1.000  H
  C577     1.0000 0.18270  0.36310  0.84618  Biso   1.000  C
  C578     1.0000 0.63690  0.81960  0.84618  Biso   1.000  C
  C579     1.0000 0.18040  0.81730  0.84618  Biso   1.000  C
  C580     1.0000 0.36310  0.18270  0.15382  Biso   1.000  C
  C581     1.0000 0.81960  0.63690  0.15382  Biso   1.000  C
  C582     1.0000 0.81730  0.18040  0.15382  Biso   1.000  C
  C583     1.0000 0.84937  0.69643  0.17951  Biso   1.000  C
  C584     1.0000 0.30357  0.15293  0.17951  Biso   1.000  C
  C585     1.0000 0.84707  0.15063  0.17951  Biso   1.000  C
  C586     1.0000 0.02977  0.51603  0.48715  Biso   1.000  C
  C587     1.0000 0.48627  0.97023  0.48715  Biso   1.000  C
  C588     1.0000 0.48397  0.51373  0.48715  Biso   1.000  C
  C589     1.0000 0.51603  0.02977  0.51285  Biso   1.000  C
  C590     1.0000 0.97023  0.48627  0.51285  Biso   1.000  C
  C591     1.0000 0.51373  0.48397  0.51285  Biso   1.000  C
  C592     1.0000 0.69643  0.84937  0.82049  Biso   1.000  C
  C593     1.0000 0.15293  0.30357  0.82049  Biso   1.000  C
  C594     1.0000 0.15063  0.84707  0.82049  Biso   1.000  C
  C595     1.0000 0.81730  0.63690  0.15382  Biso   1.000  C
  C596     1.0000 0.36310  0.18040  0.15382  Biso   1.000  C
  C597     1.0000 0.81960  0.18270  0.15382  Biso   1.000  C
  C598     1.0000 0.63690  0.81730  0.84618  Biso   1.000  C
  C599     1.0000 0.18040  0.36310  0.84618  Biso   1.000  C
  C600     1.0000 0.18270  0.81960  0.84618  Biso   1.000  C
  C601     1.0000 0.48397  0.97023  0.48715  Biso   1.000  C
  C602     1.0000 0.02977  0.51373  0.48715  Biso   1.000  C
  C603     1.0000 0.48627  0.51603  0.48715  Biso   1.000  C
  C604     1.0000 0.30357  0.15063  0.17951  Biso   1.000  C
  C605     1.0000 0.84707  0.69643  0.17951  Biso   1.000  C
  C606     1.0000 0.84937  0.15293  0.17951  Biso   1.000  C
  C607     1.0000 0.15063  0.30357  0.82049  Biso   1.000  C
  C608     1.0000 0.69643  0.84707  0.82049  Biso   1.000  C
  C609     1.0000 0.15293  0.84937  0.82049  Biso   1.000  C
  C610     1.0000 0.97023  0.48397  0.51285  Biso   1.000  C
  C611     1.0000 0.51373  0.02977  0.51285  Biso   1.000  C
  C612     1.0000 0.51603  0.48627  0.51285  Biso   1.000  C
  C613     1.0000 0.15280  0.40690  0.85677  Biso   1.000  C
  C614     1.0000 0.59310  0.74590  0.85677  Biso   1.000  C
  C615     1.0000 0.25410  0.84720  0.85677  Biso   1.000  C
  C616     1.0000 0.40690  0.15280  0.14323  Biso   1.000  C
  C617     1.0000 0.74590  0.59310  0.14323  Biso   1.000  C
  C618     1.0000 0.84720  0.25410  0.14323  Biso   1.000  C
  C619     1.0000 0.81947  0.74023  0.19010  Biso   1.000  C
  C620     1.0000 0.25977  0.07923  0.19010  Biso   1.000  C
  C621     1.0000 0.92077  0.18053  0.19010  Biso   1.000  C
  C622     1.0000 0.07357  0.48613  0.47656  Biso   1.000  C
  C623     1.0000 0.41257  0.92643  0.47656  Biso   1.000  C
  C624     1.0000 0.51387  0.58743  0.47656  Biso   1.000  C
  C625     1.0000 0.48613  0.07357  0.52344  Biso   1.000  C
  C626     1.0000 0.92643  0.41257  0.52344  Biso   1.000  C
  C627     1.0000 0.58743  0.51387  0.52344  Biso   1.000  C
  C628     1.0000 0.74023  0.81947  0.80990  Biso   1.000  C
  C629     1.0000 0.07923  0.25977  0.80990  Biso   1.000  C
  C630     1.0000 0.18053  0.92077  0.80990  Biso   1.000  C
  C631     1.0000 0.84720  0.59310  0.14323  Biso   1.000  C
  C632     1.0000 0.40690  0.25410  0.14323  Biso   1.000  C
  C633     1.0000 0.74590  0.15280  0.14323  Biso   1.000  C
  C634     1.0000 0.59310  0.84720  0.85677  Biso   1.000  C
  C635     1.0000 0.25410  0.40690  0.85677  Biso   1.000  C
  C636     1.0000 0.15280  0.74590  0.85677  Biso   1.000  C
  C637     1.0000 0.51387  0.92643  0.47656  Biso   1.000  C
  C638     1.0000 0.07357  0.58743  0.47656  Biso   1.000  C
  C639     1.0000 0.41257  0.48613  0.47656  Biso   1.000  C
  C640     1.0000 0.25977  0.18053  0.19010  Biso   1.000  C
  C641     1.0000 0.92077  0.74023  0.19010  Biso   1.000  C
  C642     1.0000 0.81947  0.07923  0.19010  Biso   1.000  C
  C643     1.0000 0.18053  0.25977  0.80990  Biso   1.000  C
  C644     1.0000 0.74023  0.92077  0.80990  Biso   1.000  C
  C645     1.0000 0.07923  0.81947  0.80990  Biso   1.000  C
  C646     1.0000 0.92643  0.51387  0.52344  Biso   1.000  C
  C647     1.0000 0.58743  0.07357  0.52344  Biso   1.000  C
  C648     1.0000 0.48613  0.41257  0.52344  Biso   1.000  C
  C649     1.0000 0.11550  0.44070  0.84137  Biso   1.000  C
  C650     1.0000 0.55930  0.67480  0.84137  Biso   1.000  C
  C651     1.0000 0.32520  0.88450  0.84137  Biso   1.000  C
  C652     1.0000 0.44070  0.11550  0.15863  Biso   1.000  C
  C653     1.0000 0.67480  0.55930  0.15863  Biso   1.000  C
  C654     1.0000 0.88450  0.32520  0.15863  Biso   1.000  C
  C655     1.0000 0.78217  0.77403  0.17470  Biso   1.000  C
  C656     1.0000 0.22597  0.00813  0.17470  Biso   1.000  C
  C657     1.0000 0.99187  0.21783  0.17470  Biso   1.000  C
  C658     1.0000 0.10737  0.44883  0.49196  Biso   1.000  C
  C659     1.0000 0.34147  0.89263  0.49196  Biso   1.000  C
  C660     1.0000 0.55117  0.65853  0.49196  Biso   1.000  C
  C661     1.0000 0.44883  0.10737  0.50804  Biso   1.000  C
  C662     1.0000 0.89263  0.34147  0.50804  Biso   1.000  C
  C663     1.0000 0.65853  0.55117  0.50804  Biso   1.000  C
  C664     1.0000 0.77403  0.78217  0.82530  Biso   1.000  C
  C665     1.0000 0.00813  0.22597  0.82530  Biso   1.000  C
  C666     1.0000 0.21783  0.99187  0.82530  Biso   1.000  C
  C667     1.0000 0.88450  0.55930  0.15863  Biso   1.000  C
  C668     1.0000 0.44070  0.32520  0.15863  Biso   1.000  C
  C669     1.0000 0.67480  0.11550  0.15863  Biso   1.000  C
  C670     1.0000 0.55930  0.88450  0.84137  Biso   1.000  C
  C671     1.0000 0.32520  0.44070  0.84137  Biso   1.000  C
  C672     1.0000 0.11550  0.67480  0.84137  Biso   1.000  C
  C673     1.0000 0.55117  0.89263  0.49196  Biso   1.000  C
  C674     1.0000 0.10737  0.65853  0.49196  Biso   1.000  C
  C675     1.0000 0.34147  0.44883  0.49196  Biso   1.000  C
  C676     1.0000 0.22597  0.21783  0.17470  Biso   1.000  C
  C677     1.0000 0.99187  0.77403  0.17470  Biso   1.000  C
  C678     1.0000 0.78217  0.00813  0.17470  Biso   1.000  C
  C679     1.0000 0.21783  0.22597  0.82530  Biso   1.000  C
  C680     1.0000 0.77403  0.99187  0.82530  Biso   1.000  C
  C681     1.0000 0.00813  0.78217  0.82530  Biso   1.000  C
  C682     1.0000 0.89263  0.55117  0.50804  Biso   1.000  C
  C683     1.0000 0.65853  0.10737  0.50804  Biso   1.000  C
  C684     1.0000 0.44883  0.34147  0.50804  Biso   1.000  C
  H307     1.0000 0.09480  0.47490  0.84870  Biso   1.000  H
  H308     1.0000 0.52510  0.61990  0.84870  Biso   1.000  H
  H309     1.0000 0.38010  0.90520  0.84870  Biso   1.000  H
  H310     1.0000 0.47490  0.09480  0.15130  Biso   1.000  H
  H311     1.0000 0.61990  0.52510  0.15130  Biso   1.000  H
  H312     1.0000 0.90520  0.38010  0.15130  Biso   1.000  H
  H313     1.0000 0.76147  0.80823  0.18203  Biso   1.000  H
  H314     1.0000 0.19177  0.95323  0.18203  Biso   1.000  H
  H315     1.0000 0.04677  0.23853  0.18203  Biso   1.000  H
  H316     1.0000 0.14157  0.42813  0.48463  Biso   1.000  H
  H317     1.0000 0.28657  0.85843  0.48463  Biso   1.000  H
  H318     1.0000 0.57187  0.71343  0.48463  Biso   1.000  H
  H319     1.0000 0.42813  0.14157  0.51537  Biso   1.000  H
  H320     1.0000 0.85843  0.28657  0.51537  Biso   1.000  H
  H321     1.0000 0.71343  0.57187  0.51537  Biso   1.000  H
  H322     1.0000 0.80823  0.76147  0.81797  Biso   1.000  H
  H323     1.0000 0.95323  0.19177  0.81797  Biso   1.000  H
  H324     1.0000 0.23853  0.04677  0.81797  Biso   1.000  H
  H325     1.0000 0.90520  0.52510  0.15130  Biso   1.000  H
  H326     1.0000 0.47490  0.38010  0.15130  Biso   1.000  H
  H327     1.0000 0.61990  0.09480  0.15130  Biso   1.000  H
  H328     1.0000 0.52510  0.90520  0.84870  Biso   1.000  H
  H329     1.0000 0.38010  0.47490  0.84870  Biso   1.000  H
  H330     1.0000 0.09480  0.61990  0.84870  Biso   1.000  H
  H331     1.0000 0.57187  0.85843  0.48463  Biso   1.000  H
  H332     1.0000 0.14157  0.71343  0.48463  Biso   1.000  H
  H333     1.0000 0.28657  0.42813  0.48463  Biso   1.000  H
  H334     1.0000 0.19177  0.23853  0.18203  Biso   1.000  H
  H335     1.0000 0.04677  0.80823  0.18203  Biso   1.000  H
  H336     1.0000 0.76147  0.95323  0.18203  Biso   1.000  H
  H337     1.0000 0.23853  0.19177  0.81797  Biso   1.000  H
  H338     1.0000 0.80823  0.04677  0.81797  Biso   1.000  H
  H339     1.0000 0.95323  0.76147  0.81797  Biso   1.000  H
  H340     1.0000 0.85843  0.57187  0.51537  Biso   1.000  H
  H341     1.0000 0.71343  0.14157  0.51537  Biso   1.000  H
  H342     1.0000 0.42813  0.28657  0.51537  Biso   1.000  H
  C685     1.0000 0.11500  0.42070  0.81210  Biso   1.000  C
  C686     1.0000 0.57930  0.69430  0.81210  Biso   1.000  C
  C687     1.0000 0.30570  0.88500  0.81210  Biso   1.000  C
  C688     1.0000 0.42070  0.11500  0.18790  Biso   1.000  C
  C689     1.0000 0.69430  0.57930  0.18790  Biso   1.000  C
  C690     1.0000 0.88500  0.30570  0.18790  Biso   1.000  C
  C691     1.0000 0.78167  0.75403  0.14543  Biso   1.000  C
  C692     1.0000 0.24597  0.02763  0.14543  Biso   1.000  C
  C693     1.0000 0.97237  0.21833  0.14543  Biso   1.000  C
  C694     1.0000 0.08737  0.44833  0.52123  Biso   1.000  C
  C695     1.0000 0.36097  0.91263  0.52123  Biso   1.000  C
  C696     1.0000 0.55167  0.63903  0.52123  Biso   1.000  C
  C697     1.0000 0.44833  0.08737  0.47877  Biso   1.000  C
  C698     1.0000 0.91263  0.36097  0.47877  Biso   1.000  C
  C699     1.0000 0.63903  0.55167  0.47877  Biso   1.000  C
  C700     1.0000 0.75403  0.78167  0.85457  Biso   1.000  C
  C701     1.0000 0.02763  0.24597  0.85457  Biso   1.000  C
  C702     1.0000 0.21833  0.97237  0.85457  Biso   1.000  C
  C703     1.0000 0.88500  0.57930  0.18790  Biso   1.000  C
  C704     1.0000 0.42070  0.30570  0.18790  Biso   1.000  C
  C705     1.0000 0.69430  0.11500  0.18790  Biso   1.000  C
  C706     1.0000 0.57930  0.88500  0.81210  Biso   1.000  C
  C707     1.0000 0.30570  0.42070  0.81210  Biso   1.000  C
  C708     1.0000 0.11500  0.69430  0.81210  Biso   1.000  C
  C709     1.0000 0.55167  0.91263  0.52123  Biso   1.000  C
  C710     1.0000 0.08737  0.63903  0.52123  Biso   1.000  C
  C711     1.0000 0.36097  0.44833  0.52123  Biso   1.000  C
  C712     1.0000 0.24597  0.21833  0.14543  Biso   1.000  C
  C713     1.0000 0.97237  0.75403  0.14543  Biso   1.000  C
  C714     1.0000 0.78167  0.02763  0.14543  Biso   1.000  C
  C715     1.0000 0.21833  0.24597  0.85457  Biso   1.000  C
  C716     1.0000 0.75403  0.97237  0.85457  Biso   1.000  C
  C717     1.0000 0.02763  0.78167  0.85457  Biso   1.000  C
  C718     1.0000 0.91263  0.55167  0.47877  Biso   1.000  C
  C719     1.0000 0.63903  0.08737  0.47877  Biso   1.000  C
  C720     1.0000 0.44833  0.36097  0.47877  Biso   1.000  C
  H343     1.0000 0.08830  0.44240  0.80120  Biso   1.000  H
  H344     1.0000 0.55760  0.64590  0.80120  Biso   1.000  H
  H345     1.0000 0.35410  0.91170  0.80120  Biso   1.000  H
  H346     1.0000 0.44240  0.08830  0.19880  Biso   1.000  H
  H347     1.0000 0.64590  0.55760  0.19880  Biso   1.000  H
  H348     1.0000 0.91170  0.35410  0.19880  Biso   1.000  H
  H349     1.0000 0.75497  0.77573  0.13453  Biso   1.000  H
  H350     1.0000 0.22427  0.97923  0.13453  Biso   1.000  H
  H351     1.0000 0.02077  0.24503  0.13453  Biso   1.000  H
  H352     1.0000 0.10907  0.42163  0.53213  Biso   1.000  H
  H353     1.0000 0.31257  0.89093  0.53213  Biso   1.000  H
  H354     1.0000 0.57837  0.68743  0.53213  Biso   1.000  H
  H355     1.0000 0.42163  0.10907  0.46787  Biso   1.000  H
  H356     1.0000 0.89093  0.31257  0.46787  Biso   1.000  H
  H357     1.0000 0.68743  0.57837  0.46787  Biso   1.000  H
  H358     1.0000 0.77573  0.75497  0.86547  Biso   1.000  H
  H359     1.0000 0.97923  0.22427  0.86547  Biso   1.000  H
  H360     1.0000 0.24503  0.02077  0.86547  Biso   1.000  H
  H361     1.0000 0.91170  0.55760  0.19880  Biso   1.000  H
  H362     1.0000 0.44240  0.35410  0.19880  Biso   1.000  H
  H363     1.0000 0.64590  0.08830  0.19880  Biso   1.000  H
  H364     1.0000 0.55760  0.91170  0.80120  Biso   1.000  H
  H365     1.0000 0.35410  0.44240  0.80120  Biso   1.000  H
  H366     1.0000 0.08830  0.64590  0.80120  Biso   1.000  H
  H367     1.0000 0.57837  0.89093  0.53213  Biso   1.000  H
  H368     1.0000 0.10907  0.68743  0.53213  Biso   1.000  H
  H369     1.0000 0.31257  0.42163  0.53213  Biso   1.000  H
  H370     1.0000 0.22427  0.24503  0.13453  Biso   1.000  H
  H371     1.0000 0.02077  0.77573  0.13453  Biso   1.000  H
  H372     1.0000 0.75497  0.97923  0.13453  Biso   1.000  H
  H373     1.0000 0.24503  0.22427  0.86547  Biso   1.000  H
  H374     1.0000 0.77573  0.02077  0.86547  Biso   1.000  H
  H375     1.0000 0.97923  0.75497  0.86547  Biso   1.000  H
  H376     1.0000 0.89093  0.57837  0.46787  Biso   1.000  H
  H377     1.0000 0.68743  0.10907  0.46787  Biso   1.000  H
  H378     1.0000 0.42163  0.31257  0.46787  Biso   1.000  H
  H379     1.0000 0.05830  0.42700  0.85040  Biso   1.000  H
  H380     1.0000 0.57300  0.63130  0.85040  Biso   1.000  H
  H381     1.0000 0.36870  0.94170  0.85040  Biso   1.000  H
  H382     1.0000 0.42700  0.05830  0.14960  Biso   1.000  H
  H383     1.0000 0.63130  0.57300  0.14960  Biso   1.000  H
  H384     1.0000 0.94170  0.36870  0.14960  Biso   1.000  H
  H385     1.0000 0.72497  0.76033  0.18373  Biso   1.000  H
  H386     1.0000 0.23967  0.96463  0.18373  Biso   1.000  H
  H387     1.0000 0.03537  0.27503  0.18373  Biso   1.000  H
  H388     1.0000 0.09367  0.39163  0.48293  Biso   1.000  H
  H389     1.0000 0.29797  0.90633  0.48293  Biso   1.000  H
  H390     1.0000 0.60837  0.70203  0.48293  Biso   1.000  H
  H391     1.0000 0.39163  0.09367  0.51707  Biso   1.000  H
  H392     1.0000 0.90633  0.29797  0.51707  Biso   1.000  H
  H393     1.0000 0.70203  0.60837  0.51707  Biso   1.000  H
  H394     1.0000 0.76033  0.72497  0.81627  Biso   1.000  H
  H395     1.0000 0.96463  0.23967  0.81627  Biso   1.000  H
  H396     1.0000 0.27503  0.03537  0.81627  Biso   1.000  H
  H397     1.0000 0.94170  0.57300  0.14960  Biso   1.000  H
  H398     1.0000 0.42700  0.36870  0.14960  Biso   1.000  H
  H399     1.0000 0.63130  0.05830  0.14960  Biso   1.000  H
  H400     1.0000 0.57300  0.94170  0.85040  Biso   1.000  H
  H401     1.0000 0.36870  0.42700  0.85040  Biso   1.000  H
  H402     1.0000 0.05830  0.63130  0.85040  Biso   1.000  H
  H403     1.0000 0.60837  0.90633  0.48293  Biso   1.000  H
  H404     1.0000 0.09367  0.70203  0.48293  Biso   1.000  H
  H405     1.0000 0.29797  0.39163  0.48293  Biso   1.000  H
  H406     1.0000 0.23967  0.27503  0.18373  Biso   1.000  H
  H407     1.0000 0.03537  0.76033  0.18373  Biso   1.000  H
  H408     1.0000 0.72497  0.96463  0.18373  Biso   1.000  H
  H409     1.0000 0.27503  0.23967  0.81627  Biso   1.000  H
  H410     1.0000 0.76033  0.03537  0.81627  Biso   1.000  H
  H411     1.0000 0.96463  0.72497  0.81627  Biso   1.000  H
  H412     1.0000 0.90633  0.60837  0.51707  Biso   1.000  H
  H413     1.0000 0.70203  0.09367  0.51707  Biso   1.000  H
  H414     1.0000 0.39163  0.29797  0.51707  Biso   1.000  H
  O91      1.0000 0.15720  0.57860  0.04600  Biso   1.000  O
  O92      1.0000 0.42140  0.57860  0.04600  Biso   1.000  O
  O93      1.0000 0.42140  0.84280  0.04600  Biso   1.000  O
  O94      1.0000 0.57860  0.15720  0.95400  Biso   1.000  O
  O95      1.0000 0.57860  0.42140  0.95400  Biso   1.000  O
  O96      1.0000 0.84280  0.42140  0.95400  Biso   1.000  O
  O97      1.0000 0.82387  0.91193  0.37933  Biso   1.000  O
  O98      1.0000 0.08807  0.91193  0.37933  Biso   1.000  O
  O99      1.0000 0.08807  0.17613  0.37933  Biso   1.000  O
  O100     1.0000 0.24527  0.49053  0.28733  Biso   1.000  O
  O101     1.0000 0.24527  0.75473  0.28733  Biso   1.000  O
  O102     1.0000 0.50947  0.75473  0.28733  Biso   1.000  O
  O103     1.0000 0.49053  0.24527  0.71267  Biso   1.000  O
  O104     1.0000 0.75473  0.24527  0.71267  Biso   1.000  O
  O105     1.0000 0.75473  0.50947  0.71267  Biso   1.000  O
  O106     1.0000 0.91193  0.82387  0.62067  Biso   1.000  O
  O107     1.0000 0.91193  0.08807  0.62067  Biso   1.000  O
  O108     1.0000 0.17613  0.08807  0.62067  Biso   1.000  O
