data_image0
_cell_length_a       19.03
_cell_length_b       19.03
_cell_length_c       41.674
_cell_angle_alpha    90
_cell_angle_beta     90
_cell_angle_gamma    120

_symmetry_space_group_name_H-M    "P 1"
_symmetry_int_tables_number       1

loop_
  _symmetry_equiv_pos_as_xyz
  'x, y, z'

loop_
  _atom_site_label
  _atom_site_occupancy
  _atom_site_fract_x
  _atom_site_fract_y
  _atom_site_fract_z
  _atom_site_thermal_displace_type
  _atom_site_B_iso_or_equiv
  _atom_site_type_symbol
  Cu1      1.0000 0.13382  0.33330  0.08330  Biso   1.000  Cu
  Cu2      1.0000 0.66670  0.80052  0.08330  Biso   1.000  Cu
  Cu3      1.0000 0.19948  0.86618  0.08330  Biso   1.000  Cu
  Cu4      1.0000 0.33330  0.13382  0.41670  Biso   1.000  Cu
  Cu5      1.0000 0.86618  0.19948  0.41670  Biso   1.000  Cu
  Cu6      1.0000 0.80052  0.66670  0.41670  Biso   1.000  Cu
  Cu7      1.0000 0.99997  0.46715  0.75003  Biso   1.000  Cu
  Cu8      1.0000 0.53285  0.53281  0.75003  Biso   1.000  Cu
  Cu9      1.0000 0.46719  0.00003  0.75003  Biso   1.000  Cu
  Cu10     1.0000 0.86618  0.66670  0.91670  Biso   1.000  Cu
  Cu11     1.0000 0.33330  0.19948  0.91670  Biso   1.000  Cu
  Cu12     1.0000 0.80052  0.13382  0.91670  Biso   1.000  Cu
  Cu13     1.0000 0.66670  0.86618  0.58330  Biso   1.000  Cu
  Cu14     1.0000 0.13382  0.80052  0.58330  Biso   1.000  Cu
  Cu15     1.0000 0.19948  0.33330  0.58330  Biso   1.000  Cu
  Cu16     1.0000 0.53285  0.00003  0.25003  Biso   1.000  Cu
  Cu17     1.0000 0.99997  0.53281  0.25003  Biso   1.000  Cu
  Cu18     1.0000 0.46719  0.46715  0.25003  Biso   1.000  Cu
  O1       1.0000 0.07411  0.21691  0.09074  Biso   1.000  O
  O2       1.0000 0.78309  0.85720  0.09074  Biso   1.000  O
  O3       1.0000 0.14280  0.92589  0.09074  Biso   1.000  O
  O4       1.0000 0.21691  0.07411  0.40926  Biso   1.000  O
  O5       1.0000 0.92589  0.14280  0.40926  Biso   1.000  O
  O6       1.0000 0.85720  0.78309  0.40926  Biso   1.000  O
  O7       1.0000 0.74078  0.55024  0.42407  Biso   1.000  O
  O8       1.0000 0.44976  0.19053  0.42407  Biso   1.000  O
  O9       1.0000 0.80947  0.25922  0.42407  Biso   1.000  O
  O10      1.0000 0.88358  0.40744  0.74259  Biso   1.000  O
  O11      1.0000 0.59256  0.47613  0.74259  Biso   1.000  O
  O12      1.0000 0.52387  0.11642  0.74259  Biso   1.000  O
  O13      1.0000 0.40744  0.88358  0.75741  Biso   1.000  O
  O14      1.0000 0.11642  0.52387  0.75741  Biso   1.000  O
  O15      1.0000 0.47613  0.59256  0.75741  Biso   1.000  O
  O16      1.0000 0.55024  0.74078  0.07593  Biso   1.000  O
  O17      1.0000 0.25922  0.80947  0.07593  Biso   1.000  O
  O18      1.0000 0.19053  0.44976  0.07593  Biso   1.000  O
  O19      1.0000 0.92589  0.78309  0.90926  Biso   1.000  O
  O20      1.0000 0.21691  0.14280  0.90926  Biso   1.000  O
  O21      1.0000 0.85720  0.07411  0.90926  Biso   1.000  O
  O22      1.0000 0.78309  0.92589  0.59074  Biso   1.000  O
  O23      1.0000 0.07411  0.85720  0.59074  Biso   1.000  O
  O24      1.0000 0.14280  0.21691  0.59074  Biso   1.000  O
  O25      1.0000 0.59256  0.11642  0.24259  Biso   1.000  O
  O26      1.0000 0.88358  0.47613  0.24259  Biso   1.000  O
  O27      1.0000 0.52387  0.40744  0.24259  Biso   1.000  O
  O28      1.0000 0.44976  0.25922  0.92407  Biso   1.000  O
  O29      1.0000 0.74078  0.19053  0.92407  Biso   1.000  O
  O30      1.0000 0.80947  0.55024  0.92407  Biso   1.000  O
  O31      1.0000 0.25922  0.44976  0.57593  Biso   1.000  O
  O32      1.0000 0.55024  0.80947  0.57593  Biso   1.000  O
  O33      1.0000 0.19053  0.74078  0.57593  Biso   1.000  O
  O34      1.0000 0.11642  0.59256  0.25741  Biso   1.000  O
  O35      1.0000 0.40744  0.52387  0.25741  Biso   1.000  O
  O36      1.0000 0.47613  0.88358  0.25741  Biso   1.000  O
  O37      1.0000 0.18227  0.20076  0.08472  Biso   1.000  O
  O38      1.0000 0.79924  0.98151  0.08472  Biso   1.000  O
  O39      1.0000 0.01849  0.81773  0.08472  Biso   1.000  O
  O40      1.0000 0.20076  0.18227  0.41528  Biso   1.000  O
  O41      1.0000 0.81773  0.01849  0.41528  Biso   1.000  O
  O42      1.0000 0.98151  0.79924  0.41528  Biso   1.000  O
  O43      1.0000 0.84894  0.53409  0.41805  Biso   1.000  O
  O44      1.0000 0.46591  0.31484  0.41805  Biso   1.000  O
  O45      1.0000 0.68516  0.15106  0.41805  Biso   1.000  O
  O46      1.0000 0.86743  0.51560  0.74861  Biso   1.000  O
  O47      1.0000 0.48440  0.35182  0.74861  Biso   1.000  O
  O48      1.0000 0.64818  0.13257  0.74861  Biso   1.000  O
  O49      1.0000 0.51560  0.86743  0.75139  Biso   1.000  O
  O50      1.0000 0.13257  0.64818  0.75139  Biso   1.000  O
  O51      1.0000 0.35182  0.48440  0.75139  Biso   1.000  O
  O52      1.0000 0.53409  0.84894  0.08195  Biso   1.000  O
  O53      1.0000 0.15106  0.68516  0.08195  Biso   1.000  O
  O54      1.0000 0.31484  0.46591  0.08195  Biso   1.000  O
  O55      1.0000 0.81773  0.79924  0.91528  Biso   1.000  O
  O56      1.0000 0.20076  0.01849  0.91528  Biso   1.000  O
  O57      1.0000 0.98151  0.18227  0.91528  Biso   1.000  O
  O58      1.0000 0.79924  0.81773  0.58472  Biso   1.000  O
  O59      1.0000 0.18227  0.98151  0.58472  Biso   1.000  O
  O60      1.0000 0.01849  0.20076  0.58472  Biso   1.000  O
  O61      1.0000 0.48440  0.13257  0.24861  Biso   1.000  O
  O62      1.0000 0.86743  0.35182  0.24861  Biso   1.000  O
  O63      1.0000 0.64818  0.51560  0.24861  Biso   1.000  O
  O64      1.0000 0.46591  0.15106  0.91805  Biso   1.000  O
  O65      1.0000 0.84894  0.31484  0.91805  Biso   1.000  O
  O66      1.0000 0.68516  0.53409  0.91805  Biso   1.000  O
  O67      1.0000 0.15106  0.46591  0.58195  Biso   1.000  O
  O68      1.0000 0.53409  0.68516  0.58195  Biso   1.000  O
  O69      1.0000 0.31484  0.84894  0.58195  Biso   1.000  O
  O70      1.0000 0.13257  0.48440  0.25139  Biso   1.000  O
  O71      1.0000 0.51560  0.64818  0.25139  Biso   1.000  O
  O72      1.0000 0.35182  0.86743  0.25139  Biso   1.000  O
  N1       1.0000 0.13347  0.31264  0.03556  Biso   1.000  N
  N2       1.0000 0.68736  0.82083  0.03556  Biso   1.000  N
  N3       1.0000 0.17917  0.86653  0.03556  Biso   1.000  N
  N4       1.0000 0.31264  0.13347  0.46444  Biso   1.000  N
  N5       1.0000 0.86653  0.17917  0.46444  Biso   1.000  N
  N6       1.0000 0.82083  0.68736  0.46444  Biso   1.000  N
  N7       1.0000 0.80014  0.64597  0.36889  Biso   1.000  N
  N8       1.0000 0.35403  0.15416  0.36889  Biso   1.000  N
  N9       1.0000 0.84584  0.19986  0.36889  Biso   1.000  N
  N10      1.0000 0.97931  0.46680  0.79777  Biso   1.000  N
  N11      1.0000 0.53320  0.51250  0.79777  Biso   1.000  N
  N12      1.0000 0.48750  0.02069  0.79777  Biso   1.000  N
  N13      1.0000 0.46680  0.97931  0.70223  Biso   1.000  N
  N14      1.0000 0.02069  0.48750  0.70223  Biso   1.000  N
  N15      1.0000 0.51250  0.53320  0.70223  Biso   1.000  N
  N16      1.0000 0.64597  0.80014  0.13111  Biso   1.000  N
  N17      1.0000 0.19986  0.84584  0.13111  Biso   1.000  N
  N18      1.0000 0.15416  0.35403  0.13111  Biso   1.000  N
  N19      1.0000 0.86653  0.68736  0.96444  Biso   1.000  N
  N20      1.0000 0.31264  0.17917  0.96444  Biso   1.000  N
  N21      1.0000 0.82083  0.13347  0.96444  Biso   1.000  N
  N22      1.0000 0.68736  0.86653  0.53556  Biso   1.000  N
  N23      1.0000 0.13347  0.82083  0.53556  Biso   1.000  N
  N24      1.0000 0.17917  0.31264  0.53556  Biso   1.000  N
  N25      1.0000 0.53320  0.02069  0.29777  Biso   1.000  N
  N26      1.0000 0.97931  0.51250  0.29777  Biso   1.000  N
  N27      1.0000 0.48750  0.46680  0.29777  Biso   1.000  N
  N28      1.0000 0.35403  0.19986  0.86889  Biso   1.000  N
  N29      1.0000 0.80014  0.15416  0.86889  Biso   1.000  N
  N30      1.0000 0.84584  0.64597  0.86889  Biso   1.000  N
  N31      1.0000 0.19986  0.35403  0.63111  Biso   1.000  N
  N32      1.0000 0.64597  0.84584  0.63111  Biso   1.000  N
  N33      1.0000 0.15416  0.80014  0.63111  Biso   1.000  N
  N34      1.0000 0.02069  0.53320  0.20223  Biso   1.000  N
  N35      1.0000 0.46680  0.48750  0.20223  Biso   1.000  N
  N36      1.0000 0.51250  0.97931  0.20223  Biso   1.000  N
  N37      1.0000 0.01420  0.33330  0.08330  Biso   1.000  N
  N38      1.0000 0.66670  0.68090  0.08330  Biso   1.000  N
  N39      1.0000 0.31910  0.98580  0.08330  Biso   1.000  N
  N40      1.0000 0.33330  0.01420  0.41670  Biso   1.000  N
  N41      1.0000 0.98580  0.31910  0.41670  Biso   1.000  N
  N42      1.0000 0.68090  0.66670  0.41670  Biso   1.000  N
  N43      1.0000 0.99997  0.34753  0.75003  Biso   1.000  N
  N44      1.0000 0.65247  0.65243  0.75003  Biso   1.000  N
  N45      1.0000 0.34757  0.00003  0.75003  Biso   1.000  N
  N46      1.0000 0.98580  0.66670  0.91670  Biso   1.000  N
  N47      1.0000 0.33330  0.31910  0.91670  Biso   1.000  N
  N48      1.0000 0.68090  0.01420  0.91670  Biso   1.000  N
  N49      1.0000 0.66670  0.98580  0.58330  Biso   1.000  N
  N50      1.0000 0.01420  0.68090  0.58330  Biso   1.000  N
  N51      1.0000 0.31910  0.33330  0.58330  Biso   1.000  N
  N52      1.0000 0.65247  0.00003  0.25003  Biso   1.000  N
  N53      1.0000 0.99997  0.65243  0.25003  Biso   1.000  N
  N54      1.0000 0.34757  0.34753  0.25003  Biso   1.000  N
  C1       1.0000 0.94720  0.27370  0.09679  Biso   1.000  C
  C2       1.0000 0.72630  0.67350  0.09679  Biso   1.000  C
  C3       1.0000 0.32650  0.05280  0.09679  Biso   1.000  C
  C4       1.0000 0.27370  0.94720  0.40321  Biso   1.000  C
  C5       1.0000 0.05280  0.32650  0.40321  Biso   1.000  C
  C6       1.0000 0.67350  0.72630  0.40321  Biso   1.000  C
  C7       1.0000 0.61387  0.60703  0.43012  Biso   1.000  C
  C8       1.0000 0.39297  0.00683  0.43012  Biso   1.000  C
  C9       1.0000 0.99317  0.38613  0.43012  Biso   1.000  C
  C10      1.0000 0.94037  0.28053  0.73654  Biso   1.000  C
  C11      1.0000 0.71947  0.65983  0.73654  Biso   1.000  C
  C12      1.0000 0.34017  0.05963  0.73654  Biso   1.000  C
  C13      1.0000 0.28053  0.94037  0.76346  Biso   1.000  C
  C14      1.0000 0.05963  0.34017  0.76346  Biso   1.000  C
  C15      1.0000 0.65983  0.71947  0.76346  Biso   1.000  C
  C16      1.0000 0.60703  0.61387  0.06988  Biso   1.000  C
  C17      1.0000 0.38613  0.99317  0.06988  Biso   1.000  C
  C18      1.0000 0.00683  0.39297  0.06988  Biso   1.000  C
  C19      1.0000 0.05280  0.72630  0.90321  Biso   1.000  C
  C20      1.0000 0.27370  0.32650  0.90321  Biso   1.000  C
  C21      1.0000 0.67350  0.94720  0.90321  Biso   1.000  C
  C22      1.0000 0.72630  0.05280  0.59679  Biso   1.000  C
  C23      1.0000 0.94720  0.67350  0.59679  Biso   1.000  C
  C24      1.0000 0.32650  0.27370  0.59679  Biso   1.000  C
  C25      1.0000 0.71947  0.05963  0.23654  Biso   1.000  C
  C26      1.0000 0.94037  0.65983  0.23654  Biso   1.000  C
  C27      1.0000 0.34017  0.28053  0.23654  Biso   1.000  C
  C28      1.0000 0.39297  0.38613  0.93012  Biso   1.000  C
  C29      1.0000 0.61387  0.00683  0.93012  Biso   1.000  C
  C30      1.0000 0.99317  0.60703  0.93012  Biso   1.000  C
  C31      1.0000 0.38613  0.39297  0.56988  Biso   1.000  C
  C32      1.0000 0.60703  0.99317  0.56988  Biso   1.000  C
  C33      1.0000 0.00683  0.61387  0.56988  Biso   1.000  C
  C34      1.0000 0.05963  0.71947  0.26346  Biso   1.000  C
  C35      1.0000 0.28053  0.34017  0.26346  Biso   1.000  C
  C36      1.0000 0.65983  0.94037  0.26346  Biso   1.000  C
  H1       1.0000 0.95040  0.23030  0.10660  Biso   1.000  H
  H2       1.0000 0.76970  0.72010  0.10660  Biso   1.000  H
  H3       1.0000 0.27990  0.04960  0.10660  Biso   1.000  H
  H4       1.0000 0.23030  0.95040  0.39340  Biso   1.000  H
  H5       1.0000 0.04960  0.27990  0.39340  Biso   1.000  H
  H6       1.0000 0.72010  0.76970  0.39340  Biso   1.000  H
  H7       1.0000 0.61707  0.56363  0.43993  Biso   1.000  H
  H8       1.0000 0.43637  0.05343  0.43993  Biso   1.000  H
  H9       1.0000 0.94657  0.38293  0.43993  Biso   1.000  H
  H10      1.0000 0.89697  0.28373  0.72673  Biso   1.000  H
  H11      1.0000 0.71627  0.61323  0.72673  Biso   1.000  H
  H12      1.0000 0.38677  0.10303  0.72673  Biso   1.000  H
  H13      1.0000 0.28373  0.89697  0.77327  Biso   1.000  H
  H14      1.0000 0.10303  0.38677  0.77327  Biso   1.000  H
  H15      1.0000 0.61323  0.71627  0.77327  Biso   1.000  H
  H16      1.0000 0.56363  0.61707  0.06007  Biso   1.000  H
  H17      1.0000 0.38293  0.94657  0.06007  Biso   1.000  H
  H18      1.0000 0.05343  0.43637  0.06007  Biso   1.000  H
  H19      1.0000 0.04960  0.76970  0.89340  Biso   1.000  H
  H20      1.0000 0.23030  0.27990  0.89340  Biso   1.000  H
  H21      1.0000 0.72010  0.95040  0.89340  Biso   1.000  H
  H22      1.0000 0.76970  0.04960  0.60660  Biso   1.000  H
  H23      1.0000 0.95040  0.72010  0.60660  Biso   1.000  H
  H24      1.0000 0.27990  0.23030  0.60660  Biso   1.000  H
  H25      1.0000 0.71627  0.10303  0.22673  Biso   1.000  H
  H26      1.0000 0.89697  0.61323  0.22673  Biso   1.000  H
  H27      1.0000 0.38677  0.28373  0.22673  Biso   1.000  H
  H28      1.0000 0.43637  0.38293  0.93993  Biso   1.000  H
  H29      1.0000 0.61707  0.05343  0.93993  Biso   1.000  H
  H30      1.0000 0.94657  0.56363  0.93993  Biso   1.000  H
  H31      1.0000 0.38293  0.43637  0.56007  Biso   1.000  H
  H32      1.0000 0.56363  0.94657  0.56007  Biso   1.000  H
  H33      1.0000 0.05343  0.61707  0.56007  Biso   1.000  H
  H34      1.0000 0.10303  0.71627  0.27327  Biso   1.000  H
  H35      1.0000 0.28373  0.38677  0.27327  Biso   1.000  H
  H36      1.0000 0.61323  0.89697  0.27327  Biso   1.000  H
  C37      1.0000 0.87370  0.27130  0.09731  Biso   1.000  C
  C38      1.0000 0.72870  0.60240  0.09731  Biso   1.000  C
  C39      1.0000 0.39760  0.12630  0.09731  Biso   1.000  C
  C40      1.0000 0.27130  0.87370  0.40269  Biso   1.000  C
  C41      1.0000 0.12630  0.39760  0.40269  Biso   1.000  C
  C42      1.0000 0.60240  0.72870  0.40269  Biso   1.000  C
  C43      1.0000 0.54037  0.60463  0.43064  Biso   1.000  C
  C44      1.0000 0.39537  0.93573  0.43064  Biso   1.000  C
  C45      1.0000 0.06427  0.45963  0.43064  Biso   1.000  C
  C46      1.0000 0.93797  0.20703  0.73602  Biso   1.000  C
  C47      1.0000 0.79297  0.73093  0.73602  Biso   1.000  C
  C48      1.0000 0.26907  0.06203  0.73602  Biso   1.000  C
  C49      1.0000 0.20703  0.93797  0.76398  Biso   1.000  C
  C50      1.0000 0.06203  0.26907  0.76398  Biso   1.000  C
  C51      1.0000 0.73093  0.79297  0.76398  Biso   1.000  C
  C52      1.0000 0.60463  0.54037  0.06936  Biso   1.000  C
  C53      1.0000 0.45963  0.06427  0.06936  Biso   1.000  C
  C54      1.0000 0.93573  0.39537  0.06936  Biso   1.000  C
  C55      1.0000 0.12630  0.72870  0.90269  Biso   1.000  C
  C56      1.0000 0.27130  0.39760  0.90269  Biso   1.000  C
  C57      1.0000 0.60240  0.87370  0.90269  Biso   1.000  C
  C58      1.0000 0.72870  0.12630  0.59731  Biso   1.000  C
  C59      1.0000 0.87370  0.60240  0.59731  Biso   1.000  C
  C60      1.0000 0.39760  0.27130  0.59731  Biso   1.000  C
  C61      1.0000 0.79297  0.06203  0.23602  Biso   1.000  C
  C62      1.0000 0.93797  0.73093  0.23602  Biso   1.000  C
  C63      1.0000 0.26907  0.20703  0.23602  Biso   1.000  C
  C64      1.0000 0.39537  0.45963  0.93064  Biso   1.000  C
  C65      1.0000 0.54037  0.93573  0.93064  Biso   1.000  C
  C66      1.0000 0.06427  0.60463  0.93064  Biso   1.000  C
  C67      1.0000 0.45963  0.39537  0.56936  Biso   1.000  C
  C68      1.0000 0.60463  0.06427  0.56936  Biso   1.000  C
  C69      1.0000 0.93573  0.54037  0.56936  Biso   1.000  C
  C70      1.0000 0.06203  0.79297  0.26398  Biso   1.000  C
  C71      1.0000 0.20703  0.26907  0.26398  Biso   1.000  C
  C72      1.0000 0.73093  0.93797  0.26398  Biso   1.000  C
  H37      1.0000 0.82780  0.22730  0.10720  Biso   1.000  H
  H38      1.0000 0.77270  0.60050  0.10720  Biso   1.000  H
  H39      1.0000 0.39950  0.17220  0.10720  Biso   1.000  H
  H40      1.0000 0.22730  0.82780  0.39280  Biso   1.000  H
  H41      1.0000 0.17220  0.39950  0.39280  Biso   1.000  H
  H42      1.0000 0.60050  0.77270  0.39280  Biso   1.000  H
  H43      1.0000 0.49447  0.56063  0.44053  Biso   1.000  H
  H44      1.0000 0.43937  0.93383  0.44053  Biso   1.000  H
  H45      1.0000 0.06617  0.50553  0.44053  Biso   1.000  H
  H46      1.0000 0.89397  0.16113  0.72613  Biso   1.000  H
  H47      1.0000 0.83887  0.73283  0.72613  Biso   1.000  H
  H48      1.0000 0.26717  0.10603  0.72613  Biso   1.000  H
  H49      1.0000 0.16113  0.89397  0.77387  Biso   1.000  H
  H50      1.0000 0.10603  0.26717  0.77387  Biso   1.000  H
  H51      1.0000 0.73283  0.83887  0.77387  Biso   1.000  H
  H52      1.0000 0.56063  0.49447  0.05947  Biso   1.000  H
  H53      1.0000 0.50553  0.06617  0.05947  Biso   1.000  H
  H54      1.0000 0.93383  0.43937  0.05947  Biso   1.000  H
  H55      1.0000 0.17220  0.77270  0.89280  Biso   1.000  H
  H56      1.0000 0.22730  0.39950  0.89280  Biso   1.000  H
  H57      1.0000 0.60050  0.82780  0.89280  Biso   1.000  H
  H58      1.0000 0.77270  0.17220  0.60720  Biso   1.000  H
  H59      1.0000 0.82780  0.60050  0.60720  Biso   1.000  H
  H60      1.0000 0.39950  0.22730  0.60720  Biso   1.000  H
  H61      1.0000 0.83887  0.10603  0.22613  Biso   1.000  H
  H62      1.0000 0.89397  0.73283  0.22613  Biso   1.000  H
  H63      1.0000 0.26717  0.16113  0.22613  Biso   1.000  H
  H64      1.0000 0.43937  0.50553  0.94053  Biso   1.000  H
  H65      1.0000 0.49447  0.93383  0.94053  Biso   1.000  H
  H66      1.0000 0.06617  0.56063  0.94053  Biso   1.000  H
  H67      1.0000 0.50553  0.43937  0.55947  Biso   1.000  H
  H68      1.0000 0.56063  0.06617  0.55947  Biso   1.000  H
  H69      1.0000 0.93383  0.49447  0.55947  Biso   1.000  H
  H70      1.0000 0.10603  0.83887  0.27387  Biso   1.000  H
  H71      1.0000 0.16113  0.26717  0.27387  Biso   1.000  H
  H72      1.0000 0.73283  0.89397  0.27387  Biso   1.000  H
  C73      1.0000 0.86760  0.33330  0.08330  Biso   1.000  C
  C74      1.0000 0.66670  0.53430  0.08330  Biso   1.000  C
  C75      1.0000 0.46570  0.13240  0.08330  Biso   1.000  C
  C76      1.0000 0.33330  0.86760  0.41670  Biso   1.000  C
  C77      1.0000 0.13240  0.46570  0.41670  Biso   1.000  C
  C78      1.0000 0.53430  0.66670  0.41670  Biso   1.000  C
  C79      1.0000 0.99997  0.20093  0.75003  Biso   1.000  C
  C80      1.0000 0.79907  0.79903  0.75003  Biso   1.000  C
  C81      1.0000 0.20097  0.00003  0.75003  Biso   1.000  C
  C82      1.0000 0.13240  0.66670  0.91670  Biso   1.000  C
  C83      1.0000 0.33330  0.46570  0.91670  Biso   1.000  C
  C84      1.0000 0.53430  0.86760  0.91670  Biso   1.000  C
  C85      1.0000 0.66670  0.13240  0.58330  Biso   1.000  C
  C86      1.0000 0.86760  0.53430  0.58330  Biso   1.000  C
  C87      1.0000 0.46570  0.33330  0.58330  Biso   1.000  C
  C88      1.0000 0.79907  0.00003  0.25003  Biso   1.000  C
  C89      1.0000 0.99997  0.79903  0.25003  Biso   1.000  C
  C90      1.0000 0.20097  0.20093  0.25003  Biso   1.000  C
  H73      1.0000 0.81770  0.33330  0.08330  Biso   1.000  H
  H74      1.0000 0.66670  0.48440  0.08330  Biso   1.000  H
  H75      1.0000 0.51560  0.18230  0.08330  Biso   1.000  H
  H76      1.0000 0.33330  0.81770  0.41670  Biso   1.000  H
  H77      1.0000 0.18230  0.51560  0.41670  Biso   1.000  H
  H78      1.0000 0.48440  0.66670  0.41670  Biso   1.000  H
  H79      1.0000 0.99997  0.15103  0.75003  Biso   1.000  H
  H80      1.0000 0.84897  0.84893  0.75003  Biso   1.000  H
  H81      1.0000 0.15107  0.00003  0.75003  Biso   1.000  H
  H82      1.0000 0.18230  0.66670  0.91670  Biso   1.000  H
  H83      1.0000 0.33330  0.51560  0.91670  Biso   1.000  H
  H84      1.0000 0.48440  0.81770  0.91670  Biso   1.000  H
  H85      1.0000 0.66670  0.18230  0.58330  Biso   1.000  H
  H86      1.0000 0.81770  0.48440  0.58330  Biso   1.000  H
  H87      1.0000 0.51560  0.33330  0.58330  Biso   1.000  H
  H88      1.0000 0.84897  0.00003  0.25003  Biso   1.000  H
  H89      1.0000 0.99997  0.84893  0.25003  Biso   1.000  H
  H90      1.0000 0.15107  0.15103  0.25003  Biso   1.000  H
  C91      1.0000 0.19770  0.35700  0.01701  Biso   1.000  C
  C92      1.0000 0.64300  0.84070  0.01701  Biso   1.000  C
  C93      1.0000 0.15930  0.80230  0.01701  Biso   1.000  C
  C94      1.0000 0.35700  0.19770  0.48299  Biso   1.000  C
  C95      1.0000 0.80230  0.15930  0.48299  Biso   1.000  C
  C96      1.0000 0.84070  0.64300  0.48299  Biso   1.000  C
  C97      1.0000 0.86437  0.69033  0.35034  Biso   1.000  C
  C98      1.0000 0.30967  0.17403  0.35034  Biso   1.000  C
  C99      1.0000 0.82597  0.13563  0.35034  Biso   1.000  C
  C100     1.0000 0.02367  0.53103  0.81632  Biso   1.000  C
  C101     1.0000 0.46897  0.49263  0.81632  Biso   1.000  C
  C102     1.0000 0.50737  0.97633  0.81632  Biso   1.000  C
  C103     1.0000 0.53103  0.02367  0.68368  Biso   1.000  C
  C104     1.0000 0.97633  0.50737  0.68368  Biso   1.000  C
  C105     1.0000 0.49263  0.46897  0.68368  Biso   1.000  C
  C106     1.0000 0.69033  0.86437  0.14966  Biso   1.000  C
  C107     1.0000 0.13563  0.82597  0.14966  Biso   1.000  C
  C108     1.0000 0.17403  0.30967  0.14966  Biso   1.000  C
  C109     1.0000 0.80230  0.64300  0.98299  Biso   1.000  C
  C110     1.0000 0.35700  0.15930  0.98299  Biso   1.000  C
  C111     1.0000 0.84070  0.19770  0.98299  Biso   1.000  C
  C112     1.0000 0.64300  0.80230  0.51701  Biso   1.000  C
  C113     1.0000 0.19770  0.84070  0.51701  Biso   1.000  C
  C114     1.0000 0.15930  0.35700  0.51701  Biso   1.000  C
  C115     1.0000 0.46897  0.97633  0.31632  Biso   1.000  C
  C116     1.0000 0.02367  0.49263  0.31632  Biso   1.000  C
  C117     1.0000 0.50737  0.53103  0.31632  Biso   1.000  C
  C118     1.0000 0.30967  0.13563  0.85034  Biso   1.000  C
  C119     1.0000 0.86437  0.17403  0.85034  Biso   1.000  C
  C120     1.0000 0.82597  0.69033  0.85034  Biso   1.000  C
  C121     1.0000 0.13563  0.30967  0.64966  Biso   1.000  C
  C122     1.0000 0.69033  0.82597  0.64966  Biso   1.000  C
  C123     1.0000 0.17403  0.86437  0.64966  Biso   1.000  C
  C124     1.0000 0.97633  0.46897  0.18368  Biso   1.000  C
  C125     1.0000 0.53103  0.50737  0.18368  Biso   1.000  C
  C126     1.0000 0.49263  0.02367  0.18368  Biso   1.000  C
  H91      1.0000 0.24650  0.39750  0.02670  Biso   1.000  H
  H92      1.0000 0.60250  0.84900  0.02670  Biso   1.000  H
  H93      1.0000 0.15100  0.75350  0.02670  Biso   1.000  H
  H94      1.0000 0.39750  0.24650  0.47330  Biso   1.000  H
  H95      1.0000 0.75350  0.15100  0.47330  Biso   1.000  H
  H96      1.0000 0.84900  0.60250  0.47330  Biso   1.000  H
  H97      1.0000 0.91317  0.73083  0.36003  Biso   1.000  H
  H98      1.0000 0.26917  0.18233  0.36003  Biso   1.000  H
  H99      1.0000 0.81767  0.08683  0.36003  Biso   1.000  H
  H100     1.0000 0.06417  0.57983  0.80663  Biso   1.000  H
  H101     1.0000 0.42017  0.48433  0.80663  Biso   1.000  H
  H102     1.0000 0.51567  0.93583  0.80663  Biso   1.000  H
  H103     1.0000 0.57983  0.06417  0.69337  Biso   1.000  H
  H104     1.0000 0.93583  0.51567  0.69337  Biso   1.000  H
  H105     1.0000 0.48433  0.42017  0.69337  Biso   1.000  H
  H106     1.0000 0.73083  0.91317  0.13997  Biso   1.000  H
  H107     1.0000 0.08683  0.81767  0.13997  Biso   1.000  H
  H108     1.0000 0.18233  0.26917  0.13997  Biso   1.000  H
  H109     1.0000 0.75350  0.60250  0.97330  Biso   1.000  H
  H110     1.0000 0.39750  0.15100  0.97330  Biso   1.000  H
  H111     1.0000 0.84900  0.24650  0.97330  Biso   1.000  H
  H112     1.0000 0.60250  0.75350  0.52670  Biso   1.000  H
  H113     1.0000 0.24650  0.84900  0.52670  Biso   1.000  H
  H114     1.0000 0.15100  0.39750  0.52670  Biso   1.000  H
  H115     1.0000 0.42017  0.93583  0.30663  Biso   1.000  H
  H116     1.0000 0.06417  0.48433  0.30663  Biso   1.000  H
  H117     1.0000 0.51567  0.57983  0.30663  Biso   1.000  H
  H118     1.0000 0.26917  0.08683  0.86003  Biso   1.000  H
  H119     1.0000 0.91317  0.18233  0.86003  Biso   1.000  H
  H120     1.0000 0.81767  0.73083  0.86003  Biso   1.000  H
  H121     1.0000 0.08683  0.26917  0.63997  Biso   1.000  H
  H122     1.0000 0.73083  0.81767  0.63997  Biso   1.000  H
  H123     1.0000 0.18233  0.91317  0.63997  Biso   1.000  H
  H124     1.0000 0.93583  0.42017  0.19337  Biso   1.000  H
  H125     1.0000 0.57983  0.51567  0.19337  Biso   1.000  H
  H126     1.0000 0.48433  0.06417  0.19337  Biso   1.000  H
  C127     1.0000 0.19570  0.34610  0.98416  Biso   1.000  C
  C128     1.0000 0.65390  0.84960  0.98416  Biso   1.000  C
  C129     1.0000 0.15040  0.80430  0.98416  Biso   1.000  C
  C130     1.0000 0.34610  0.19570  0.51584  Biso   1.000  C
  C131     1.0000 0.80430  0.15040  0.51584  Biso   1.000  C
  C132     1.0000 0.84960  0.65390  0.51584  Biso   1.000  C
  C133     1.0000 0.86237  0.67943  0.31749  Biso   1.000  C
  C134     1.0000 0.32057  0.18293  0.31749  Biso   1.000  C
  C135     1.0000 0.81707  0.13763  0.31749  Biso   1.000  C
  C136     1.0000 0.01277  0.52903  0.84917  Biso   1.000  C
  C137     1.0000 0.47097  0.48373  0.84917  Biso   1.000  C
  C138     1.0000 0.51627  0.98723  0.84917  Biso   1.000  C
  C139     1.0000 0.52903  0.01277  0.65083  Biso   1.000  C
  C140     1.0000 0.98723  0.51627  0.65083  Biso   1.000  C
  C141     1.0000 0.48373  0.47097  0.65083  Biso   1.000  C
  C142     1.0000 0.67943  0.86237  0.18251  Biso   1.000  C
  C143     1.0000 0.13763  0.81707  0.18251  Biso   1.000  C
  C144     1.0000 0.18293  0.32057  0.18251  Biso   1.000  C
  C145     1.0000 0.80430  0.65390  0.01584  Biso   1.000  C
  C146     1.0000 0.34610  0.15040  0.01584  Biso   1.000  C
  C147     1.0000 0.84960  0.19570  0.01584  Biso   1.000  C
  C148     1.0000 0.65390  0.80430  0.48416  Biso   1.000  C
  C149     1.0000 0.19570  0.84960  0.48416  Biso   1.000  C
  C150     1.0000 0.15040  0.34610  0.48416  Biso   1.000  C
  C151     1.0000 0.47097  0.98723  0.34917  Biso   1.000  C
  C152     1.0000 0.01277  0.48373  0.34917  Biso   1.000  C
  C153     1.0000 0.51627  0.52903  0.34917  Biso   1.000  C
  C154     1.0000 0.32057  0.13763  0.81749  Biso   1.000  C
  C155     1.0000 0.86237  0.18293  0.81749  Biso   1.000  C
  C156     1.0000 0.81707  0.67943  0.81749  Biso   1.000  C
  C157     1.0000 0.13763  0.32057  0.68251  Biso   1.000  C
  C158     1.0000 0.67943  0.81707  0.68251  Biso   1.000  C
  C159     1.0000 0.18293  0.86237  0.68251  Biso   1.000  C
  C160     1.0000 0.98723  0.47097  0.15083  Biso   1.000  C
  C161     1.0000 0.52903  0.51627  0.15083  Biso   1.000  C
  C162     1.0000 0.48373  0.01277  0.15083  Biso   1.000  C
  H127     1.0000 0.24270  0.37850  0.97160  Biso   1.000  H
  H128     1.0000 0.62150  0.86420  0.97160  Biso   1.000  H
  H129     1.0000 0.13580  0.75730  0.97160  Biso   1.000  H
  H130     1.0000 0.37850  0.24270  0.52840  Biso   1.000  H
  H131     1.0000 0.75730  0.13580  0.52840  Biso   1.000  H
  H132     1.0000 0.86420  0.62150  0.52840  Biso   1.000  H
  H133     1.0000 0.90937  0.71183  0.30493  Biso   1.000  H
  H134     1.0000 0.28817  0.19753  0.30493  Biso   1.000  H
  H135     1.0000 0.80247  0.09063  0.30493  Biso   1.000  H
  H136     1.0000 0.04517  0.57603  0.86173  Biso   1.000  H
  H137     1.0000 0.42397  0.46913  0.86173  Biso   1.000  H
  H138     1.0000 0.53087  0.95483  0.86173  Biso   1.000  H
  H139     1.0000 0.57603  0.04517  0.63827  Biso   1.000  H
  H140     1.0000 0.95483  0.53087  0.63827  Biso   1.000  H
  H141     1.0000 0.46913  0.42397  0.63827  Biso   1.000  H
  H142     1.0000 0.71183  0.90937  0.19507  Biso   1.000  H
  H143     1.0000 0.09063  0.80247  0.19507  Biso   1.000  H
  H144     1.0000 0.19753  0.28817  0.19507  Biso   1.000  H
  H145     1.0000 0.75730  0.62150  0.02840  Biso   1.000  H
  H146     1.0000 0.37850  0.13580  0.02840  Biso   1.000  H
  H147     1.0000 0.86420  0.24270  0.02840  Biso   1.000  H
  H148     1.0000 0.62150  0.75730  0.47160  Biso   1.000  H
  H149     1.0000 0.24270  0.86420  0.47160  Biso   1.000  H
  H150     1.0000 0.13580  0.37850  0.47160  Biso   1.000  H
  H151     1.0000 0.42397  0.95483  0.36173  Biso   1.000  H
  H152     1.0000 0.04517  0.46913  0.36173  Biso   1.000  H
  H153     1.0000 0.53087  0.57603  0.36173  Biso   1.000  H
  H154     1.0000 0.28817  0.09063  0.80493  Biso   1.000  H
  H155     1.0000 0.90937  0.19753  0.80493  Biso   1.000  H
  H156     1.0000 0.80247  0.71183  0.80493  Biso   1.000  H
  H157     1.0000 0.09063  0.28817  0.69507  Biso   1.000  H
  H158     1.0000 0.71183  0.80247  0.69507  Biso   1.000  H
  H159     1.0000 0.19753  0.90937  0.69507  Biso   1.000  H
  H160     1.0000 0.95483  0.42397  0.13827  Biso   1.000  H
  H161     1.0000 0.57603  0.53087  0.13827  Biso   1.000  H
  H162     1.0000 0.46913  0.04517  0.13827  Biso   1.000  H
  C163     1.0000 0.12550  0.28820  0.96972  Biso   1.000  C
  C164     1.0000 0.71180  0.83730  0.96972  Biso   1.000  C
  C165     1.0000 0.16270  0.87450  0.96972  Biso   1.000  C
  C166     1.0000 0.28820  0.12550  0.53028  Biso   1.000  C
  C167     1.0000 0.87450  0.16270  0.53028  Biso   1.000  C
  C168     1.0000 0.83730  0.71180  0.53028  Biso   1.000  C
  C169     1.0000 0.79217  0.62153  0.30305  Biso   1.000  C
  C170     1.0000 0.37847  0.17063  0.30305  Biso   1.000  C
  C171     1.0000 0.82937  0.20783  0.30305  Biso   1.000  C
  C172     1.0000 0.95487  0.45883  0.86361  Biso   1.000  C
  C173     1.0000 0.54117  0.49603  0.86361  Biso   1.000  C
  C174     1.0000 0.50397  0.04513  0.86361  Biso   1.000  C
  C175     1.0000 0.45883  0.95487  0.63639  Biso   1.000  C
  C176     1.0000 0.04513  0.50397  0.63639  Biso   1.000  C
  C177     1.0000 0.49603  0.54117  0.63639  Biso   1.000  C
  C178     1.0000 0.62153  0.79217  0.19695  Biso   1.000  C
  C179     1.0000 0.20783  0.82937  0.19695  Biso   1.000  C
  C180     1.0000 0.17063  0.37847  0.19695  Biso   1.000  C
  C181     1.0000 0.87450  0.71180  0.03028  Biso   1.000  C
  C182     1.0000 0.28820  0.16270  0.03028  Biso   1.000  C
  C183     1.0000 0.83730  0.12550  0.03028  Biso   1.000  C
  C184     1.0000 0.71180  0.87450  0.46972  Biso   1.000  C
  C185     1.0000 0.12550  0.83730  0.46972  Biso   1.000  C
  C186     1.0000 0.16270  0.28820  0.46972  Biso   1.000  C
  C187     1.0000 0.54117  0.04513  0.36361  Biso   1.000  C
  C188     1.0000 0.95487  0.49603  0.36361  Biso   1.000  C
  C189     1.0000 0.50397  0.45883  0.36361  Biso   1.000  C
  C190     1.0000 0.37847  0.20783  0.80305  Biso   1.000  C
  C191     1.0000 0.79217  0.17063  0.80305  Biso   1.000  C
  C192     1.0000 0.82937  0.62153  0.80305  Biso   1.000  C
  C193     1.0000 0.20783  0.37847  0.69695  Biso   1.000  C
  C194     1.0000 0.62153  0.82937  0.69695  Biso   1.000  C
  C195     1.0000 0.17063  0.79217  0.69695  Biso   1.000  C
  C196     1.0000 0.04513  0.54117  0.13639  Biso   1.000  C
  C197     1.0000 0.45883  0.50397  0.13639  Biso   1.000  C
  C198     1.0000 0.49603  0.95487  0.13639  Biso   1.000  C
  H163     1.0000 0.12280  0.28060  0.94710  Biso   1.000  H
  H164     1.0000 0.71940  0.84220  0.94710  Biso   1.000  H
  H165     1.0000 0.15780  0.87720  0.94710  Biso   1.000  H
  H166     1.0000 0.28060  0.12280  0.55290  Biso   1.000  H
  H167     1.0000 0.87720  0.15780  0.55290  Biso   1.000  H
  H168     1.0000 0.84220  0.71940  0.55290  Biso   1.000  H
  H169     1.0000 0.78947  0.61393  0.28043  Biso   1.000  H
  H170     1.0000 0.38607  0.17553  0.28043  Biso   1.000  H
  H171     1.0000 0.82447  0.21053  0.28043  Biso   1.000  H
  H172     1.0000 0.94727  0.45613  0.88623  Biso   1.000  H
  H173     1.0000 0.54387  0.49113  0.88623  Biso   1.000  H
  H174     1.0000 0.50887  0.05273  0.88623  Biso   1.000  H
  H175     1.0000 0.45613  0.94727  0.61377  Biso   1.000  H
  H176     1.0000 0.05273  0.50887  0.61377  Biso   1.000  H
  H177     1.0000 0.49113  0.54387  0.61377  Biso   1.000  H
  H178     1.0000 0.61393  0.78947  0.21957  Biso   1.000  H
  H179     1.0000 0.21053  0.82447  0.21957  Biso   1.000  H
  H180     1.0000 0.17553  0.38607  0.21957  Biso   1.000  H
  H181     1.0000 0.87720  0.71940  0.05290  Biso   1.000  H
  H182     1.0000 0.28060  0.15780  0.05290  Biso   1.000  H
  H183     1.0000 0.84220  0.12280  0.05290  Biso   1.000  H
  H184     1.0000 0.71940  0.87720  0.44710  Biso   1.000  H
  H185     1.0000 0.12280  0.84220  0.44710  Biso   1.000  H
  H186     1.0000 0.15780  0.28060  0.44710  Biso   1.000  H
  H187     1.0000 0.54387  0.05273  0.38623  Biso   1.000  H
  H188     1.0000 0.94727  0.49113  0.38623  Biso   1.000  H
  H189     1.0000 0.50887  0.45613  0.38623  Biso   1.000  H
  H190     1.0000 0.38607  0.21053  0.78043  Biso   1.000  H
  H191     1.0000 0.78947  0.17553  0.78043  Biso   1.000  H
  H192     1.0000 0.82447  0.61393  0.78043  Biso   1.000  H
  H193     1.0000 0.21053  0.38607  0.71957  Biso   1.000  H
  H194     1.0000 0.61393  0.82447  0.71957  Biso   1.000  H
  H195     1.0000 0.17553  0.78947  0.71957  Biso   1.000  H
  H196     1.0000 0.05273  0.54387  0.11377  Biso   1.000  H
  H197     1.0000 0.45613  0.50887  0.11377  Biso   1.000  H
  H198     1.0000 0.49113  0.94727  0.11377  Biso   1.000  H
  C199     1.0000 0.05900  0.24140  0.98891  Biso   1.000  C
  C200     1.0000 0.75860  0.81760  0.98891  Biso   1.000  C
  C201     1.0000 0.18240  0.94100  0.98891  Biso   1.000  C
  C202     1.0000 0.24140  0.05900  0.51109  Biso   1.000  C
  C203     1.0000 0.94100  0.18240  0.51109  Biso   1.000  C
  C204     1.0000 0.81760  0.75860  0.51109  Biso   1.000  C
  C205     1.0000 0.72567  0.57473  0.32224  Biso   1.000  C
  C206     1.0000 0.42527  0.15093  0.32224  Biso   1.000  C
  C207     1.0000 0.84907  0.27433  0.32224  Biso   1.000  C
  C208     1.0000 0.90807  0.39233  0.84442  Biso   1.000  C
  C209     1.0000 0.60767  0.51573  0.84442  Biso   1.000  C
  C210     1.0000 0.48427  0.09193  0.84442  Biso   1.000  C
  C211     1.0000 0.39233  0.90807  0.65558  Biso   1.000  C
  C212     1.0000 0.09193  0.48427  0.65558  Biso   1.000  C
  C213     1.0000 0.51573  0.60767  0.65558  Biso   1.000  C
  C214     1.0000 0.57473  0.72567  0.17776  Biso   1.000  C
  C215     1.0000 0.27433  0.84907  0.17776  Biso   1.000  C
  C216     1.0000 0.15093  0.42527  0.17776  Biso   1.000  C
  C217     1.0000 0.94100  0.75860  0.01109  Biso   1.000  C
  C218     1.0000 0.24140  0.18240  0.01109  Biso   1.000  C
  C219     1.0000 0.81760  0.05900  0.01109  Biso   1.000  C
  C220     1.0000 0.75860  0.94100  0.48891  Biso   1.000  C
  C221     1.0000 0.05900  0.81760  0.48891  Biso   1.000  C
  C222     1.0000 0.18240  0.24140  0.48891  Biso   1.000  C
  C223     1.0000 0.60767  0.09193  0.34442  Biso   1.000  C
  C224     1.0000 0.90807  0.51573  0.34442  Biso   1.000  C
  C225     1.0000 0.48427  0.39233  0.34442  Biso   1.000  C
  C226     1.0000 0.42527  0.27433  0.82224  Biso   1.000  C
  C227     1.0000 0.72567  0.15093  0.82224  Biso   1.000  C
  C228     1.0000 0.84907  0.57473  0.82224  Biso   1.000  C
  C229     1.0000 0.27433  0.42527  0.67776  Biso   1.000  C
  C230     1.0000 0.57473  0.84907  0.67776  Biso   1.000  C
  C231     1.0000 0.15093  0.72567  0.67776  Biso   1.000  C
  C232     1.0000 0.09193  0.60767  0.15558  Biso   1.000  C
  C233     1.0000 0.39233  0.48427  0.15558  Biso   1.000  C
  C234     1.0000 0.51573  0.90807  0.15558  Biso   1.000  C
  H199     1.0000 0.00970  0.20060  0.97970  Biso   1.000  H
  H200     1.0000 0.79940  0.80910  0.97970  Biso   1.000  H
  H201     1.0000 0.19090  0.99030  0.97970  Biso   1.000  H
  H202     1.0000 0.20060  0.00970  0.52030  Biso   1.000  H
  H203     1.0000 0.99030  0.19090  0.52030  Biso   1.000  H
  H204     1.0000 0.80910  0.79940  0.52030  Biso   1.000  H
  H205     1.0000 0.67637  0.53393  0.31303  Biso   1.000  H
  H206     1.0000 0.46607  0.14243  0.31303  Biso   1.000  H
  H207     1.0000 0.85757  0.32363  0.31303  Biso   1.000  H
  H208     1.0000 0.86727  0.34303  0.85363  Biso   1.000  H
  H209     1.0000 0.65697  0.52423  0.85363  Biso   1.000  H
  H210     1.0000 0.47577  0.13273  0.85363  Biso   1.000  H
  H211     1.0000 0.34303  0.86727  0.64637  Biso   1.000  H
  H212     1.0000 0.13273  0.47577  0.64637  Biso   1.000  H
  H213     1.0000 0.52423  0.65697  0.64637  Biso   1.000  H
  H214     1.0000 0.53393  0.67637  0.18697  Biso   1.000  H
  H215     1.0000 0.32363  0.85757  0.18697  Biso   1.000  H
  H216     1.0000 0.14243  0.46607  0.18697  Biso   1.000  H
  H217     1.0000 0.99030  0.79940  0.02030  Biso   1.000  H
  H218     1.0000 0.20060  0.19090  0.02030  Biso   1.000  H
  H219     1.0000 0.80910  0.00970  0.02030  Biso   1.000  H
  H220     1.0000 0.79940  0.99030  0.47970  Biso   1.000  H
  H221     1.0000 0.00970  0.80910  0.47970  Biso   1.000  H
  H222     1.0000 0.19090  0.20060  0.47970  Biso   1.000  H
  H223     1.0000 0.65697  0.13273  0.35363  Biso   1.000  H
  H224     1.0000 0.86727  0.52423  0.35363  Biso   1.000  H
  H225     1.0000 0.47577  0.34303  0.35363  Biso   1.000  H
  H226     1.0000 0.46607  0.32363  0.81303  Biso   1.000  H
  H227     1.0000 0.67637  0.14243  0.81303  Biso   1.000  H
  H228     1.0000 0.85757  0.53393  0.81303  Biso   1.000  H
  H229     1.0000 0.32363  0.46607  0.68697  Biso   1.000  H
  H230     1.0000 0.53393  0.85757  0.68697  Biso   1.000  H
  H231     1.0000 0.14243  0.67637  0.68697  Biso   1.000  H
  H232     1.0000 0.13273  0.65697  0.14637  Biso   1.000  H
  H233     1.0000 0.34303  0.47577  0.14637  Biso   1.000  H
  H234     1.0000 0.52423  0.86727  0.14637  Biso   1.000  H
  C235     1.0000 0.06540  0.25470  0.02159  Biso   1.000  C
  C236     1.0000 0.74530  0.81070  0.02159  Biso   1.000  C
  C237     1.0000 0.18930  0.93460  0.02159  Biso   1.000  C
  C238     1.0000 0.25470  0.06540  0.47841  Biso   1.000  C
  C239     1.0000 0.93460  0.18930  0.47841  Biso   1.000  C
  C240     1.0000 0.81070  0.74530  0.47841  Biso   1.000  C
  C241     1.0000 0.73207  0.58803  0.35492  Biso   1.000  C
  C242     1.0000 0.41197  0.14403  0.35492  Biso   1.000  C
  C243     1.0000 0.85597  0.26793  0.35492  Biso   1.000  C
  C244     1.0000 0.92137  0.39873  0.81174  Biso   1.000  C
  C245     1.0000 0.60127  0.52263  0.81174  Biso   1.000  C
  C246     1.0000 0.47737  0.07863  0.81174  Biso   1.000  C
  C247     1.0000 0.39873  0.92137  0.68826  Biso   1.000  C
  C248     1.0000 0.07863  0.47737  0.68826  Biso   1.000  C
  C249     1.0000 0.52263  0.60127  0.68826  Biso   1.000  C
  C250     1.0000 0.58803  0.73207  0.14508  Biso   1.000  C
  C251     1.0000 0.26793  0.85597  0.14508  Biso   1.000  C
  C252     1.0000 0.14403  0.41197  0.14508  Biso   1.000  C
  C253     1.0000 0.93460  0.74530  0.97841  Biso   1.000  C
  C254     1.0000 0.25470  0.18930  0.97841  Biso   1.000  C
  C255     1.0000 0.81070  0.06540  0.97841  Biso   1.000  C
  C256     1.0000 0.74530  0.93460  0.52159  Biso   1.000  C
  C257     1.0000 0.06540  0.81070  0.52159  Biso   1.000  C
  C258     1.0000 0.18930  0.25470  0.52159  Biso   1.000  C
  C259     1.0000 0.60127  0.07863  0.31174  Biso   1.000  C
  C260     1.0000 0.92137  0.52263  0.31174  Biso   1.000  C
  C261     1.0000 0.47737  0.39873  0.31174  Biso   1.000  C
  C262     1.0000 0.41197  0.26793  0.85492  Biso   1.000  C
  C263     1.0000 0.73207  0.14403  0.85492  Biso   1.000  C
  C264     1.0000 0.85597  0.58803  0.85492  Biso   1.000  C
  C265     1.0000 0.26793  0.41197  0.64508  Biso   1.000  C
  C266     1.0000 0.58803  0.85597  0.64508  Biso   1.000  C
  C267     1.0000 0.14403  0.73207  0.64508  Biso   1.000  C
  C268     1.0000 0.07863  0.60127  0.18826  Biso   1.000  C
  C269     1.0000 0.39873  0.47737  0.18826  Biso   1.000  C
  C270     1.0000 0.52263  0.92137  0.18826  Biso   1.000  C
  H235     1.0000 0.01990  0.22170  0.03470  Biso   1.000  H
  H236     1.0000 0.77830  0.79820  0.03470  Biso   1.000  H
  H237     1.0000 0.20180  0.98010  0.03470  Biso   1.000  H
  H238     1.0000 0.22170  0.01990  0.46530  Biso   1.000  H
  H239     1.0000 0.98010  0.20180  0.46530  Biso   1.000  H
  H240     1.0000 0.79820  0.77830  0.46530  Biso   1.000  H
  H241     1.0000 0.68657  0.55503  0.36803  Biso   1.000  H
  H242     1.0000 0.44497  0.13153  0.36803  Biso   1.000  H
  H243     1.0000 0.86847  0.31343  0.36803  Biso   1.000  H
  H244     1.0000 0.88837  0.35323  0.79863  Biso   1.000  H
  H245     1.0000 0.64677  0.53513  0.79863  Biso   1.000  H
  H246     1.0000 0.46487  0.11163  0.79863  Biso   1.000  H
  H247     1.0000 0.35323  0.88837  0.70137  Biso   1.000  H
  H248     1.0000 0.11163  0.46487  0.70137  Biso   1.000  H
  H249     1.0000 0.53513  0.64677  0.70137  Biso   1.000  H
  H250     1.0000 0.55503  0.68657  0.13197  Biso   1.000  H
  H251     1.0000 0.31343  0.86847  0.13197  Biso   1.000  H
  H252     1.0000 0.13153  0.44497  0.13197  Biso   1.000  H
  H253     1.0000 0.98010  0.77830  0.96530  Biso   1.000  H
  H254     1.0000 0.22170  0.20180  0.96530  Biso   1.000  H
  H255     1.0000 0.79820  0.01990  0.96530  Biso   1.000  H
  H256     1.0000 0.77830  0.98010  0.53470  Biso   1.000  H
  H257     1.0000 0.01990  0.79820  0.53470  Biso   1.000  H
  H258     1.0000 0.20180  0.22170  0.53470  Biso   1.000  H
  H259     1.0000 0.64677  0.11163  0.29863  Biso   1.000  H
  H260     1.0000 0.88837  0.53513  0.29863  Biso   1.000  H
  H261     1.0000 0.46487  0.35323  0.29863  Biso   1.000  H
  H262     1.0000 0.44497  0.31343  0.86803  Biso   1.000  H
  H263     1.0000 0.68657  0.13153  0.86803  Biso   1.000  H
  H264     1.0000 0.86847  0.55503  0.86803  Biso   1.000  H
  H265     1.0000 0.31343  0.44497  0.63197  Biso   1.000  H
  H266     1.0000 0.55503  0.86847  0.63197  Biso   1.000  H
  H267     1.0000 0.13153  0.68657  0.63197  Biso   1.000  H
  H268     1.0000 0.11163  0.64677  0.20137  Biso   1.000  H
  H269     1.0000 0.35323  0.46487  0.20137  Biso   1.000  H
  H270     1.0000 0.53513  0.88837  0.20137  Biso   1.000  H
  C271     1.0000 0.10860  0.17390  0.08763  Biso   1.000  C
  C272     1.0000 0.82610  0.93470  0.08763  Biso   1.000  C
  C273     1.0000 0.06530  0.89140  0.08763  Biso   1.000  C
  C274     1.0000 0.17390  0.10860  0.41237  Biso   1.000  C
  C275     1.0000 0.89140  0.06530  0.41237  Biso   1.000  C
  C276     1.0000 0.93470  0.82610  0.41237  Biso   1.000  C
  C277     1.0000 0.77527  0.50723  0.42096  Biso   1.000  C
  C278     1.0000 0.49277  0.26803  0.42096  Biso   1.000  C
  C279     1.0000 0.73197  0.22473  0.42096  Biso   1.000  C
  C280     1.0000 0.84057  0.44193  0.74570  Biso   1.000  C
  C281     1.0000 0.55807  0.39863  0.74570  Biso   1.000  C
  C282     1.0000 0.60137  0.15943  0.74570  Biso   1.000  C
  C283     1.0000 0.44193  0.84057  0.75430  Biso   1.000  C
  C284     1.0000 0.15943  0.60137  0.75430  Biso   1.000  C
  C285     1.0000 0.39863  0.55807  0.75430  Biso   1.000  C
  C286     1.0000 0.50723  0.77527  0.07904  Biso   1.000  C
  C287     1.0000 0.22473  0.73197  0.07904  Biso   1.000  C
  C288     1.0000 0.26803  0.49277  0.07904  Biso   1.000  C
  C289     1.0000 0.89140  0.82610  0.91237  Biso   1.000  C
  C290     1.0000 0.17390  0.06530  0.91237  Biso   1.000  C
  C291     1.0000 0.93470  0.10860  0.91237  Biso   1.000  C
  C292     1.0000 0.82610  0.89140  0.58763  Biso   1.000  C
  C293     1.0000 0.10860  0.93470  0.58763  Biso   1.000  C
  C294     1.0000 0.06530  0.17390  0.58763  Biso   1.000  C
  C295     1.0000 0.55807  0.15943  0.24570  Biso   1.000  C
  C296     1.0000 0.84057  0.39863  0.24570  Biso   1.000  C
  C297     1.0000 0.60137  0.44193  0.24570  Biso   1.000  C
  C298     1.0000 0.49277  0.22473  0.92096  Biso   1.000  C
  C299     1.0000 0.77527  0.26803  0.92096  Biso   1.000  C
  C300     1.0000 0.73197  0.50723  0.92096  Biso   1.000  C
  C301     1.0000 0.22473  0.49277  0.57904  Biso   1.000  C
  C302     1.0000 0.50723  0.73197  0.57904  Biso   1.000  C
  C303     1.0000 0.26803  0.77527  0.57904  Biso   1.000  C
  C304     1.0000 0.15943  0.55807  0.25430  Biso   1.000  C
  C305     1.0000 0.44193  0.60137  0.25430  Biso   1.000  C
  C306     1.0000 0.39863  0.84057  0.25430  Biso   1.000  C
  C307     1.0000 0.05170  0.08400  0.08721  Biso   1.000  C
  C308     1.0000 0.91600  0.96770  0.08721  Biso   1.000  C
  C309     1.0000 0.03230  0.94830  0.08721  Biso   1.000  C
  C310     1.0000 0.08400  0.05170  0.41279  Biso   1.000  C
  C311     1.0000 0.94830  0.03230  0.41279  Biso   1.000  C
  C312     1.0000 0.96770  0.91600  0.41279  Biso   1.000  C
  C313     1.0000 0.71837  0.41733  0.42054  Biso   1.000  C
  C314     1.0000 0.58267  0.30103  0.42054  Biso   1.000  C
  C315     1.0000 0.69897  0.28163  0.42054  Biso   1.000  C
  C316     1.0000 0.75067  0.38503  0.74612  Biso   1.000  C
  C317     1.0000 0.61497  0.36563  0.74612  Biso   1.000  C
  C318     1.0000 0.63437  0.24933  0.74612  Biso   1.000  C
  C319     1.0000 0.38503  0.75067  0.75388  Biso   1.000  C
  C320     1.0000 0.24933  0.63437  0.75388  Biso   1.000  C
  C321     1.0000 0.36563  0.61497  0.75388  Biso   1.000  C
  C322     1.0000 0.41733  0.71837  0.07946  Biso   1.000  C
  C323     1.0000 0.28163  0.69897  0.07946  Biso   1.000  C
  C324     1.0000 0.30103  0.58267  0.07946  Biso   1.000  C
  C325     1.0000 0.94830  0.91600  0.91279  Biso   1.000  C
  C326     1.0000 0.08400  0.03230  0.91279  Biso   1.000  C
  C327     1.0000 0.96770  0.05170  0.91279  Biso   1.000  C
  C328     1.0000 0.91600  0.94830  0.58721  Biso   1.000  C
  C329     1.0000 0.05170  0.96770  0.58721  Biso   1.000  C
  C330     1.0000 0.03230  0.08400  0.58721  Biso   1.000  C
  C331     1.0000 0.61497  0.24933  0.24612  Biso   1.000  C
  C332     1.0000 0.75067  0.36563  0.24612  Biso   1.000  C
  C333     1.0000 0.63437  0.38503  0.24612  Biso   1.000  C
  C334     1.0000 0.58267  0.28163  0.92054  Biso   1.000  C
  C335     1.0000 0.71837  0.30103  0.92054  Biso   1.000  C
  C336     1.0000 0.69897  0.41733  0.92054  Biso   1.000  C
  C337     1.0000 0.28163  0.58267  0.57946  Biso   1.000  C
  C338     1.0000 0.41733  0.69897  0.57946  Biso   1.000  C
  C339     1.0000 0.30103  0.71837  0.57946  Biso   1.000  C
  C340     1.0000 0.24933  0.61497  0.25388  Biso   1.000  C
  C341     1.0000 0.38503  0.63437  0.25388  Biso   1.000  C
  C342     1.0000 0.36563  0.75067  0.25388  Biso   1.000  C
  C343     1.0000 0.08330  0.03100  0.08704  Biso   1.000  C
  C344     1.0000 0.96900  0.05230  0.08704  Biso   1.000  C
  C345     1.0000 0.94770  0.91670  0.08704  Biso   1.000  C
  C346     1.0000 0.03100  0.08330  0.41296  Biso   1.000  C
  C347     1.0000 0.91670  0.94770  0.41296  Biso   1.000  C
  C348     1.0000 0.05230  0.96900  0.41296  Biso   1.000  C
  C349     1.0000 0.74997  0.36433  0.42037  Biso   1.000  C
  C350     1.0000 0.63567  0.38563  0.42037  Biso   1.000  C
  C351     1.0000 0.61437  0.25003  0.42037  Biso   1.000  C
  C352     1.0000 0.69767  0.41663  0.74629  Biso   1.000  C
  C353     1.0000 0.58337  0.28103  0.74629  Biso   1.000  C
  C354     1.0000 0.71897  0.30233  0.74629  Biso   1.000  C
  C355     1.0000 0.41663  0.69767  0.75371  Biso   1.000  C
  C356     1.0000 0.30233  0.71897  0.75371  Biso   1.000  C
  C357     1.0000 0.28103  0.58337  0.75371  Biso   1.000  C
  C358     1.0000 0.36433  0.74997  0.07963  Biso   1.000  C
  C359     1.0000 0.25003  0.61437  0.07963  Biso   1.000  C
  C360     1.0000 0.38563  0.63567  0.07963  Biso   1.000  C
  C361     1.0000 0.91670  0.96900  0.91296  Biso   1.000  C
  C362     1.0000 0.03100  0.94770  0.91296  Biso   1.000  C
  C363     1.0000 0.05230  0.08330  0.91296  Biso   1.000  C
  C364     1.0000 0.96900  0.91670  0.58704  Biso   1.000  C
  C365     1.0000 0.08330  0.05230  0.58704  Biso   1.000  C
  C366     1.0000 0.94770  0.03100  0.58704  Biso   1.000  C
  C367     1.0000 0.58337  0.30233  0.24629  Biso   1.000  C
  C368     1.0000 0.69767  0.28103  0.24629  Biso   1.000  C
  C369     1.0000 0.71897  0.41663  0.24629  Biso   1.000  C
  C370     1.0000 0.63567  0.25003  0.92037  Biso   1.000  C
  C371     1.0000 0.74997  0.38563  0.92037  Biso   1.000  C
  C372     1.0000 0.61437  0.36433  0.92037  Biso   1.000  C
  C373     1.0000 0.25003  0.63567  0.57963  Biso   1.000  C
  C374     1.0000 0.36433  0.61437  0.57963  Biso   1.000  C
  C375     1.0000 0.38563  0.74997  0.57963  Biso   1.000  C
  C376     1.0000 0.30233  0.58337  0.25371  Biso   1.000  C
  C377     1.0000 0.41663  0.71897  0.25371  Biso   1.000  C
  C378     1.0000 0.28103  0.69767  0.25371  Biso   1.000  C
  H271     1.0000 0.14030  0.05260  0.08680  Biso   1.000  H
  H272     1.0000 0.94740  0.08770  0.08680  Biso   1.000  H
  H273     1.0000 0.91230  0.85970  0.08680  Biso   1.000  H
  H274     1.0000 0.05260  0.14030  0.41320  Biso   1.000  H
  H275     1.0000 0.85970  0.91230  0.41320  Biso   1.000  H
  H276     1.0000 0.08770  0.94740  0.41320  Biso   1.000  H
  H277     1.0000 0.80697  0.38593  0.42013  Biso   1.000  H
  H278     1.0000 0.61407  0.42103  0.42013  Biso   1.000  H
  H279     1.0000 0.57897  0.19303  0.42013  Biso   1.000  H
  H280     1.0000 0.71927  0.47363  0.74653  Biso   1.000  H
  H281     1.0000 0.52637  0.24563  0.74653  Biso   1.000  H
  H282     1.0000 0.75437  0.28073  0.74653  Biso   1.000  H
  H283     1.0000 0.47363  0.71927  0.75347  Biso   1.000  H
  H284     1.0000 0.28073  0.75437  0.75347  Biso   1.000  H
  H285     1.0000 0.24563  0.52637  0.75347  Biso   1.000  H
  H286     1.0000 0.38593  0.80697  0.07987  Biso   1.000  H
  H287     1.0000 0.19303  0.57897  0.07987  Biso   1.000  H
  H288     1.0000 0.42103  0.61407  0.07987  Biso   1.000  H
  H289     1.0000 0.85970  0.94740  0.91320  Biso   1.000  H
  H290     1.0000 0.05260  0.91230  0.91320  Biso   1.000  H
  H291     1.0000 0.08770  0.14030  0.91320  Biso   1.000  H
  H292     1.0000 0.94740  0.85970  0.58680  Biso   1.000  H
  H293     1.0000 0.14030  0.08770  0.58680  Biso   1.000  H
  H294     1.0000 0.91230  0.05260  0.58680  Biso   1.000  H
  H295     1.0000 0.52637  0.28073  0.24653  Biso   1.000  H
  H296     1.0000 0.71927  0.24563  0.24653  Biso   1.000  H
  H297     1.0000 0.75437  0.47363  0.24653  Biso   1.000  H
  H298     1.0000 0.61407  0.19303  0.92013  Biso   1.000  H
  H299     1.0000 0.80697  0.42103  0.92013  Biso   1.000  H
  H300     1.0000 0.57897  0.38593  0.92013  Biso   1.000  H
  H301     1.0000 0.19303  0.61407  0.57987  Biso   1.000  H
  H302     1.0000 0.38593  0.57897  0.57987  Biso   1.000  H
  H303     1.0000 0.42103  0.80697  0.57987  Biso   1.000  H
  H304     1.0000 0.28073  0.52637  0.25347  Biso   1.000  H
  H305     1.0000 0.47363  0.75437  0.25347  Biso   1.000  H
  H306     1.0000 0.24563  0.71927  0.25347  Biso   1.000  H
  O73      1.0000 0.33760  0.33330  0.08330  Biso   1.000  O
  O74      1.0000 0.66670  0.00430  0.08330  Biso   1.000  O
  O75      1.0000 0.99570  0.66240  0.08330  Biso   1.000  O
  O76      1.0000 0.33330  0.33760  0.41670  Biso   1.000  O
  O77      1.0000 0.66240  0.99570  0.41670  Biso   1.000  O
  O78      1.0000 0.00430  0.66670  0.41670  Biso   1.000  O
  O79      1.0000 0.99997  0.67093  0.75003  Biso   1.000  O
  O80      1.0000 0.32907  0.32903  0.75003  Biso   1.000  O
  O81      1.0000 0.67097  0.00003  0.75003  Biso   1.000  O
  O82      1.0000 0.66240  0.66670  0.91670  Biso   1.000  O
  O83      1.0000 0.33330  0.99570  0.91670  Biso   1.000  O
  O84      1.0000 0.00430  0.33760  0.91670  Biso   1.000  O
  O85      1.0000 0.66670  0.66240  0.58330  Biso   1.000  O
  O86      1.0000 0.33760  0.00430  0.58330  Biso   1.000  O
  O87      1.0000 0.99570  0.33330  0.58330  Biso   1.000  O
  O88      1.0000 0.32907  0.00003  0.25003  Biso   1.000  O
  O89      1.0000 0.99997  0.32903  0.25003  Biso   1.000  O
  O90      1.0000 0.67097  0.67093  0.25003  Biso   1.000  O
  H307     1.0000 0.28950  0.29210  0.08380  Biso   1.000  H
  H308     1.0000 0.70790  0.99740  0.08380  Biso   1.000  H
  H309     1.0000 0.00260  0.71050  0.08380  Biso   1.000  H
  H310     1.0000 0.29210  0.28950  0.41620  Biso   1.000  H
  H311     1.0000 0.71050  0.00260  0.41620  Biso   1.000  H
  H312     1.0000 0.99740  0.70790  0.41620  Biso   1.000  H
  H313     1.0000 0.95617  0.62543  0.41713  Biso   1.000  H
  H314     1.0000 0.37457  0.33073  0.41713  Biso   1.000  H
  H315     1.0000 0.66927  0.04383  0.41713  Biso   1.000  H
  H316     1.0000 0.95877  0.62283  0.74953  Biso   1.000  H
  H317     1.0000 0.37717  0.33593  0.74953  Biso   1.000  H
  H318     1.0000 0.66407  0.04123  0.74953  Biso   1.000  H
  H319     1.0000 0.62283  0.95877  0.75047  Biso   1.000  H
  H320     1.0000 0.04123  0.66407  0.75047  Biso   1.000  H
  H321     1.0000 0.33593  0.37717  0.75047  Biso   1.000  H
  H322     1.0000 0.62543  0.95617  0.08287  Biso   1.000  H
  H323     1.0000 0.04383  0.66927  0.08287  Biso   1.000  H
  H324     1.0000 0.33073  0.37457  0.08287  Biso   1.000  H
  H325     1.0000 0.71050  0.70790  0.91620  Biso   1.000  H
  H326     1.0000 0.29210  0.00260  0.91620  Biso   1.000  H
  H327     1.0000 0.99740  0.28950  0.91620  Biso   1.000  H
  H328     1.0000 0.70790  0.71050  0.58380  Biso   1.000  H
  H329     1.0000 0.28950  0.99740  0.58380  Biso   1.000  H
  H330     1.0000 0.00260  0.29210  0.58380  Biso   1.000  H
  H331     1.0000 0.37717  0.04123  0.24953  Biso   1.000  H
  H332     1.0000 0.95877  0.33593  0.24953  Biso   1.000  H
  H333     1.0000 0.66407  0.62283  0.24953  Biso   1.000  H
  H334     1.0000 0.37457  0.04383  0.91713  Biso   1.000  H
  H335     1.0000 0.95617  0.33073  0.91713  Biso   1.000  H
  H336     1.0000 0.66927  0.62543  0.91713  Biso   1.000  H
  H337     1.0000 0.04383  0.37457  0.58287  Biso   1.000  H
  H338     1.0000 0.62543  0.66927  0.58287  Biso   1.000  H
  H339     1.0000 0.33073  0.95617  0.58287  Biso   1.000  H
  H340     1.0000 0.04123  0.37717  0.25047  Biso   1.000  H
  H341     1.0000 0.62283  0.66407  0.25047  Biso   1.000  H
  H342     1.0000 0.33593  0.95877  0.25047  Biso   1.000  H
  O91      1.0000 0.48330  0.33330  0.08330  Biso   1.000  O
  O92      1.0000 0.66670  0.15000  0.08330  Biso   1.000  O
  O93      1.0000 0.85000  0.51670  0.08330  Biso   1.000  O
  O94      1.0000 0.33330  0.48330  0.41670  Biso   1.000  O
  O95      1.0000 0.51670  0.85000  0.41670  Biso   1.000  O
  O96      1.0000 0.15000  0.66670  0.41670  Biso   1.000  O
  O97      1.0000 0.99997  0.81663  0.75003  Biso   1.000  O
  O98      1.0000 0.18337  0.18333  0.75003  Biso   1.000  O
  O99      1.0000 0.81667  0.00003  0.75003  Biso   1.000  O
  O100     1.0000 0.51670  0.66670  0.91670  Biso   1.000  O
  O101     1.0000 0.33330  0.85000  0.91670  Biso   1.000  O
  O102     1.0000 0.15000  0.48330  0.91670  Biso   1.000  O
  O103     1.0000 0.66670  0.51670  0.58330  Biso   1.000  O
  O104     1.0000 0.48330  0.15000  0.58330  Biso   1.000  O
  O105     1.0000 0.85000  0.33330  0.58330  Biso   1.000  O
  O106     1.0000 0.18337  0.00003  0.25003  Biso   1.000  O
  O107     1.0000 0.99997  0.18333  0.25003  Biso   1.000  O
  O108     1.0000 0.81667  0.81663  0.25003  Biso   1.000  O
