data_image0
_cell_length_a       22.516
_cell_length_b       23.271
_cell_length_c       23.397
_cell_angle_alpha    90
_cell_angle_beta     90
_cell_angle_gamma    90

_symmetry_space_group_name_H-M    "P 1"
_symmetry_int_tables_number       1

loop_
  _symmetry_equiv_pos_as_xyz
  'x, y, z'

loop_
  _atom_site_label
  _atom_site_occupancy
  _atom_site_fract_x
  _atom_site_fract_y
  _atom_site_fract_z
  _atom_site_thermal_displace_type
  _atom_site_B_iso_or_equiv
  _atom_site_type_symbol
  Cu1      1.0000 0.43057  0.13123  0.64348  Biso   1.000  Cu
  Cu2      1.0000 0.56943  0.86877  0.64348  Biso   1.000  Cu
  Cu3      1.0000 0.68057  0.11877  0.89348  Biso   1.000  Cu
  Cu4      1.0000 0.81943  0.38123  0.89348  Biso   1.000  Cu
  Cu5      1.0000 0.43057  0.63123  0.14349  Biso   1.000  Cu
  Cu6      1.0000 0.56943  0.36877  0.14349  Biso   1.000  Cu
  Cu7      1.0000 0.68057  0.61877  0.39349  Biso   1.000  Cu
  Cu8      1.0000 0.81943  0.88123  0.39349  Biso   1.000  Cu
  Cu9      1.0000 0.93057  0.13123  0.14349  Biso   1.000  Cu
  Cu10     1.0000 0.06943  0.86877  0.14349  Biso   1.000  Cu
  Cu11     1.0000 0.18057  0.11877  0.39349  Biso   1.000  Cu
  Cu12     1.0000 0.31943  0.38123  0.39349  Biso   1.000  Cu
  Cu13     1.0000 0.93057  0.63123  0.64348  Biso   1.000  Cu
  Cu14     1.0000 0.06943  0.36877  0.64348  Biso   1.000  Cu
  Cu15     1.0000 0.18057  0.61877  0.89348  Biso   1.000  Cu
  Cu16     1.0000 0.31943  0.88123  0.89348  Biso   1.000  Cu
  O1       1.0000 0.45310  0.19348  0.59074  Biso   1.000  O
  O2       1.0000 0.54690  0.80652  0.59074  Biso   1.000  O
  O3       1.0000 0.70310  0.05652  0.84074  Biso   1.000  O
  O4       1.0000 0.79690  0.44348  0.84074  Biso   1.000  O
  O5       1.0000 0.45310  0.69348  0.09074  Biso   1.000  O
  O6       1.0000 0.54690  0.30652  0.09074  Biso   1.000  O
  O7       1.0000 0.70310  0.55652  0.34074  Biso   1.000  O
  O8       1.0000 0.79690  0.94348  0.34074  Biso   1.000  O
  O9       1.0000 0.95310  0.19348  0.09074  Biso   1.000  O
  O10      1.0000 0.04690  0.80652  0.09074  Biso   1.000  O
  O11      1.0000 0.20310  0.05652  0.34074  Biso   1.000  O
  O12      1.0000 0.29690  0.44348  0.34074  Biso   1.000  O
  O13      1.0000 0.95310  0.69348  0.59074  Biso   1.000  O
  O14      1.0000 0.04690  0.30652  0.59074  Biso   1.000  O
  O15      1.0000 0.20310  0.55652  0.84074  Biso   1.000  O
  O16      1.0000 0.29690  0.94348  0.84074  Biso   1.000  O
  O17      1.0000 0.57520  0.02550  0.73210  Biso   1.000  O
  O18      1.0000 0.42480  0.97450  0.73210  Biso   1.000  O
  O19      1.0000 0.82520  0.22450  0.98210  Biso   1.000  O
  O20      1.0000 0.67480  0.27550  0.98210  Biso   1.000  O
  O21      1.0000 0.57520  0.52550  0.23210  Biso   1.000  O
  O22      1.0000 0.42480  0.47450  0.23210  Biso   1.000  O
  O23      1.0000 0.82520  0.72450  0.48210  Biso   1.000  O
  O24      1.0000 0.67480  0.77550  0.48210  Biso   1.000  O
  O25      1.0000 0.07520  0.02550  0.23210  Biso   1.000  O
  O26      1.0000 0.92480  0.97450  0.23210  Biso   1.000  O
  O27      1.0000 0.32520  0.22450  0.48210  Biso   1.000  O
  O28      1.0000 0.17480  0.27550  0.48210  Biso   1.000  O
  O29      1.0000 0.07520  0.52550  0.73210  Biso   1.000  O
  O30      1.0000 0.92480  0.47450  0.73210  Biso   1.000  O
  O31      1.0000 0.32520  0.72450  0.98210  Biso   1.000  O
  O32      1.0000 0.17480  0.77550  0.98210  Biso   1.000  O
  H1       1.0000 0.58880  0.99340  0.72060  Biso   1.000  H
  H2       1.0000 0.41120  0.00660  0.72060  Biso   1.000  H
  H3       1.0000 0.83880  0.25660  0.97060  Biso   1.000  H
  H4       1.0000 0.66120  0.24340  0.97060  Biso   1.000  H
  H5       1.0000 0.58880  0.49340  0.22060  Biso   1.000  H
  H6       1.0000 0.41120  0.50660  0.22060  Biso   1.000  H
  H7       1.0000 0.83880  0.75660  0.47060  Biso   1.000  H
  H8       1.0000 0.66120  0.74340  0.47060  Biso   1.000  H
  H9       1.0000 0.08880  0.99340  0.22060  Biso   1.000  H
  H10      1.0000 0.91120  0.00660  0.22060  Biso   1.000  H
  H11      1.0000 0.33880  0.25660  0.47060  Biso   1.000  H
  H12      1.0000 0.16120  0.24340  0.47060  Biso   1.000  H
  H13      1.0000 0.08880  0.49340  0.72060  Biso   1.000  H
  H14      1.0000 0.91120  0.50660  0.72060  Biso   1.000  H
  H15      1.0000 0.33880  0.75660  0.97060  Biso   1.000  H
  H16      1.0000 0.16120  0.74340  0.97060  Biso   1.000  H
  H17      1.0000 0.56200  0.01800  0.76790  Biso   1.000  H
  H18      1.0000 0.43800  0.98200  0.76790  Biso   1.000  H
  H19      1.0000 0.81200  0.23200  0.01790  Biso   1.000  H
  H20      1.0000 0.68800  0.26800  0.01790  Biso   1.000  H
  H21      1.0000 0.56200  0.51800  0.26790  Biso   1.000  H
  H22      1.0000 0.43800  0.48200  0.26790  Biso   1.000  H
  H23      1.0000 0.81200  0.73200  0.51790  Biso   1.000  H
  H24      1.0000 0.68800  0.76800  0.51790  Biso   1.000  H
  H25      1.0000 0.06200  0.01800  0.26790  Biso   1.000  H
  H26      1.0000 0.93800  0.98200  0.26790  Biso   1.000  H
  H27      1.0000 0.31200  0.23200  0.51790  Biso   1.000  H
  H28      1.0000 0.18800  0.26800  0.51790  Biso   1.000  H
  H29      1.0000 0.06200  0.51800  0.76790  Biso   1.000  H
  H30      1.0000 0.93800  0.48200  0.76790  Biso   1.000  H
  H31      1.0000 0.31200  0.73200  0.01790  Biso   1.000  H
  H32      1.0000 0.18800  0.76800  0.01790  Biso   1.000  H
  O33      1.0000 0.55100  0.18270  0.59724  Biso   1.000  O
  O34      1.0000 0.44900  0.81730  0.59724  Biso   1.000  O
  O35      1.0000 0.80100  0.06730  0.84724  Biso   1.000  O
  O36      1.0000 0.69900  0.43270  0.84724  Biso   1.000  O
  O37      1.0000 0.55100  0.68270  0.09724  Biso   1.000  O
  O38      1.0000 0.44900  0.31730  0.09724  Biso   1.000  O
  O39      1.0000 0.80100  0.56730  0.34724  Biso   1.000  O
  O40      1.0000 0.69900  0.93270  0.34724  Biso   1.000  O
  O41      1.0000 0.05100  0.18270  0.09724  Biso   1.000  O
  O42      1.0000 0.94900  0.81730  0.09724  Biso   1.000  O
  O43      1.0000 0.30100  0.06730  0.34724  Biso   1.000  O
  O44      1.0000 0.19900  0.43270  0.34724  Biso   1.000  O
  O45      1.0000 0.05100  0.68270  0.59724  Biso   1.000  O
  O46      1.0000 0.94900  0.31730  0.59724  Biso   1.000  O
  O47      1.0000 0.30100  0.56730  0.84724  Biso   1.000  O
  O48      1.0000 0.19900  0.93270  0.84724  Biso   1.000  O
  O49      1.0000 0.35350  0.85570  0.53260  Biso   1.000  O
  O50      1.0000 0.64650  0.14430  0.53260  Biso   1.000  O
  O51      1.0000 0.60350  0.39430  0.78260  Biso   1.000  O
  O52      1.0000 0.89650  0.10570  0.78260  Biso   1.000  O
  O53      1.0000 0.35350  0.35570  0.03260  Biso   1.000  O
  O54      1.0000 0.64650  0.64430  0.03260  Biso   1.000  O
  O55      1.0000 0.60350  0.89430  0.28260  Biso   1.000  O
  O56      1.0000 0.89650  0.60570  0.28260  Biso   1.000  O
  O57      1.0000 0.85350  0.85570  0.03260  Biso   1.000  O
  O58      1.0000 0.14650  0.14430  0.03260  Biso   1.000  O
  O59      1.0000 0.10350  0.39430  0.28260  Biso   1.000  O
  O60      1.0000 0.39650  0.10570  0.28260  Biso   1.000  O
  O61      1.0000 0.85350  0.35570  0.53260  Biso   1.000  O
  O62      1.0000 0.14650  0.64430  0.53260  Biso   1.000  O
  O63      1.0000 0.10350  0.89430  0.78260  Biso   1.000  O
  O64      1.0000 0.39650  0.60570  0.78260  Biso   1.000  O
  H33      1.0000 0.37300  0.83700  0.56000  Biso   1.000  H
  H34      1.0000 0.62700  0.16300  0.56000  Biso   1.000  H
  H35      1.0000 0.62300  0.41300  0.81000  Biso   1.000  H
  H36      1.0000 0.87700  0.08700  0.81000  Biso   1.000  H
  H37      1.0000 0.37300  0.33700  0.06000  Biso   1.000  H
  H38      1.0000 0.62700  0.66300  0.06000  Biso   1.000  H
  H39      1.0000 0.62300  0.91300  0.31000  Biso   1.000  H
  H40      1.0000 0.87700  0.58700  0.31000  Biso   1.000  H
  H41      1.0000 0.87300  0.83700  0.06000  Biso   1.000  H
  H42      1.0000 0.12700  0.16300  0.06000  Biso   1.000  H
  H43      1.0000 0.12300  0.41300  0.31000  Biso   1.000  H
  H44      1.0000 0.37700  0.08700  0.31000  Biso   1.000  H
  H45      1.0000 0.87300  0.33700  0.56000  Biso   1.000  H
  H46      1.0000 0.12700  0.66300  0.56000  Biso   1.000  H
  H47      1.0000 0.12300  0.91300  0.81000  Biso   1.000  H
  H48      1.0000 0.37700  0.58700  0.81000  Biso   1.000  H
  H49      1.0000 0.38100  0.86000  0.50400  Biso   1.000  H
  H50      1.0000 0.61900  0.14000  0.50400  Biso   1.000  H
  H51      1.0000 0.63100  0.39000  0.75400  Biso   1.000  H
  H52      1.0000 0.86900  0.11000  0.75400  Biso   1.000  H
  H53      1.0000 0.38100  0.36000  0.00400  Biso   1.000  H
  H54      1.0000 0.61900  0.64000  0.00400  Biso   1.000  H
  H55      1.0000 0.63100  0.89000  0.25400  Biso   1.000  H
  H56      1.0000 0.86900  0.61000  0.25400  Biso   1.000  H
  H57      1.0000 0.88100  0.86000  0.00400  Biso   1.000  H
  H58      1.0000 0.11900  0.14000  0.00400  Biso   1.000  H
  H59      1.0000 0.13100  0.39000  0.25400  Biso   1.000  H
  H60      1.0000 0.36900  0.11000  0.25400  Biso   1.000  H
  H61      1.0000 0.88100  0.36000  0.50400  Biso   1.000  H
  H62      1.0000 0.11900  0.64000  0.50400  Biso   1.000  H
  H63      1.0000 0.13100  0.89000  0.75400  Biso   1.000  H
  H64      1.0000 0.36900  0.61000  0.75400  Biso   1.000  H
  O65      1.0000 0.36983  0.32907  0.44461  Biso   1.000  O
  O66      1.0000 0.63017  0.67093  0.44461  Biso   1.000  O
  O67      1.0000 0.61983  0.92093  0.69461  Biso   1.000  O
  O68      1.0000 0.88017  0.57907  0.69461  Biso   1.000  O
  O69      1.0000 0.36983  0.82907  0.94461  Biso   1.000  O
  O70      1.0000 0.63017  0.17093  0.94461  Biso   1.000  O
  O71      1.0000 0.61983  0.42093  0.19461  Biso   1.000  O
  O72      1.0000 0.88017  0.07907  0.19461  Biso   1.000  O
  O73      1.0000 0.86983  0.32907  0.94461  Biso   1.000  O
  O74      1.0000 0.13017  0.67093  0.94461  Biso   1.000  O
  O75      1.0000 0.11983  0.92093  0.19461  Biso   1.000  O
  O76      1.0000 0.38017  0.57907  0.19461  Biso   1.000  O
  O77      1.0000 0.86983  0.82907  0.44461  Biso   1.000  O
  O78      1.0000 0.13017  0.17093  0.44461  Biso   1.000  O
  O79      1.0000 0.11983  0.42093  0.69461  Biso   1.000  O
  O80      1.0000 0.38017  0.07907  0.69461  Biso   1.000  O
  O81      1.0000 0.44730  0.48780  0.34210  Biso   1.000  O
  O82      1.0000 0.55270  0.51220  0.34210  Biso   1.000  O
  O83      1.0000 0.69730  0.76220  0.59210  Biso   1.000  O
  O84      1.0000 0.80270  0.73780  0.59210  Biso   1.000  O
  O85      1.0000 0.44730  0.98780  0.84210  Biso   1.000  O
  O86      1.0000 0.55270  0.01220  0.84210  Biso   1.000  O
  O87      1.0000 0.69730  0.26220  0.09210  Biso   1.000  O
  O88      1.0000 0.80270  0.23780  0.09210  Biso   1.000  O
  O89      1.0000 0.94730  0.48780  0.84210  Biso   1.000  O
  O90      1.0000 0.05270  0.51220  0.84210  Biso   1.000  O
  O91      1.0000 0.19730  0.76220  0.09210  Biso   1.000  O
  O92      1.0000 0.30270  0.73780  0.09210  Biso   1.000  O
  O93      1.0000 0.94730  0.98780  0.34210  Biso   1.000  O
  O94      1.0000 0.05270  0.01220  0.34210  Biso   1.000  O
  O95      1.0000 0.19730  0.26220  0.59210  Biso   1.000  O
  O96      1.0000 0.30270  0.23780  0.59210  Biso   1.000  O
  O97      1.0000 0.42530  0.50720  0.35450  Biso   1.000  O
  O98      1.0000 0.57470  0.49280  0.35450  Biso   1.000  O
  O99      1.0000 0.67530  0.74280  0.60450  Biso   1.000  O
  O100     1.0000 0.82470  0.75720  0.60450  Biso   1.000  O
  O101     1.0000 0.42530  0.00720  0.85450  Biso   1.000  O
  O102     1.0000 0.57470  0.99280  0.85450  Biso   1.000  O
  O103     1.0000 0.67530  0.24280  0.10450  Biso   1.000  O
  O104     1.0000 0.82470  0.25720  0.10450  Biso   1.000  O
  O105     1.0000 0.92530  0.50720  0.85450  Biso   1.000  O
  O106     1.0000 0.07470  0.49280  0.85450  Biso   1.000  O
  O107     1.0000 0.17530  0.74280  0.10450  Biso   1.000  O
  O108     1.0000 0.32470  0.75720  0.10450  Biso   1.000  O
  O109     1.0000 0.92530  0.00720  0.35450  Biso   1.000  O
  O110     1.0000 0.07470  0.99280  0.35450  Biso   1.000  O
  O111     1.0000 0.17530  0.24280  0.60450  Biso   1.000  O
  O112     1.0000 0.32470  0.25720  0.60450  Biso   1.000  O
  O113     1.0000 0.37450  0.59220  0.36420  Biso   1.000  O
  O114     1.0000 0.62550  0.40780  0.36420  Biso   1.000  O
  O115     1.0000 0.62450  0.65780  0.61420  Biso   1.000  O
  O116     1.0000 0.87550  0.84220  0.61420  Biso   1.000  O
  O117     1.0000 0.37450  0.09220  0.86420  Biso   1.000  O
  O118     1.0000 0.62550  0.90780  0.86420  Biso   1.000  O
  O119     1.0000 0.62450  0.15780  0.11420  Biso   1.000  O
  O120     1.0000 0.87550  0.34220  0.11420  Biso   1.000  O
  O121     1.0000 0.87450  0.59220  0.86420  Biso   1.000  O
  O122     1.0000 0.12550  0.40780  0.86420  Biso   1.000  O
  O123     1.0000 0.12450  0.65780  0.11420  Biso   1.000  O
  O124     1.0000 0.37550  0.84220  0.11420  Biso   1.000  O
  O125     1.0000 0.87450  0.09220  0.36420  Biso   1.000  O
  O126     1.0000 0.12550  0.90780  0.36420  Biso   1.000  O
  O127     1.0000 0.12450  0.15780  0.61420  Biso   1.000  O
  O128     1.0000 0.37550  0.34220  0.61420  Biso   1.000  O
  O129     1.0000 0.42780  0.39830  0.41240  Biso   1.000  O
  O130     1.0000 0.57220  0.60170  0.41240  Biso   1.000  O
  O131     1.0000 0.67780  0.85170  0.66240  Biso   1.000  O
  O132     1.0000 0.82220  0.64830  0.66240  Biso   1.000  O
  O133     1.0000 0.42780  0.89830  0.91240  Biso   1.000  O
  O134     1.0000 0.57220  0.10170  0.91240  Biso   1.000  O
  O135     1.0000 0.67780  0.35170  0.16240  Biso   1.000  O
  O136     1.0000 0.82220  0.14830  0.16240  Biso   1.000  O
  O137     1.0000 0.92780  0.39830  0.91240  Biso   1.000  O
  O138     1.0000 0.07220  0.60170  0.91240  Biso   1.000  O
  O139     1.0000 0.17780  0.85170  0.16240  Biso   1.000  O
  O140     1.0000 0.32220  0.64830  0.16240  Biso   1.000  O
  O141     1.0000 0.92780  0.89830  0.41240  Biso   1.000  O
  O142     1.0000 0.07220  0.10170  0.41240  Biso   1.000  O
  O143     1.0000 0.17780  0.35170  0.66240  Biso   1.000  O
  O144     1.0000 0.32220  0.14830  0.66240  Biso   1.000  O
  O145     1.0000 0.50010  0.95620  0.26320  Biso   1.000  O
  O146     1.0000 0.49990  0.04380  0.26320  Biso   1.000  O
  O147     1.0000 0.75010  0.29380  0.51320  Biso   1.000  O
  O148     1.0000 0.74990  0.20620  0.51320  Biso   1.000  O
  O149     1.0000 0.50010  0.45620  0.76320  Biso   1.000  O
  O150     1.0000 0.49990  0.54380  0.76320  Biso   1.000  O
  O151     1.0000 0.75010  0.79380  0.01320  Biso   1.000  O
  O152     1.0000 0.74990  0.70620  0.01320  Biso   1.000  O
  O153     1.0000 0.00010  0.95620  0.76320  Biso   1.000  O
  O154     1.0000 0.99990  0.04380  0.76320  Biso   1.000  O
  O155     1.0000 0.25010  0.29380  0.01320  Biso   1.000  O
  O156     1.0000 0.24990  0.20620  0.01320  Biso   1.000  O
  O157     1.0000 0.00010  0.45620  0.26320  Biso   1.000  O
  O158     1.0000 0.99990  0.54380  0.26320  Biso   1.000  O
  O159     1.0000 0.25010  0.79380  0.51320  Biso   1.000  O
  O160     1.0000 0.24990  0.70620  0.51320  Biso   1.000  O
  O161     1.0000 0.48580  0.91890  0.26340  Biso   1.000  O
  O162     1.0000 0.51420  0.08110  0.26340  Biso   1.000  O
  O163     1.0000 0.73580  0.33110  0.51340  Biso   1.000  O
  O164     1.0000 0.76420  0.16890  0.51340  Biso   1.000  O
  O165     1.0000 0.48580  0.41890  0.76340  Biso   1.000  O
  O166     1.0000 0.51420  0.58110  0.76340  Biso   1.000  O
  O167     1.0000 0.73580  0.83110  0.01340  Biso   1.000  O
  O168     1.0000 0.76420  0.66890  0.01340  Biso   1.000  O
  O169     1.0000 0.98580  0.91890  0.76340  Biso   1.000  O
  O170     1.0000 0.01420  0.08110  0.76340  Biso   1.000  O
  O171     1.0000 0.23580  0.33110  0.01340  Biso   1.000  O
  O172     1.0000 0.26420  0.16890  0.01340  Biso   1.000  O
  O173     1.0000 0.98580  0.41890  0.26340  Biso   1.000  O
  O174     1.0000 0.01420  0.58110  0.26340  Biso   1.000  O
  O175     1.0000 0.23580  0.83110  0.51340  Biso   1.000  O
  O176     1.0000 0.26420  0.66890  0.51340  Biso   1.000  O
  O177     1.0000 0.51831  0.08358  0.65024  Biso   1.000  O
  O178     1.0000 0.48169  0.91642  0.65024  Biso   1.000  O
  O179     1.0000 0.76831  0.16642  0.90024  Biso   1.000  O
  O180     1.0000 0.73169  0.33358  0.90024  Biso   1.000  O
  O181     1.0000 0.51831  0.58358  0.15024  Biso   1.000  O
  O182     1.0000 0.48169  0.41642  0.15024  Biso   1.000  O
  O183     1.0000 0.76831  0.66642  0.40024  Biso   1.000  O
  O184     1.0000 0.73169  0.83358  0.40024  Biso   1.000  O
  O185     1.0000 0.01831  0.08358  0.15024  Biso   1.000  O
  O186     1.0000 0.98169  0.91642  0.15024  Biso   1.000  O
  O187     1.0000 0.26831  0.16642  0.40024  Biso   1.000  O
  O188     1.0000 0.23169  0.33358  0.40024  Biso   1.000  O
  O189     1.0000 0.01831  0.58358  0.65024  Biso   1.000  O
  O190     1.0000 0.98169  0.41642  0.65024  Biso   1.000  O
  O191     1.0000 0.26831  0.66642  0.90024  Biso   1.000  O
  O192     1.0000 0.23169  0.83358  0.90024  Biso   1.000  O
  H65      1.0000 0.55000  0.10670  0.64130  Biso   1.000  H
  H66      1.0000 0.45000  0.89330  0.64130  Biso   1.000  H
  H67      1.0000 0.80000  0.14330  0.89130  Biso   1.000  H
  H68      1.0000 0.70000  0.35670  0.89130  Biso   1.000  H
  H69      1.0000 0.55000  0.60670  0.14130  Biso   1.000  H
  H70      1.0000 0.45000  0.39330  0.14130  Biso   1.000  H
  H71      1.0000 0.80000  0.64330  0.39130  Biso   1.000  H
  H72      1.0000 0.70000  0.85670  0.39130  Biso   1.000  H
  H73      1.0000 0.05000  0.10670  0.14130  Biso   1.000  H
  H74      1.0000 0.95000  0.89330  0.14130  Biso   1.000  H
  H75      1.0000 0.30000  0.14330  0.39130  Biso   1.000  H
  H76      1.0000 0.20000  0.35670  0.39130  Biso   1.000  H
  H77      1.0000 0.05000  0.60670  0.64130  Biso   1.000  H
  H78      1.0000 0.95000  0.39330  0.64130  Biso   1.000  H
  H79      1.0000 0.30000  0.64330  0.89130  Biso   1.000  H
  H80      1.0000 0.20000  0.85670  0.89130  Biso   1.000  H
  H81      1.0000 0.53830  0.06380  0.67830  Biso   1.000  H
  H82      1.0000 0.46170  0.93620  0.67830  Biso   1.000  H
  H83      1.0000 0.78830  0.18620  0.92830  Biso   1.000  H
  H84      1.0000 0.71170  0.31380  0.92830  Biso   1.000  H
  H85      1.0000 0.53830  0.56380  0.17830  Biso   1.000  H
  H86      1.0000 0.46170  0.43620  0.17830  Biso   1.000  H
  H87      1.0000 0.78830  0.68620  0.42830  Biso   1.000  H
  H88      1.0000 0.71170  0.81380  0.42830  Biso   1.000  H
  H89      1.0000 0.03830  0.06380  0.17830  Biso   1.000  H
  H90      1.0000 0.96170  0.93620  0.17830  Biso   1.000  H
  H91      1.0000 0.28830  0.18620  0.42830  Biso   1.000  H
  H92      1.0000 0.21170  0.31380  0.42830  Biso   1.000  H
  H93      1.0000 0.03830  0.56380  0.67830  Biso   1.000  H
  H94      1.0000 0.96170  0.43620  0.67830  Biso   1.000  H
  H95      1.0000 0.28830  0.68620  0.92830  Biso   1.000  H
  H96      1.0000 0.21170  0.81380  0.92830  Biso   1.000  H
  N1       1.0000 0.41110  0.08064  0.57634  Biso   1.000  N
  N2       1.0000 0.58890  0.91936  0.57634  Biso   1.000  N
  N3       1.0000 0.66110  0.16936  0.82634  Biso   1.000  N
  N4       1.0000 0.83890  0.33064  0.82634  Biso   1.000  N
  N5       1.0000 0.41110  0.58064  0.07634  Biso   1.000  N
  N6       1.0000 0.58890  0.41936  0.07634  Biso   1.000  N
  N7       1.0000 0.66110  0.66936  0.32634  Biso   1.000  N
  N8       1.0000 0.83890  0.83064  0.32634  Biso   1.000  N
  N9       1.0000 0.91110  0.08064  0.07634  Biso   1.000  N
  N10      1.0000 0.08890  0.91936  0.07634  Biso   1.000  N
  N11      1.0000 0.16110  0.16936  0.32634  Biso   1.000  N
  N12      1.0000 0.33890  0.33064  0.32634  Biso   1.000  N
  N13      1.0000 0.91110  0.58064  0.57634  Biso   1.000  N
  N14      1.0000 0.08890  0.41936  0.57634  Biso   1.000  N
  N15      1.0000 0.16110  0.66936  0.82634  Biso   1.000  N
  N16      1.0000 0.33890  0.83064  0.82634  Biso   1.000  N
  N17      1.0000 0.39820  0.91186  0.43490  Biso   1.000  N
  N18      1.0000 0.60180  0.08814  0.43490  Biso   1.000  N
  N19      1.0000 0.64820  0.33814  0.68490  Biso   1.000  N
  N20      1.0000 0.85180  0.16186  0.68490  Biso   1.000  N
  N21      1.0000 0.39820  0.41186  0.93490  Biso   1.000  N
  N22      1.0000 0.60180  0.58814  0.93490  Biso   1.000  N
  N23      1.0000 0.64820  0.83814  0.18490  Biso   1.000  N
  N24      1.0000 0.85180  0.66186  0.18490  Biso   1.000  N
  N25      1.0000 0.89820  0.91186  0.93490  Biso   1.000  N
  N26      1.0000 0.10180  0.08814  0.93490  Biso   1.000  N
  N27      1.0000 0.14820  0.33814  0.18490  Biso   1.000  N
  N28      1.0000 0.35180  0.16186  0.18490  Biso   1.000  N
  N29      1.0000 0.89820  0.41186  0.43490  Biso   1.000  N
  N30      1.0000 0.10180  0.58814  0.43490  Biso   1.000  N
  N31      1.0000 0.14820  0.83814  0.68490  Biso   1.000  N
  N32      1.0000 0.35180  0.66186  0.68490  Biso   1.000  N
  N33      1.0000 0.46620  0.83320  0.36690  Biso   1.000  N
  N34      1.0000 0.53380  0.16680  0.36690  Biso   1.000  N
  N35      1.0000 0.71620  0.41680  0.61690  Biso   1.000  N
  N36      1.0000 0.78380  0.08320  0.61690  Biso   1.000  N
  N37      1.0000 0.46620  0.33320  0.86690  Biso   1.000  N
  N38      1.0000 0.53380  0.66680  0.86690  Biso   1.000  N
  N39      1.0000 0.71620  0.91680  0.11690  Biso   1.000  N
  N40      1.0000 0.78380  0.58320  0.11690  Biso   1.000  N
  N41      1.0000 0.96620  0.83320  0.86690  Biso   1.000  N
  N42      1.0000 0.03380  0.16680  0.86690  Biso   1.000  N
  N43      1.0000 0.21620  0.41680  0.11690  Biso   1.000  N
  N44      1.0000 0.28380  0.08320  0.11690  Biso   1.000  N
  N45      1.0000 0.96620  0.33320  0.36690  Biso   1.000  N
  N46      1.0000 0.03380  0.66680  0.36690  Biso   1.000  N
  N47      1.0000 0.21620  0.91680  0.61690  Biso   1.000  N
  N48      1.0000 0.28380  0.58320  0.61690  Biso   1.000  N
  N49      1.0000 0.45040  0.67960  0.21189  Biso   1.000  N
  N50      1.0000 0.54960  0.32040  0.21189  Biso   1.000  N
  N51      1.0000 0.70040  0.57040  0.46189  Biso   1.000  N
  N52      1.0000 0.79960  0.92960  0.46189  Biso   1.000  N
  N53      1.0000 0.45040  0.17960  0.71189  Biso   1.000  N
  N54      1.0000 0.54960  0.82040  0.71189  Biso   1.000  N
  N55      1.0000 0.70040  0.07040  0.96189  Biso   1.000  N
  N56      1.0000 0.79960  0.42960  0.96189  Biso   1.000  N
  N57      1.0000 0.95040  0.67960  0.71189  Biso   1.000  N
  N58      1.0000 0.04960  0.32040  0.71189  Biso   1.000  N
  N59      1.0000 0.20040  0.57040  0.96189  Biso   1.000  N
  N60      1.0000 0.29960  0.92960  0.96189  Biso   1.000  N
  N61      1.0000 0.95040  0.17960  0.21189  Biso   1.000  N
  N62      1.0000 0.04960  0.82040  0.21189  Biso   1.000  N
  N63      1.0000 0.20040  0.07040  0.46189  Biso   1.000  N
  N64      1.0000 0.29960  0.42960  0.46189  Biso   1.000  N
  C1       1.0000 0.38730  0.10010  0.52720  Biso   1.000  C
  C2       1.0000 0.61270  0.89990  0.52720  Biso   1.000  C
  C3       1.0000 0.63730  0.14990  0.77720  Biso   1.000  C
  C4       1.0000 0.86270  0.35010  0.77720  Biso   1.000  C
  C5       1.0000 0.38730  0.60010  0.02720  Biso   1.000  C
  C6       1.0000 0.61270  0.39990  0.02720  Biso   1.000  C
  C7       1.0000 0.63730  0.64990  0.27720  Biso   1.000  C
  C8       1.0000 0.86270  0.85010  0.27720  Biso   1.000  C
  C9       1.0000 0.88730  0.10010  0.02720  Biso   1.000  C
  C10      1.0000 0.11270  0.89990  0.02720  Biso   1.000  C
  C11      1.0000 0.13730  0.14990  0.27720  Biso   1.000  C
  C12      1.0000 0.36270  0.35010  0.27720  Biso   1.000  C
  C13      1.0000 0.88730  0.60010  0.52720  Biso   1.000  C
  C14      1.0000 0.11270  0.39990  0.52720  Biso   1.000  C
  C15      1.0000 0.13730  0.64990  0.77720  Biso   1.000  C
  C16      1.0000 0.36270  0.85010  0.77720  Biso   1.000  C
  H97      1.0000 0.37930  0.13910  0.52350  Biso   1.000  H
  H98      1.0000 0.62070  0.86090  0.52350  Biso   1.000  H
  H99      1.0000 0.62930  0.11090  0.77350  Biso   1.000  H
  H100     1.0000 0.87070  0.38910  0.77350  Biso   1.000  H
  H101     1.0000 0.37930  0.63910  0.02350  Biso   1.000  H
  H102     1.0000 0.62070  0.36090  0.02350  Biso   1.000  H
  H103     1.0000 0.62930  0.61090  0.27350  Biso   1.000  H
  H104     1.0000 0.87070  0.88910  0.27350  Biso   1.000  H
  H105     1.0000 0.87930  0.13910  0.02350  Biso   1.000  H
  H106     1.0000 0.12070  0.86090  0.02350  Biso   1.000  H
  H107     1.0000 0.12930  0.11090  0.27350  Biso   1.000  H
  H108     1.0000 0.37070  0.38910  0.27350  Biso   1.000  H
  H109     1.0000 0.87930  0.63910  0.52350  Biso   1.000  H
  H110     1.0000 0.12070  0.36090  0.52350  Biso   1.000  H
  H111     1.0000 0.12930  0.61090  0.77350  Biso   1.000  H
  H112     1.0000 0.37070  0.88910  0.77350  Biso   1.000  H
  C17      1.0000 0.37440  0.06390  0.48230  Biso   1.000  C
  C18      1.0000 0.62560  0.93610  0.48230  Biso   1.000  C
  C19      1.0000 0.62440  0.18610  0.73230  Biso   1.000  C
  C20      1.0000 0.87560  0.31390  0.73230  Biso   1.000  C
  C21      1.0000 0.37440  0.56390  0.98230  Biso   1.000  C
  C22      1.0000 0.62560  0.43610  0.98230  Biso   1.000  C
  C23      1.0000 0.62440  0.68610  0.23230  Biso   1.000  C
  C24      1.0000 0.87560  0.81390  0.23230  Biso   1.000  C
  C25      1.0000 0.87440  0.06390  0.98230  Biso   1.000  C
  C26      1.0000 0.12560  0.93610  0.98230  Biso   1.000  C
  C27      1.0000 0.12440  0.18610  0.23230  Biso   1.000  C
  C28      1.0000 0.37560  0.31390  0.23230  Biso   1.000  C
  C29      1.0000 0.87440  0.56390  0.48230  Biso   1.000  C
  C30      1.0000 0.12560  0.43610  0.48230  Biso   1.000  C
  C31      1.0000 0.12440  0.68610  0.73230  Biso   1.000  C
  C32      1.0000 0.37560  0.81390  0.73230  Biso   1.000  C
  H113     1.0000 0.35870  0.07880  0.44860  Biso   1.000  H
  H114     1.0000 0.64130  0.92120  0.44860  Biso   1.000  H
  H115     1.0000 0.60870  0.17120  0.69860  Biso   1.000  H
  H116     1.0000 0.89130  0.32880  0.69860  Biso   1.000  H
  H117     1.0000 0.35870  0.57880  0.94860  Biso   1.000  H
  H118     1.0000 0.64130  0.42120  0.94860  Biso   1.000  H
  H119     1.0000 0.60870  0.67120  0.19860  Biso   1.000  H
  H120     1.0000 0.89130  0.82880  0.19860  Biso   1.000  H
  H121     1.0000 0.85870  0.07880  0.94860  Biso   1.000  H
  H122     1.0000 0.14130  0.92120  0.94860  Biso   1.000  H
  H123     1.0000 0.10870  0.17120  0.19860  Biso   1.000  H
  H124     1.0000 0.39130  0.32880  0.19860  Biso   1.000  H
  H125     1.0000 0.85870  0.57880  0.44860  Biso   1.000  H
  H126     1.0000 0.14130  0.42120  0.44860  Biso   1.000  H
  H127     1.0000 0.10870  0.67120  0.69860  Biso   1.000  H
  H128     1.0000 0.39130  0.82880  0.69860  Biso   1.000  H
  C33      1.0000 0.38460  0.00560  0.48700  Biso   1.000  C
  C34      1.0000 0.61540  0.99440  0.48700  Biso   1.000  C
  C35      1.0000 0.63460  0.24440  0.73700  Biso   1.000  C
  C36      1.0000 0.86540  0.25560  0.73700  Biso   1.000  C
  C37      1.0000 0.38460  0.50560  0.98700  Biso   1.000  C
  C38      1.0000 0.61540  0.49440  0.98700  Biso   1.000  C
  C39      1.0000 0.63460  0.74440  0.23700  Biso   1.000  C
  C40      1.0000 0.86540  0.75560  0.23700  Biso   1.000  C
  C41      1.0000 0.88460  0.00560  0.98700  Biso   1.000  C
  C42      1.0000 0.11540  0.99440  0.98700  Biso   1.000  C
  C43      1.0000 0.13460  0.24440  0.23700  Biso   1.000  C
  C44      1.0000 0.36540  0.25560  0.23700  Biso   1.000  C
  C45      1.0000 0.88460  0.50560  0.48700  Biso   1.000  C
  C46      1.0000 0.11540  0.49440  0.48700  Biso   1.000  C
  C47      1.0000 0.13460  0.74440  0.73700  Biso   1.000  C
  C48      1.0000 0.36540  0.75560  0.73700  Biso   1.000  C
  C49      1.0000 0.40910  0.98620  0.53650  Biso   1.000  C
  C50      1.0000 0.59090  0.01380  0.53650  Biso   1.000  C
  C51      1.0000 0.65910  0.26380  0.78650  Biso   1.000  C
  C52      1.0000 0.84090  0.23620  0.78650  Biso   1.000  C
  C53      1.0000 0.40910  0.48620  0.03650  Biso   1.000  C
  C54      1.0000 0.59090  0.51380  0.03650  Biso   1.000  C
  C55      1.0000 0.65910  0.76380  0.28650  Biso   1.000  C
  C56      1.0000 0.84090  0.73620  0.28650  Biso   1.000  C
  C57      1.0000 0.90910  0.98620  0.03650  Biso   1.000  C
  C58      1.0000 0.09090  0.01380  0.03650  Biso   1.000  C
  C59      1.0000 0.15910  0.26380  0.28650  Biso   1.000  C
  C60      1.0000 0.34090  0.23620  0.28650  Biso   1.000  C
  C61      1.0000 0.90910  0.48620  0.53650  Biso   1.000  C
  C62      1.0000 0.09090  0.51380  0.53650  Biso   1.000  C
  C63      1.0000 0.15910  0.76380  0.78650  Biso   1.000  C
  C64      1.0000 0.34090  0.73620  0.78650  Biso   1.000  C
  H129     1.0000 0.41720  0.94730  0.54090  Biso   1.000  H
  H130     1.0000 0.58280  0.05270  0.54090  Biso   1.000  H
  H131     1.0000 0.66720  0.30270  0.79090  Biso   1.000  H
  H132     1.0000 0.83280  0.19730  0.79090  Biso   1.000  H
  H133     1.0000 0.41720  0.44730  0.04090  Biso   1.000  H
  H134     1.0000 0.58280  0.55270  0.04090  Biso   1.000  H
  H135     1.0000 0.66720  0.80270  0.29090  Biso   1.000  H
  H136     1.0000 0.83280  0.69730  0.29090  Biso   1.000  H
  H137     1.0000 0.91720  0.94730  0.04090  Biso   1.000  H
  H138     1.0000 0.08280  0.05270  0.04090  Biso   1.000  H
  H139     1.0000 0.16720  0.30270  0.29090  Biso   1.000  H
  H140     1.0000 0.33280  0.19730  0.29090  Biso   1.000  H
  H141     1.0000 0.91720  0.44730  0.54090  Biso   1.000  H
  H142     1.0000 0.08280  0.55270  0.54090  Biso   1.000  H
  H143     1.0000 0.16720  0.80270  0.79090  Biso   1.000  H
  H144     1.0000 0.33280  0.69730  0.79090  Biso   1.000  H
  C65      1.0000 0.42190  0.02390  0.58020  Biso   1.000  C
  C66      1.0000 0.57810  0.97610  0.58020  Biso   1.000  C
  C67      1.0000 0.67190  0.22610  0.83020  Biso   1.000  C
  C68      1.0000 0.82810  0.27390  0.83020  Biso   1.000  C
  C69      1.0000 0.42190  0.52390  0.08020  Biso   1.000  C
  C70      1.0000 0.57810  0.47610  0.08020  Biso   1.000  C
  C71      1.0000 0.67190  0.72610  0.33020  Biso   1.000  C
  C72      1.0000 0.82810  0.77390  0.33020  Biso   1.000  C
  C73      1.0000 0.92190  0.02390  0.08020  Biso   1.000  C
  C74      1.0000 0.07810  0.97610  0.08020  Biso   1.000  C
  C75      1.0000 0.17190  0.22610  0.33020  Biso   1.000  C
  C76      1.0000 0.32810  0.27390  0.33020  Biso   1.000  C
  C77      1.0000 0.92190  0.52390  0.58020  Biso   1.000  C
  C78      1.0000 0.07810  0.47610  0.58020  Biso   1.000  C
  C79      1.0000 0.17190  0.72610  0.83020  Biso   1.000  C
  C80      1.0000 0.32810  0.77390  0.83020  Biso   1.000  C
  H145     1.0000 0.43870  0.00960  0.61370  Biso   1.000  H
  H146     1.0000 0.56130  0.99040  0.61370  Biso   1.000  H
  H147     1.0000 0.68870  0.24040  0.86370  Biso   1.000  H
  H148     1.0000 0.81130  0.25960  0.86370  Biso   1.000  H
  H149     1.0000 0.43870  0.50960  0.11370  Biso   1.000  H
  H150     1.0000 0.56130  0.49040  0.11370  Biso   1.000  H
  H151     1.0000 0.68870  0.74040  0.36370  Biso   1.000  H
  H152     1.0000 0.81130  0.75960  0.36370  Biso   1.000  H
  H153     1.0000 0.93870  0.00960  0.11370  Biso   1.000  H
  H154     1.0000 0.06130  0.99040  0.11370  Biso   1.000  H
  H155     1.0000 0.18870  0.24040  0.36370  Biso   1.000  H
  H156     1.0000 0.31130  0.25960  0.36370  Biso   1.000  H
  H157     1.0000 0.93870  0.50960  0.61370  Biso   1.000  H
  H158     1.0000 0.06130  0.49040  0.61370  Biso   1.000  H
  H159     1.0000 0.18870  0.74040  0.86370  Biso   1.000  H
  H160     1.0000 0.31130  0.75960  0.86370  Biso   1.000  H
  C81      1.0000 0.36420  0.96650  0.43840  Biso   1.000  C
  C82      1.0000 0.63580  0.03350  0.43840  Biso   1.000  C
  C83      1.0000 0.61420  0.28350  0.68840  Biso   1.000  C
  C84      1.0000 0.88580  0.21650  0.68840  Biso   1.000  C
  C85      1.0000 0.36420  0.46650  0.93840  Biso   1.000  C
  C86      1.0000 0.63580  0.53350  0.93840  Biso   1.000  C
  C87      1.0000 0.61420  0.78350  0.18840  Biso   1.000  C
  C88      1.0000 0.88580  0.71650  0.18840  Biso   1.000  C
  C89      1.0000 0.86420  0.96650  0.93840  Biso   1.000  C
  C90      1.0000 0.13580  0.03350  0.93840  Biso   1.000  C
  C91      1.0000 0.11420  0.28350  0.18840  Biso   1.000  C
  C92      1.0000 0.38580  0.21650  0.18840  Biso   1.000  C
  C93      1.0000 0.86420  0.46650  0.43840  Biso   1.000  C
  C94      1.0000 0.13580  0.53350  0.43840  Biso   1.000  C
  C95      1.0000 0.11420  0.78350  0.68840  Biso   1.000  C
  C96      1.0000 0.38580  0.71650  0.68840  Biso   1.000  C
  H161     1.0000 0.32240  0.95770  0.44360  Biso   1.000  H
  H162     1.0000 0.67760  0.04230  0.44360  Biso   1.000  H
  H163     1.0000 0.57240  0.29230  0.69360  Biso   1.000  H
  H164     1.0000 0.92760  0.20770  0.69360  Biso   1.000  H
  H165     1.0000 0.32240  0.45770  0.94360  Biso   1.000  H
  H166     1.0000 0.67760  0.54230  0.94360  Biso   1.000  H
  H167     1.0000 0.57240  0.79230  0.19360  Biso   1.000  H
  H168     1.0000 0.92760  0.70770  0.19360  Biso   1.000  H
  H169     1.0000 0.82240  0.95770  0.94360  Biso   1.000  H
  H170     1.0000 0.17760  0.04230  0.94360  Biso   1.000  H
  H171     1.0000 0.07240  0.29230  0.19360  Biso   1.000  H
  H172     1.0000 0.42760  0.20770  0.19360  Biso   1.000  H
  H173     1.0000 0.82240  0.45770  0.44360  Biso   1.000  H
  H174     1.0000 0.17760  0.54230  0.44360  Biso   1.000  H
  H175     1.0000 0.07240  0.79230  0.69360  Biso   1.000  H
  H176     1.0000 0.42760  0.70770  0.69360  Biso   1.000  H
  H177     1.0000 0.36830  0.98700  0.40250  Biso   1.000  H
  H178     1.0000 0.63170  0.01300  0.40250  Biso   1.000  H
  H179     1.0000 0.61830  0.26300  0.65250  Biso   1.000  H
  H180     1.0000 0.88170  0.23700  0.65250  Biso   1.000  H
  H181     1.0000 0.36830  0.48700  0.90250  Biso   1.000  H
  H182     1.0000 0.63170  0.51300  0.90250  Biso   1.000  H
  H183     1.0000 0.61830  0.76300  0.15250  Biso   1.000  H
  H184     1.0000 0.88170  0.73700  0.15250  Biso   1.000  H
  H185     1.0000 0.86830  0.98700  0.90250  Biso   1.000  H
  H186     1.0000 0.13170  0.01300  0.90250  Biso   1.000  H
  H187     1.0000 0.11830  0.26300  0.15250  Biso   1.000  H
  H188     1.0000 0.38170  0.23700  0.15250  Biso   1.000  H
  H189     1.0000 0.86830  0.48700  0.40250  Biso   1.000  H
  H190     1.0000 0.13170  0.51300  0.40250  Biso   1.000  H
  H191     1.0000 0.11830  0.76300  0.65250  Biso   1.000  H
  H192     1.0000 0.38170  0.73700  0.65250  Biso   1.000  H
  C97      1.0000 0.37070  0.87500  0.39170  Biso   1.000  C
  C98      1.0000 0.62930  0.12500  0.39170  Biso   1.000  C
  C99      1.0000 0.62070  0.37500  0.64170  Biso   1.000  C
  C100     1.0000 0.87930  0.12500  0.64170  Biso   1.000  C
  C101     1.0000 0.37070  0.37500  0.89170  Biso   1.000  C
  C102     1.0000 0.62930  0.62500  0.89170  Biso   1.000  C
  C103     1.0000 0.62070  0.87500  0.14170  Biso   1.000  C
  C104     1.0000 0.87930  0.62500  0.14170  Biso   1.000  C
  C105     1.0000 0.87070  0.87500  0.89170  Biso   1.000  C
  C106     1.0000 0.12930  0.12500  0.89170  Biso   1.000  C
  C107     1.0000 0.12070  0.37500  0.14170  Biso   1.000  C
  C108     1.0000 0.37930  0.12500  0.14170  Biso   1.000  C
  C109     1.0000 0.87070  0.37500  0.39170  Biso   1.000  C
  C110     1.0000 0.12930  0.62500  0.39170  Biso   1.000  C
  C111     1.0000 0.12070  0.87500  0.64170  Biso   1.000  C
  C112     1.0000 0.37930  0.62500  0.64170  Biso   1.000  C
  H193     1.0000 0.36970  0.89500  0.35530  Biso   1.000  H
  H194     1.0000 0.63030  0.10500  0.35530  Biso   1.000  H
  H195     1.0000 0.61970  0.35500  0.60530  Biso   1.000  H
  H196     1.0000 0.88030  0.14500  0.60530  Biso   1.000  H
  H197     1.0000 0.36970  0.39500  0.85530  Biso   1.000  H
  H198     1.0000 0.63030  0.60500  0.85530  Biso   1.000  H
  H199     1.0000 0.61970  0.85500  0.10530  Biso   1.000  H
  H200     1.0000 0.88030  0.64500  0.10530  Biso   1.000  H
  H201     1.0000 0.86970  0.89500  0.85530  Biso   1.000  H
  H202     1.0000 0.13030  0.10500  0.85530  Biso   1.000  H
  H203     1.0000 0.11970  0.35500  0.10530  Biso   1.000  H
  H204     1.0000 0.38030  0.14500  0.10530  Biso   1.000  H
  H205     1.0000 0.86970  0.39500  0.35530  Biso   1.000  H
  H206     1.0000 0.13030  0.60500  0.35530  Biso   1.000  H
  H207     1.0000 0.11970  0.85500  0.60530  Biso   1.000  H
  H208     1.0000 0.38030  0.64500  0.60530  Biso   1.000  H
  H209     1.0000 0.33020  0.86630  0.40270  Biso   1.000  H
  H210     1.0000 0.66980  0.13370  0.40270  Biso   1.000  H
  H211     1.0000 0.58020  0.38370  0.65270  Biso   1.000  H
  H212     1.0000 0.91980  0.11630  0.65270  Biso   1.000  H
  H213     1.0000 0.33020  0.36630  0.90270  Biso   1.000  H
  H214     1.0000 0.66980  0.63370  0.90270  Biso   1.000  H
  H215     1.0000 0.58020  0.88370  0.15270  Biso   1.000  H
  H216     1.0000 0.91980  0.61630  0.15270  Biso   1.000  H
  H217     1.0000 0.83020  0.86630  0.90270  Biso   1.000  H
  H218     1.0000 0.16980  0.13370  0.90270  Biso   1.000  H
  H219     1.0000 0.08020  0.38370  0.15270  Biso   1.000  H
  H220     1.0000 0.41980  0.11630  0.15270  Biso   1.000  H
  H221     1.0000 0.83020  0.36630  0.40270  Biso   1.000  H
  H222     1.0000 0.16980  0.63370  0.40270  Biso   1.000  H
  H223     1.0000 0.08020  0.88370  0.65270  Biso   1.000  H
  H224     1.0000 0.41980  0.61630  0.65270  Biso   1.000  H
  C113     1.0000 0.40590  0.81890  0.38520  Biso   1.000  C
  C114     1.0000 0.59410  0.18110  0.38520  Biso   1.000  C
  C115     1.0000 0.65590  0.43110  0.63520  Biso   1.000  C
  C116     1.0000 0.84410  0.06890  0.63520  Biso   1.000  C
  C117     1.0000 0.40590  0.31890  0.88520  Biso   1.000  C
  C118     1.0000 0.59410  0.68110  0.88520  Biso   1.000  C
  C119     1.0000 0.65590  0.93110  0.13520  Biso   1.000  C
  C120     1.0000 0.84410  0.56890  0.13520  Biso   1.000  C
  C121     1.0000 0.90590  0.81890  0.88520  Biso   1.000  C
  C122     1.0000 0.09410  0.18110  0.88520  Biso   1.000  C
  C123     1.0000 0.15590  0.43110  0.13520  Biso   1.000  C
  C124     1.0000 0.34410  0.06890  0.13520  Biso   1.000  C
  C125     1.0000 0.90590  0.31890  0.38520  Biso   1.000  C
  C126     1.0000 0.09410  0.68110  0.38520  Biso   1.000  C
  C127     1.0000 0.15590  0.93110  0.63520  Biso   1.000  C
  C128     1.0000 0.34410  0.56890  0.63520  Biso   1.000  C
  H225     1.0000 0.40700  0.79860  0.42140  Biso   1.000  H
  H226     1.0000 0.59300  0.20140  0.42140  Biso   1.000  H
  H227     1.0000 0.65700  0.45140  0.67140  Biso   1.000  H
  H228     1.0000 0.84300  0.04860  0.67140  Biso   1.000  H
  H229     1.0000 0.40700  0.29860  0.92140  Biso   1.000  H
  H230     1.0000 0.59300  0.70140  0.92140  Biso   1.000  H
  H231     1.0000 0.65700  0.95140  0.17140  Biso   1.000  H
  H232     1.0000 0.84300  0.54860  0.17140  Biso   1.000  H
  H233     1.0000 0.90700  0.79860  0.92140  Biso   1.000  H
  H234     1.0000 0.09300  0.20140  0.92140  Biso   1.000  H
  H235     1.0000 0.15700  0.45140  0.17140  Biso   1.000  H
  H236     1.0000 0.34300  0.04860  0.17140  Biso   1.000  H
  H237     1.0000 0.90700  0.29860  0.42140  Biso   1.000  H
  H238     1.0000 0.09300  0.70140  0.42140  Biso   1.000  H
  H239     1.0000 0.15700  0.95140  0.67140  Biso   1.000  H
  H240     1.0000 0.34300  0.54860  0.67140  Biso   1.000  H
  H241     1.0000 0.38700  0.79430  0.35720  Biso   1.000  H
  H242     1.0000 0.61300  0.20570  0.35720  Biso   1.000  H
  H243     1.0000 0.63700  0.45570  0.60720  Biso   1.000  H
  H244     1.0000 0.86300  0.04430  0.60720  Biso   1.000  H
  H245     1.0000 0.38700  0.29430  0.85720  Biso   1.000  H
  H246     1.0000 0.61300  0.70570  0.85720  Biso   1.000  H
  H247     1.0000 0.63700  0.95570  0.10720  Biso   1.000  H
  H248     1.0000 0.86300  0.54430  0.10720  Biso   1.000  H
  H249     1.0000 0.88700  0.79430  0.85720  Biso   1.000  H
  H250     1.0000 0.11300  0.20570  0.85720  Biso   1.000  H
  H251     1.0000 0.13700  0.45570  0.10720  Biso   1.000  H
  H252     1.0000 0.36300  0.04430  0.10720  Biso   1.000  H
  H253     1.0000 0.88700  0.29430  0.35720  Biso   1.000  H
  H254     1.0000 0.11300  0.70570  0.35720  Biso   1.000  H
  H255     1.0000 0.13700  0.95570  0.60720  Biso   1.000  H
  H256     1.0000 0.36300  0.54430  0.60720  Biso   1.000  H
  C129     1.0000 0.45990  0.92450  0.41800  Biso   1.000  C
  C130     1.0000 0.54010  0.07550  0.41800  Biso   1.000  C
  C131     1.0000 0.70990  0.32550  0.66800  Biso   1.000  C
  C132     1.0000 0.79010  0.17450  0.66800  Biso   1.000  C
  C133     1.0000 0.45990  0.42450  0.91800  Biso   1.000  C
  C134     1.0000 0.54010  0.57550  0.91800  Biso   1.000  C
  C135     1.0000 0.70990  0.82550  0.16800  Biso   1.000  C
  C136     1.0000 0.79010  0.67450  0.16800  Biso   1.000  C
  C137     1.0000 0.95990  0.92450  0.91800  Biso   1.000  C
  C138     1.0000 0.04010  0.07550  0.91800  Biso   1.000  C
  C139     1.0000 0.20990  0.32550  0.16800  Biso   1.000  C
  C140     1.0000 0.29010  0.17450  0.16800  Biso   1.000  C
  C141     1.0000 0.95990  0.42450  0.41800  Biso   1.000  C
  C142     1.0000 0.04010  0.57550  0.41800  Biso   1.000  C
  C143     1.0000 0.20990  0.82550  0.66800  Biso   1.000  C
  C144     1.0000 0.29010  0.67450  0.66800  Biso   1.000  C
  H257     1.0000 0.47870  0.94790  0.44720  Biso   1.000  H
  H258     1.0000 0.52130  0.05210  0.44720  Biso   1.000  H
  H259     1.0000 0.72870  0.30210  0.69720  Biso   1.000  H
  H260     1.0000 0.77130  0.19790  0.69720  Biso   1.000  H
  H261     1.0000 0.47870  0.44790  0.94720  Biso   1.000  H
  H262     1.0000 0.52130  0.55210  0.94720  Biso   1.000  H
  H263     1.0000 0.72870  0.80210  0.19720  Biso   1.000  H
  H264     1.0000 0.77130  0.69790  0.19720  Biso   1.000  H
  H265     1.0000 0.97870  0.94790  0.94720  Biso   1.000  H
  H266     1.0000 0.02130  0.05210  0.94720  Biso   1.000  H
  H267     1.0000 0.22870  0.30210  0.19720  Biso   1.000  H
  H268     1.0000 0.27130  0.19790  0.19720  Biso   1.000  H
  H269     1.0000 0.97870  0.44790  0.44720  Biso   1.000  H
  H270     1.0000 0.02130  0.55210  0.44720  Biso   1.000  H
  H271     1.0000 0.22870  0.80210  0.69720  Biso   1.000  H
  H272     1.0000 0.27130  0.69790  0.69720  Biso   1.000  H
  H273     1.0000 0.46010  0.94600  0.38250  Biso   1.000  H
  H274     1.0000 0.53990  0.05400  0.38250  Biso   1.000  H
  H275     1.0000 0.71010  0.30400  0.63250  Biso   1.000  H
  H276     1.0000 0.78990  0.19600  0.63250  Biso   1.000  H
  H277     1.0000 0.46010  0.44600  0.88250  Biso   1.000  H
  H278     1.0000 0.53990  0.55400  0.88250  Biso   1.000  H
  H279     1.0000 0.71010  0.80400  0.13250  Biso   1.000  H
  H280     1.0000 0.78990  0.69600  0.13250  Biso   1.000  H
  H281     1.0000 0.96010  0.94600  0.88250  Biso   1.000  H
  H282     1.0000 0.03990  0.05400  0.88250  Biso   1.000  H
  H283     1.0000 0.21010  0.30400  0.13250  Biso   1.000  H
  H284     1.0000 0.28990  0.19600  0.13250  Biso   1.000  H
  H285     1.0000 0.96010  0.44600  0.38250  Biso   1.000  H
  H286     1.0000 0.03990  0.55400  0.38250  Biso   1.000  H
  H287     1.0000 0.21010  0.80400  0.63250  Biso   1.000  H
  H288     1.0000 0.28990  0.69600  0.63250  Biso   1.000  H
  C145     1.0000 0.49470  0.86910  0.41030  Biso   1.000  C
  C146     1.0000 0.50530  0.13090  0.41030  Biso   1.000  C
  C147     1.0000 0.74470  0.38090  0.66030  Biso   1.000  C
  C148     1.0000 0.75530  0.11910  0.66030  Biso   1.000  C
  C149     1.0000 0.49470  0.36910  0.91030  Biso   1.000  C
  C150     1.0000 0.50530  0.63090  0.91030  Biso   1.000  C
  C151     1.0000 0.74470  0.88090  0.16030  Biso   1.000  C
  C152     1.0000 0.75530  0.61910  0.16030  Biso   1.000  C
  C153     1.0000 0.99470  0.86910  0.91030  Biso   1.000  C
  C154     1.0000 0.00530  0.13090  0.91030  Biso   1.000  C
  C155     1.0000 0.24470  0.38090  0.16030  Biso   1.000  C
  C156     1.0000 0.25530  0.11910  0.16030  Biso   1.000  C
  C157     1.0000 0.99470  0.36910  0.41030  Biso   1.000  C
  C158     1.0000 0.00530  0.63090  0.41030  Biso   1.000  C
  C159     1.0000 0.24470  0.88090  0.66030  Biso   1.000  C
  C160     1.0000 0.25530  0.61910  0.66030  Biso   1.000  C
  H289     1.0000 0.53510  0.87790  0.39870  Biso   1.000  H
  H290     1.0000 0.46490  0.12210  0.39870  Biso   1.000  H
  H291     1.0000 0.78510  0.37210  0.64870  Biso   1.000  H
  H292     1.0000 0.71490  0.12790  0.64870  Biso   1.000  H
  H293     1.0000 0.53510  0.37790  0.89870  Biso   1.000  H
  H294     1.0000 0.46490  0.62210  0.89870  Biso   1.000  H
  H295     1.0000 0.78510  0.87210  0.14870  Biso   1.000  H
  H296     1.0000 0.71490  0.62790  0.14870  Biso   1.000  H
  H297     1.0000 0.03510  0.87790  0.89870  Biso   1.000  H
  H298     1.0000 0.96490  0.12210  0.89870  Biso   1.000  H
  H299     1.0000 0.28510  0.37210  0.14870  Biso   1.000  H
  H300     1.0000 0.21490  0.12790  0.14870  Biso   1.000  H
  H301     1.0000 0.03510  0.37790  0.39870  Biso   1.000  H
  H302     1.0000 0.96490  0.62210  0.39870  Biso   1.000  H
  H303     1.0000 0.28510  0.87210  0.64870  Biso   1.000  H
  H304     1.0000 0.21490  0.62790  0.64870  Biso   1.000  H
  H305     1.0000 0.49640  0.84840  0.44630  Biso   1.000  H
  H306     1.0000 0.50360  0.15160  0.44630  Biso   1.000  H
  H307     1.0000 0.74640  0.40160  0.69630  Biso   1.000  H
  H308     1.0000 0.75360  0.09840  0.69630  Biso   1.000  H
  H309     1.0000 0.49640  0.34840  0.94630  Biso   1.000  H
  H310     1.0000 0.50360  0.65160  0.94630  Biso   1.000  H
  H311     1.0000 0.74640  0.90160  0.19630  Biso   1.000  H
  H312     1.0000 0.75360  0.59840  0.19630  Biso   1.000  H
  H313     1.0000 0.99640  0.84840  0.94630  Biso   1.000  H
  H314     1.0000 0.00360  0.15160  0.94630  Biso   1.000  H
  H315     1.0000 0.24640  0.40160  0.19630  Biso   1.000  H
  H316     1.0000 0.25360  0.09840  0.19630  Biso   1.000  H
  H317     1.0000 0.99640  0.34840  0.44630  Biso   1.000  H
  H318     1.0000 0.00360  0.65160  0.44630  Biso   1.000  H
  H319     1.0000 0.24640  0.90160  0.69630  Biso   1.000  H
  H320     1.0000 0.25360  0.59840  0.69630  Biso   1.000  H
  C161     1.0000 0.50000  0.78010  0.35930  Biso   1.000  C
  C162     1.0000 0.50000  0.21990  0.35930  Biso   1.000  C
  C163     1.0000 0.75000  0.46990  0.60930  Biso   1.000  C
  C164     1.0000 0.75000  0.03010  0.60930  Biso   1.000  C
  C165     1.0000 0.50000  0.28010  0.85930  Biso   1.000  C
  C166     1.0000 0.50000  0.71990  0.85930  Biso   1.000  C
  C167     1.0000 0.75000  0.96990  0.10930  Biso   1.000  C
  C168     1.0000 0.75000  0.53010  0.10930  Biso   1.000  C
  C169     1.0000 0.00000  0.78010  0.85930  Biso   1.000  C
  C170     1.0000 0.00000  0.21990  0.85930  Biso   1.000  C
  C171     1.0000 0.25000  0.46990  0.10930  Biso   1.000  C
  C172     1.0000 0.25000  0.03010  0.10930  Biso   1.000  C
  C173     1.0000 0.00000  0.28010  0.35930  Biso   1.000  C
  C174     1.0000 0.00000  0.71990  0.35930  Biso   1.000  C
  C175     1.0000 0.25000  0.96990  0.60930  Biso   1.000  C
  C176     1.0000 0.25000  0.53010  0.60930  Biso   1.000  C
  H321     1.0000 0.49530  0.75650  0.39320  Biso   1.000  H
  H322     1.0000 0.50470  0.24350  0.39320  Biso   1.000  H
  H323     1.0000 0.74530  0.49350  0.64320  Biso   1.000  H
  H324     1.0000 0.75470  0.00650  0.64320  Biso   1.000  H
  H325     1.0000 0.49530  0.25650  0.89320  Biso   1.000  H
  H326     1.0000 0.50470  0.74350  0.89320  Biso   1.000  H
  H327     1.0000 0.74530  0.99350  0.14320  Biso   1.000  H
  H328     1.0000 0.75470  0.50650  0.14320  Biso   1.000  H
  H329     1.0000 0.99530  0.75650  0.89320  Biso   1.000  H
  H330     1.0000 0.00470  0.24350  0.89320  Biso   1.000  H
  H331     1.0000 0.24530  0.49350  0.14320  Biso   1.000  H
  H332     1.0000 0.25470  0.00650  0.14320  Biso   1.000  H
  H333     1.0000 0.99530  0.25650  0.39320  Biso   1.000  H
  H334     1.0000 0.00470  0.74350  0.39320  Biso   1.000  H
  H335     1.0000 0.24530  0.99350  0.64320  Biso   1.000  H
  H336     1.0000 0.25470  0.50650  0.64320  Biso   1.000  H
  H337     1.0000 0.54180  0.78960  0.35580  Biso   1.000  H
  H338     1.0000 0.45820  0.21040  0.35580  Biso   1.000  H
  H339     1.0000 0.79180  0.46040  0.60580  Biso   1.000  H
  H340     1.0000 0.70820  0.03960  0.60580  Biso   1.000  H
  H341     1.0000 0.54180  0.28960  0.85580  Biso   1.000  H
  H342     1.0000 0.45820  0.71040  0.85580  Biso   1.000  H
  H343     1.0000 0.79180  0.96040  0.10580  Biso   1.000  H
  H344     1.0000 0.70820  0.53960  0.10580  Biso   1.000  H
  H345     1.0000 0.04180  0.78960  0.85580  Biso   1.000  H
  H346     1.0000 0.95820  0.21040  0.85580  Biso   1.000  H
  H347     1.0000 0.29180  0.46040  0.10580  Biso   1.000  H
  H348     1.0000 0.20820  0.03960  0.10580  Biso   1.000  H
  H349     1.0000 0.04180  0.28960  0.35580  Biso   1.000  H
  H350     1.0000 0.95820  0.71040  0.35580  Biso   1.000  H
  H351     1.0000 0.29180  0.96040  0.60580  Biso   1.000  H
  H352     1.0000 0.20820  0.53960  0.60580  Biso   1.000  H
  C177     1.0000 0.44730  0.73810  0.21080  Biso   1.000  C
  C178     1.0000 0.55270  0.26190  0.21080  Biso   1.000  C
  C179     1.0000 0.69730  0.51190  0.46080  Biso   1.000  C
  C180     1.0000 0.80270  0.98810  0.46080  Biso   1.000  C
  C181     1.0000 0.44730  0.23810  0.71080  Biso   1.000  C
  C182     1.0000 0.55270  0.76190  0.71080  Biso   1.000  C
  C183     1.0000 0.69730  0.01190  0.96080  Biso   1.000  C
  C184     1.0000 0.80270  0.48810  0.96080  Biso   1.000  C
  C185     1.0000 0.94730  0.73810  0.71080  Biso   1.000  C
  C186     1.0000 0.05270  0.26190  0.71080  Biso   1.000  C
  C187     1.0000 0.19730  0.51190  0.96080  Biso   1.000  C
  C188     1.0000 0.30270  0.98810  0.96080  Biso   1.000  C
  C189     1.0000 0.94730  0.23810  0.21080  Biso   1.000  C
  C190     1.0000 0.05270  0.76190  0.21080  Biso   1.000  C
  C191     1.0000 0.19730  0.01190  0.46080  Biso   1.000  C
  C192     1.0000 0.30270  0.48810  0.46080  Biso   1.000  C
  H353     1.0000 0.43480  0.75620  0.17740  Biso   1.000  H
  H354     1.0000 0.56520  0.24380  0.17740  Biso   1.000  H
  H355     1.0000 0.68480  0.49380  0.42740  Biso   1.000  H
  H356     1.0000 0.81520  0.00620  0.42740  Biso   1.000  H
  H357     1.0000 0.43480  0.25620  0.67740  Biso   1.000  H
  H358     1.0000 0.56520  0.74380  0.67740  Biso   1.000  H
  H359     1.0000 0.68480  0.99380  0.92740  Biso   1.000  H
  H360     1.0000 0.81520  0.50620  0.92740  Biso   1.000  H
  H361     1.0000 0.93480  0.75620  0.67740  Biso   1.000  H
  H362     1.0000 0.06520  0.24380  0.67740  Biso   1.000  H
  H363     1.0000 0.18480  0.49380  0.92740  Biso   1.000  H
  H364     1.0000 0.31520  0.00620  0.92740  Biso   1.000  H
  H365     1.0000 0.93480  0.25620  0.17740  Biso   1.000  H
  H366     1.0000 0.06520  0.74380  0.17740  Biso   1.000  H
  H367     1.0000 0.18480  0.99380  0.42740  Biso   1.000  H
  H368     1.0000 0.31520  0.50620  0.42740  Biso   1.000  H
  C193     1.0000 0.46190  0.77090  0.25680  Biso   1.000  C
  C194     1.0000 0.53810  0.22910  0.25680  Biso   1.000  C
  C195     1.0000 0.71190  0.47910  0.50680  Biso   1.000  C
  C196     1.0000 0.78810  0.02090  0.50680  Biso   1.000  C
  C197     1.0000 0.46190  0.27090  0.75680  Biso   1.000  C
  C198     1.0000 0.53810  0.72910  0.75680  Biso   1.000  C
  C199     1.0000 0.71190  0.97910  0.00680  Biso   1.000  C
  C200     1.0000 0.78810  0.52090  0.00680  Biso   1.000  C
  C201     1.0000 0.96190  0.77090  0.75680  Biso   1.000  C
  C202     1.0000 0.03810  0.22910  0.75680  Biso   1.000  C
  C203     1.0000 0.21190  0.47910  0.00680  Biso   1.000  C
  C204     1.0000 0.28810  0.02090  0.00680  Biso   1.000  C
  C205     1.0000 0.96190  0.27090  0.25680  Biso   1.000  C
  C206     1.0000 0.03810  0.72910  0.25680  Biso   1.000  C
  C207     1.0000 0.21190  0.97910  0.50680  Biso   1.000  C
  C208     1.0000 0.28810  0.52090  0.50680  Biso   1.000  C
  H369     1.0000 0.45900  0.81070  0.25460  Biso   1.000  H
  H370     1.0000 0.54100  0.18930  0.25460  Biso   1.000  H
  H371     1.0000 0.70900  0.43930  0.50460  Biso   1.000  H
  H372     1.0000 0.79100  0.06070  0.50460  Biso   1.000  H
  H373     1.0000 0.45900  0.31070  0.75460  Biso   1.000  H
  H374     1.0000 0.54100  0.68930  0.75460  Biso   1.000  H
  H375     1.0000 0.70900  0.93930  0.00460  Biso   1.000  H
  H376     1.0000 0.79100  0.56070  0.00460  Biso   1.000  H
  H377     1.0000 0.95900  0.81070  0.75460  Biso   1.000  H
  H378     1.0000 0.04100  0.18930  0.75460  Biso   1.000  H
  H379     1.0000 0.20900  0.43930  0.00460  Biso   1.000  H
  H380     1.0000 0.29100  0.06070  0.00460  Biso   1.000  H
  H381     1.0000 0.95900  0.31070  0.25460  Biso   1.000  H
  H382     1.0000 0.04100  0.68930  0.25460  Biso   1.000  H
  H383     1.0000 0.20900  0.93930  0.50460  Biso   1.000  H
  H384     1.0000 0.29100  0.56070  0.50460  Biso   1.000  H
  C209     1.0000 0.48120  0.74530  0.30710  Biso   1.000  C
  C210     1.0000 0.51880  0.25470  0.30710  Biso   1.000  C
  C211     1.0000 0.73120  0.50470  0.55710  Biso   1.000  C
  C212     1.0000 0.76880  0.99530  0.55710  Biso   1.000  C
  C213     1.0000 0.48120  0.24530  0.80710  Biso   1.000  C
  C214     1.0000 0.51880  0.75470  0.80710  Biso   1.000  C
  C215     1.0000 0.73120  0.00470  0.05710  Biso   1.000  C
  C216     1.0000 0.76880  0.49530  0.05710  Biso   1.000  C
  C217     1.0000 0.98120  0.74530  0.80710  Biso   1.000  C
  C218     1.0000 0.01880  0.25470  0.80710  Biso   1.000  C
  C219     1.0000 0.23120  0.50470  0.05710  Biso   1.000  C
  C220     1.0000 0.26880  0.99530  0.05710  Biso   1.000  C
  C221     1.0000 0.98120  0.24530  0.30710  Biso   1.000  C
  C222     1.0000 0.01880  0.75470  0.30710  Biso   1.000  C
  C223     1.0000 0.23120  0.00470  0.55710  Biso   1.000  C
  C224     1.0000 0.26880  0.49530  0.55710  Biso   1.000  C
  C225     1.0000 0.48400  0.68600  0.30820  Biso   1.000  C
  C226     1.0000 0.51600  0.31400  0.30820  Biso   1.000  C
  C227     1.0000 0.73400  0.56400  0.55820  Biso   1.000  C
  C228     1.0000 0.76600  0.93600  0.55820  Biso   1.000  C
  C229     1.0000 0.48400  0.18600  0.80820  Biso   1.000  C
  C230     1.0000 0.51600  0.81400  0.80820  Biso   1.000  C
  C231     1.0000 0.73400  0.06400  0.05820  Biso   1.000  C
  C232     1.0000 0.76600  0.43600  0.05820  Biso   1.000  C
  C233     1.0000 0.98400  0.68600  0.80820  Biso   1.000  C
  C234     1.0000 0.01600  0.31400  0.80820  Biso   1.000  C
  C235     1.0000 0.23400  0.56400  0.05820  Biso   1.000  C
  C236     1.0000 0.26600  0.93600  0.05820  Biso   1.000  C
  C237     1.0000 0.98400  0.18600  0.30820  Biso   1.000  C
  C238     1.0000 0.01600  0.81400  0.30820  Biso   1.000  C
  C239     1.0000 0.23400  0.06400  0.55820  Biso   1.000  C
  C240     1.0000 0.26600  0.43600  0.55820  Biso   1.000  C
  H385     1.0000 0.49600  0.66690  0.34110  Biso   1.000  H
  H386     1.0000 0.50400  0.33310  0.34110  Biso   1.000  H
  H387     1.0000 0.74600  0.58310  0.59110  Biso   1.000  H
  H388     1.0000 0.75400  0.91690  0.59110  Biso   1.000  H
  H389     1.0000 0.49600  0.16690  0.84110  Biso   1.000  H
  H390     1.0000 0.50400  0.83310  0.84110  Biso   1.000  H
  H391     1.0000 0.74600  0.08310  0.09110  Biso   1.000  H
  H392     1.0000 0.75400  0.41690  0.09110  Biso   1.000  H
  H393     1.0000 0.99600  0.66690  0.84110  Biso   1.000  H
  H394     1.0000 0.00400  0.33310  0.84110  Biso   1.000  H
  H395     1.0000 0.24600  0.58310  0.09110  Biso   1.000  H
  H396     1.0000 0.25400  0.91690  0.09110  Biso   1.000  H
  H397     1.0000 0.99600  0.16690  0.34110  Biso   1.000  H
  H398     1.0000 0.00400  0.83310  0.34110  Biso   1.000  H
  H399     1.0000 0.24600  0.08310  0.59110  Biso   1.000  H
  H400     1.0000 0.25400  0.41690  0.59110  Biso   1.000  H
  C241     1.0000 0.46910  0.65590  0.26030  Biso   1.000  C
  C242     1.0000 0.53090  0.34410  0.26030  Biso   1.000  C
  C243     1.0000 0.71910  0.59410  0.51030  Biso   1.000  C
  C244     1.0000 0.78090  0.90590  0.51030  Biso   1.000  C
  C245     1.0000 0.46910  0.15590  0.76030  Biso   1.000  C
  C246     1.0000 0.53090  0.84410  0.76030  Biso   1.000  C
  C247     1.0000 0.71910  0.09410  0.01030  Biso   1.000  C
  C248     1.0000 0.78090  0.40590  0.01030  Biso   1.000  C
  C249     1.0000 0.96910  0.65590  0.76030  Biso   1.000  C
  C250     1.0000 0.03090  0.34410  0.76030  Biso   1.000  C
  C251     1.0000 0.21910  0.59410  0.01030  Biso   1.000  C
  C252     1.0000 0.28090  0.90590  0.01030  Biso   1.000  C
  C253     1.0000 0.96910  0.15590  0.26030  Biso   1.000  C
  C254     1.0000 0.03090  0.84410  0.26030  Biso   1.000  C
  C255     1.0000 0.21910  0.09410  0.51030  Biso   1.000  C
  C256     1.0000 0.28090  0.40590  0.51030  Biso   1.000  C
  H401     1.0000 0.47210  0.61600  0.26160  Biso   1.000  H
  H402     1.0000 0.52790  0.38400  0.26160  Biso   1.000  H
  H403     1.0000 0.72210  0.63400  0.51160  Biso   1.000  H
  H404     1.0000 0.77790  0.86600  0.51160  Biso   1.000  H
  H405     1.0000 0.47210  0.11600  0.76160  Biso   1.000  H
  H406     1.0000 0.52790  0.88400  0.76160  Biso   1.000  H
  H407     1.0000 0.72210  0.13400  0.01160  Biso   1.000  H
  H408     1.0000 0.77790  0.36600  0.01160  Biso   1.000  H
  H409     1.0000 0.97210  0.61600  0.76160  Biso   1.000  H
  H410     1.0000 0.02790  0.38400  0.76160  Biso   1.000  H
  H411     1.0000 0.22210  0.63400  0.01160  Biso   1.000  H
  H412     1.0000 0.27790  0.86600  0.01160  Biso   1.000  H
  H413     1.0000 0.97210  0.11600  0.26160  Biso   1.000  H
  H414     1.0000 0.02790  0.88400  0.26160  Biso   1.000  H
  H415     1.0000 0.22210  0.13400  0.51160  Biso   1.000  H
  H416     1.0000 0.27790  0.36600  0.51160  Biso   1.000  H
  C257     1.0000 0.51400  0.25760  0.53740  Biso   1.000  C
  C258     1.0000 0.48600  0.74240  0.53740  Biso   1.000  C
  C259     1.0000 0.76400  0.99240  0.78740  Biso   1.000  C
  C260     1.0000 0.73600  0.50760  0.78740  Biso   1.000  C
  C261     1.0000 0.51400  0.75760  0.03740  Biso   1.000  C
  C262     1.0000 0.48600  0.24240  0.03740  Biso   1.000  C
  C263     1.0000 0.76400  0.49240  0.28740  Biso   1.000  C
  C264     1.0000 0.73600  0.00760  0.28740  Biso   1.000  C
  C265     1.0000 0.01400  0.25760  0.03740  Biso   1.000  C
  C266     1.0000 0.98600  0.74240  0.03740  Biso   1.000  C
  C267     1.0000 0.26400  0.99240  0.28740  Biso   1.000  C
  C268     1.0000 0.23600  0.50760  0.28740  Biso   1.000  C
  C269     1.0000 0.01400  0.75760  0.53740  Biso   1.000  C
  C270     1.0000 0.98600  0.24240  0.53740  Biso   1.000  C
  C271     1.0000 0.26400  0.49240  0.78740  Biso   1.000  C
  C272     1.0000 0.23600  0.00760  0.78740  Biso   1.000  C
  C273     1.0000 0.46430  0.28160  0.51090  Biso   1.000  C
  C274     1.0000 0.53570  0.71840  0.51090  Biso   1.000  C
  C275     1.0000 0.71430  0.96840  0.76090  Biso   1.000  C
  C276     1.0000 0.78570  0.53160  0.76090  Biso   1.000  C
  C277     1.0000 0.46430  0.78160  0.01090  Biso   1.000  C
  C278     1.0000 0.53570  0.21840  0.01090  Biso   1.000  C
  C279     1.0000 0.71430  0.46840  0.26090  Biso   1.000  C
  C280     1.0000 0.78570  0.03160  0.26090  Biso   1.000  C
  C281     1.0000 0.96430  0.28160  0.01090  Biso   1.000  C
  C282     1.0000 0.03570  0.71840  0.01090  Biso   1.000  C
  C283     1.0000 0.21430  0.96840  0.26090  Biso   1.000  C
  C284     1.0000 0.28570  0.53160  0.26090  Biso   1.000  C
  C285     1.0000 0.96430  0.78160  0.51090  Biso   1.000  C
  C286     1.0000 0.03570  0.21840  0.51090  Biso   1.000  C
  C287     1.0000 0.21430  0.46840  0.76090  Biso   1.000  C
  C288     1.0000 0.28570  0.03160  0.76090  Biso   1.000  C
  H417     1.0000 0.42680  0.26650  0.51840  Biso   1.000  H
  H418     1.0000 0.57320  0.73350  0.51840  Biso   1.000  H
  H419     1.0000 0.67680  0.98350  0.76840  Biso   1.000  H
  H420     1.0000 0.82320  0.51650  0.76840  Biso   1.000  H
  H421     1.0000 0.42680  0.76650  0.01840  Biso   1.000  H
  H422     1.0000 0.57320  0.23350  0.01840  Biso   1.000  H
  H423     1.0000 0.67680  0.48350  0.26840  Biso   1.000  H
  H424     1.0000 0.82320  0.01650  0.26840  Biso   1.000  H
  H425     1.0000 0.92680  0.26650  0.01840  Biso   1.000  H
  H426     1.0000 0.07320  0.73350  0.01840  Biso   1.000  H
  H427     1.0000 0.17680  0.98350  0.26840  Biso   1.000  H
  H428     1.0000 0.32320  0.51650  0.26840  Biso   1.000  H
  H429     1.0000 0.92680  0.76650  0.51840  Biso   1.000  H
  H430     1.0000 0.07320  0.23350  0.51840  Biso   1.000  H
  H431     1.0000 0.17680  0.48350  0.76840  Biso   1.000  H
  H432     1.0000 0.32320  0.01650  0.76840  Biso   1.000  H
  C289     1.0000 0.47010  0.32800  0.47310  Biso   1.000  C
  C290     1.0000 0.52990  0.67200  0.47310  Biso   1.000  C
  C291     1.0000 0.72010  0.92200  0.72310  Biso   1.000  C
  C292     1.0000 0.77990  0.57800  0.72310  Biso   1.000  C
  C293     1.0000 0.47010  0.82800  0.97310  Biso   1.000  C
  C294     1.0000 0.52990  0.17200  0.97310  Biso   1.000  C
  C295     1.0000 0.72010  0.42200  0.22310  Biso   1.000  C
  C296     1.0000 0.77990  0.07800  0.22310  Biso   1.000  C
  C297     1.0000 0.97010  0.32800  0.97310  Biso   1.000  C
  C298     1.0000 0.02990  0.67200  0.97310  Biso   1.000  C
  C299     1.0000 0.22010  0.92200  0.22310  Biso   1.000  C
  C300     1.0000 0.27990  0.57800  0.22310  Biso   1.000  C
  C301     1.0000 0.97010  0.82800  0.47310  Biso   1.000  C
  C302     1.0000 0.02990  0.17200  0.47310  Biso   1.000  C
  C303     1.0000 0.22010  0.42200  0.72310  Biso   1.000  C
  C304     1.0000 0.27990  0.07800  0.72310  Biso   1.000  C
  C305     1.0000 0.52950  0.34960  0.46340  Biso   1.000  C
  C306     1.0000 0.47050  0.65040  0.46340  Biso   1.000  C
  C307     1.0000 0.77950  0.90040  0.71340  Biso   1.000  C
  C308     1.0000 0.72050  0.59960  0.71340  Biso   1.000  C
  C309     1.0000 0.52950  0.84960  0.96340  Biso   1.000  C
  C310     1.0000 0.47050  0.15040  0.96340  Biso   1.000  C
  C311     1.0000 0.77950  0.40040  0.21340  Biso   1.000  C
  C312     1.0000 0.72050  0.09960  0.21340  Biso   1.000  C
  C313     1.0000 0.02950  0.34960  0.96340  Biso   1.000  C
  C314     1.0000 0.97050  0.65040  0.96340  Biso   1.000  C
  C315     1.0000 0.27950  0.90040  0.21340  Biso   1.000  C
  C316     1.0000 0.22050  0.59960  0.21340  Biso   1.000  C
  C317     1.0000 0.02950  0.84960  0.46340  Biso   1.000  C
  C318     1.0000 0.97050  0.15040  0.46340  Biso   1.000  C
  C319     1.0000 0.27950  0.40040  0.71340  Biso   1.000  C
  C320     1.0000 0.22050  0.09960  0.71340  Biso   1.000  C
  H433     1.0000 0.53540  0.38080  0.43930  Biso   1.000  H
  H434     1.0000 0.46460  0.61920  0.43930  Biso   1.000  H
  H435     1.0000 0.78540  0.86920  0.68930  Biso   1.000  H
  H436     1.0000 0.71460  0.63080  0.68930  Biso   1.000  H
  H437     1.0000 0.53540  0.88080  0.93930  Biso   1.000  H
  H438     1.0000 0.46460  0.11920  0.93930  Biso   1.000  H
  H439     1.0000 0.78540  0.36920  0.18930  Biso   1.000  H
  H440     1.0000 0.71460  0.13080  0.18930  Biso   1.000  H
  H441     1.0000 0.03540  0.38080  0.93930  Biso   1.000  H
  H442     1.0000 0.96460  0.61920  0.93930  Biso   1.000  H
  H443     1.0000 0.28540  0.86920  0.18930  Biso   1.000  H
  H444     1.0000 0.21460  0.63080  0.18930  Biso   1.000  H
  H445     1.0000 0.03540  0.88080  0.43930  Biso   1.000  H
  H446     1.0000 0.96460  0.11920  0.43930  Biso   1.000  H
  H447     1.0000 0.28540  0.36920  0.68930  Biso   1.000  H
  H448     1.0000 0.21460  0.13080  0.68930  Biso   1.000  H
  C321     1.0000 0.57650  0.32460  0.48930  Biso   1.000  C
  C322     1.0000 0.42350  0.67540  0.48930  Biso   1.000  C
  C323     1.0000 0.82650  0.92540  0.73930  Biso   1.000  C
  C324     1.0000 0.67350  0.57460  0.73930  Biso   1.000  C
  C325     1.0000 0.57650  0.82460  0.98930  Biso   1.000  C
  C326     1.0000 0.42350  0.17540  0.98930  Biso   1.000  C
  C327     1.0000 0.82650  0.42540  0.23930  Biso   1.000  C
  C328     1.0000 0.67350  0.07460  0.23930  Biso   1.000  C
  C329     1.0000 0.07650  0.32460  0.98930  Biso   1.000  C
  C330     1.0000 0.92350  0.67540  0.98930  Biso   1.000  C
  C331     1.0000 0.32650  0.92540  0.23930  Biso   1.000  C
  C332     1.0000 0.17350  0.57460  0.23930  Biso   1.000  C
  C333     1.0000 0.07650  0.82460  0.48930  Biso   1.000  C
  C334     1.0000 0.92350  0.17540  0.48930  Biso   1.000  C
  C335     1.0000 0.32650  0.42540  0.73930  Biso   1.000  C
  C336     1.0000 0.17350  0.07460  0.73930  Biso   1.000  C
  H449     1.0000 0.61450  0.33860  0.48210  Biso   1.000  H
  H450     1.0000 0.38550  0.66140  0.48210  Biso   1.000  H
  H451     1.0000 0.86450  0.91140  0.73210  Biso   1.000  H
  H452     1.0000 0.63550  0.58860  0.73210  Biso   1.000  H
  H453     1.0000 0.61450  0.83860  0.98210  Biso   1.000  H
  H454     1.0000 0.38550  0.16140  0.98210  Biso   1.000  H
  H455     1.0000 0.86450  0.41140  0.23210  Biso   1.000  H
  H456     1.0000 0.63550  0.08860  0.23210  Biso   1.000  H
  H457     1.0000 0.11450  0.33860  0.98210  Biso   1.000  H
  H458     1.0000 0.88550  0.66140  0.98210  Biso   1.000  H
  H459     1.0000 0.36450  0.91140  0.23210  Biso   1.000  H
  H460     1.0000 0.13550  0.58860  0.23210  Biso   1.000  H
  H461     1.0000 0.11450  0.83860  0.48210  Biso   1.000  H
  H462     1.0000 0.88550  0.16140  0.48210  Biso   1.000  H
  H463     1.0000 0.36450  0.41140  0.73210  Biso   1.000  H
  H464     1.0000 0.13550  0.08860  0.73210  Biso   1.000  H
  C337     1.0000 0.56930  0.27870  0.52600  Biso   1.000  C
  C338     1.0000 0.43070  0.72130  0.52600  Biso   1.000  C
  C339     1.0000 0.81930  0.97130  0.77600  Biso   1.000  C
  C340     1.0000 0.68070  0.52870  0.77600  Biso   1.000  C
  C341     1.0000 0.56930  0.77870  0.02600  Biso   1.000  C
  C342     1.0000 0.43070  0.22130  0.02600  Biso   1.000  C
  C343     1.0000 0.81930  0.47130  0.27600  Biso   1.000  C
  C344     1.0000 0.68070  0.02870  0.27600  Biso   1.000  C
  C345     1.0000 0.06930  0.27870  0.02600  Biso   1.000  C
  C346     1.0000 0.93070  0.72130  0.02600  Biso   1.000  C
  C347     1.0000 0.31930  0.97130  0.27600  Biso   1.000  C
  C348     1.0000 0.18070  0.52870  0.27600  Biso   1.000  C
  C349     1.0000 0.06930  0.77870  0.52600  Biso   1.000  C
  C350     1.0000 0.93070  0.22130  0.52600  Biso   1.000  C
  C351     1.0000 0.31930  0.47130  0.77600  Biso   1.000  C
  C352     1.0000 0.18070  0.02870  0.77600  Biso   1.000  C
  H465     1.0000 0.60240  0.26210  0.54320  Biso   1.000  H
  H466     1.0000 0.39760  0.73790  0.54320  Biso   1.000  H
  H467     1.0000 0.85240  0.98790  0.79320  Biso   1.000  H
  H468     1.0000 0.64760  0.51210  0.79320  Biso   1.000  H
  H469     1.0000 0.60240  0.76210  0.04320  Biso   1.000  H
  H470     1.0000 0.39760  0.23790  0.04320  Biso   1.000  H
  H471     1.0000 0.85240  0.48790  0.29320  Biso   1.000  H
  H472     1.0000 0.64760  0.01210  0.29320  Biso   1.000  H
  H473     1.0000 0.10240  0.26210  0.04320  Biso   1.000  H
  H474     1.0000 0.89760  0.73790  0.04320  Biso   1.000  H
  H475     1.0000 0.35240  0.98790  0.29320  Biso   1.000  H
  H476     1.0000 0.14760  0.51210  0.29320  Biso   1.000  H
  H477     1.0000 0.10240  0.76210  0.54320  Biso   1.000  H
  H478     1.0000 0.89760  0.23790  0.54320  Biso   1.000  H
  H479     1.0000 0.35240  0.48790  0.79320  Biso   1.000  H
  H480     1.0000 0.14760  0.01210  0.79320  Biso   1.000  H
  C353     1.0000 0.50670  0.20710  0.57770  Biso   1.000  C
  C354     1.0000 0.49330  0.79290  0.57770  Biso   1.000  C
  C355     1.0000 0.75670  0.04290  0.82770  Biso   1.000  C
  C356     1.0000 0.74330  0.45710  0.82770  Biso   1.000  C
  C357     1.0000 0.50670  0.70710  0.07770  Biso   1.000  C
  C358     1.0000 0.49330  0.29290  0.07770  Biso   1.000  C
  C359     1.0000 0.75670  0.54290  0.32770  Biso   1.000  C
  C360     1.0000 0.74330  0.95710  0.32770  Biso   1.000  C
  C361     1.0000 0.00670  0.20710  0.07770  Biso   1.000  C
  C362     1.0000 0.99330  0.79290  0.07770  Biso   1.000  C
  C363     1.0000 0.25670  0.04290  0.32770  Biso   1.000  C
  C364     1.0000 0.24330  0.45710  0.32770  Biso   1.000  C
  C365     1.0000 0.00670  0.70710  0.57770  Biso   1.000  C
  C366     1.0000 0.99330  0.29290  0.57770  Biso   1.000  C
  C367     1.0000 0.25670  0.54290  0.82770  Biso   1.000  C
  C368     1.0000 0.24330  0.95710  0.82770  Biso   1.000  C
  C369     1.0000 0.42010  0.35320  0.44260  Biso   1.000  C
  C370     1.0000 0.57990  0.64680  0.44260  Biso   1.000  C
  C371     1.0000 0.67010  0.89680  0.69260  Biso   1.000  C
  C372     1.0000 0.82990  0.60320  0.69260  Biso   1.000  C
  C373     1.0000 0.42010  0.85320  0.94260  Biso   1.000  C
  C374     1.0000 0.57990  0.14680  0.94260  Biso   1.000  C
  C375     1.0000 0.67010  0.39680  0.19260  Biso   1.000  C
  C376     1.0000 0.82990  0.10320  0.19260  Biso   1.000  C
  C377     1.0000 0.92010  0.35320  0.94260  Biso   1.000  C
  C378     1.0000 0.07990  0.64680  0.94260  Biso   1.000  C
  C379     1.0000 0.17010  0.89680  0.19260  Biso   1.000  C
  C380     1.0000 0.32990  0.60320  0.19260  Biso   1.000  C
  C381     1.0000 0.92010  0.85320  0.44260  Biso   1.000  C
  C382     1.0000 0.07990  0.14680  0.44260  Biso   1.000  C
  C383     1.0000 0.17010  0.39680  0.69260  Biso   1.000  C
  C384     1.0000 0.32990  0.10320  0.69260  Biso   1.000  C
  O193     1.0000 0.67040  0.35320  0.35980  Biso   1.000  O
  O194     1.0000 0.32960  0.64680  0.35980  Biso   1.000  O
  O195     1.0000 0.92040  0.89680  0.60980  Biso   1.000  O
  O196     1.0000 0.57960  0.60320  0.60980  Biso   1.000  O
  O197     1.0000 0.67040  0.85320  0.85980  Biso   1.000  O
  O198     1.0000 0.32960  0.14680  0.85980  Biso   1.000  O
  O199     1.0000 0.92040  0.39680  0.10980  Biso   1.000  O
  O200     1.0000 0.57960  0.10320  0.10980  Biso   1.000  O
  O201     1.0000 0.17040  0.35320  0.85980  Biso   1.000  O
  O202     1.0000 0.82960  0.64680  0.85980  Biso   1.000  O
  O203     1.0000 0.42040  0.89680  0.10980  Biso   1.000  O
  O204     1.0000 0.07960  0.60320  0.10980  Biso   1.000  O
  O205     1.0000 0.17040  0.85320  0.35980  Biso   1.000  O
  O206     1.0000 0.82960  0.14680  0.35980  Biso   1.000  O
  O207     1.0000 0.42040  0.39680  0.60980  Biso   1.000  O
  O208     1.0000 0.07960  0.10320  0.60980  Biso   1.000  O
