data_image0
_cell_length_a       18.5691
_cell_length_b       18.5691
_cell_length_c       18.8438
_cell_angle_alpha    90
_cell_angle_beta     90
_cell_angle_gamma    90

_symmetry_space_group_name_H-M    "P 1"
_symmetry_int_tables_number       1

loop_
  _symmetry_equiv_pos_as_xyz
  'x, y, z'

loop_
  _atom_site_label
  _atom_site_occupancy
  _atom_site_fract_x
  _atom_site_fract_y
  _atom_site_fract_z
  _atom_site_thermal_displace_type
  _atom_site_B_iso_or_equiv
  _atom_site_type_symbol
  Cu1      1.0000 0.00000  0.50000  0.64208  Biso   1.000  Cu
  Cu2      1.0000 0.50000  0.00000  0.14208  Biso   1.000  Cu
  Cu3      1.0000 0.50000  0.50000  0.89208  Biso   1.000  Cu
  Cu4      1.0000 0.00000  0.00000  0.39208  Biso   1.000  Cu
  Cu5      1.0000 0.00000  0.50000  0.14208  Biso   1.000  Cu
  Cu6      1.0000 0.50000  0.00000  0.64208  Biso   1.000  Cu
  Cu7      1.0000 0.50000  0.50000  0.39208  Biso   1.000  Cu
  Cu8      1.0000 0.00000  0.00000  0.89208  Biso   1.000  Cu
  O1       1.0000 0.00000  0.50000  0.50060  Biso   1.000  O
  O2       1.0000 0.50000  0.00000  0.00060  Biso   1.000  O
  O3       1.0000 0.50000  0.50000  0.75060  Biso   1.000  O
  O4       1.0000 0.00000  0.00000  0.25060  Biso   1.000  O
  O5       1.0000 0.00000  0.50000  0.00060  Biso   1.000  O
  O6       1.0000 0.50000  0.00000  0.50060  Biso   1.000  O
  O7       1.0000 0.50000  0.50000  0.25060  Biso   1.000  O
  O8       1.0000 0.00000  0.00000  0.75060  Biso   1.000  O
  H1       1.0000 0.97500  0.47600  0.47900  Biso   1.000  H
  H2       1.0000 0.52500  0.02400  0.97900  Biso   1.000  H
  H3       1.0000 0.52400  0.47500  0.72900  Biso   1.000  H
  H4       1.0000 0.97600  0.02500  0.22900  Biso   1.000  H
  H5       1.0000 0.97500  0.52400  0.97900  Biso   1.000  H
  H6       1.0000 0.52500  0.97600  0.47900  Biso   1.000  H
  H7       1.0000 0.52400  0.52500  0.22900  Biso   1.000  H
  H8       1.0000 0.97600  0.97500  0.72900  Biso   1.000  H
  H9       1.0000 0.47500  0.97600  0.97900  Biso   1.000  H
  H10      1.0000 0.02500  0.52400  0.47900  Biso   1.000  H
  H11      1.0000 0.02400  0.97500  0.22900  Biso   1.000  H
  H12      1.0000 0.47600  0.52500  0.72900  Biso   1.000  H
  H13      1.0000 0.47500  0.02400  0.47900  Biso   1.000  H
  H14      1.0000 0.02500  0.47600  0.97900  Biso   1.000  H
  H15      1.0000 0.02400  0.02500  0.72900  Biso   1.000  H
  H16      1.0000 0.47600  0.47500  0.22900  Biso   1.000  H
  O9       1.0000 0.00000  0.50000  0.76430  Biso   1.000  O
  O10      1.0000 0.50000  0.00000  0.26430  Biso   1.000  O
  O11      1.0000 0.50000  0.50000  0.01430  Biso   1.000  O
  O12      1.0000 0.00000  0.00000  0.51430  Biso   1.000  O
  O13      1.0000 0.00000  0.50000  0.26430  Biso   1.000  O
  O14      1.0000 0.50000  0.00000  0.76430  Biso   1.000  O
  O15      1.0000 0.50000  0.50000  0.51430  Biso   1.000  O
  O16      1.0000 0.00000  0.00000  0.01430  Biso   1.000  O
  H17      1.0000 0.97800  0.51900  0.79500  Biso   1.000  H
  H18      1.0000 0.52200  0.98100  0.29500  Biso   1.000  H
  H19      1.0000 0.48100  0.47800  0.04500  Biso   1.000  H
  H20      1.0000 0.01900  0.02200  0.54500  Biso   1.000  H
  H21      1.0000 0.97800  0.48100  0.29500  Biso   1.000  H
  H22      1.0000 0.52200  0.01900  0.79500  Biso   1.000  H
  H23      1.0000 0.48100  0.52200  0.54500  Biso   1.000  H
  H24      1.0000 0.01900  0.97800  0.04500  Biso   1.000  H
  H25      1.0000 0.47800  0.01900  0.29500  Biso   1.000  H
  H26      1.0000 0.02200  0.48100  0.79500  Biso   1.000  H
  H27      1.0000 0.98100  0.97800  0.54500  Biso   1.000  H
  H28      1.0000 0.51900  0.52200  0.04500  Biso   1.000  H
  H29      1.0000 0.47800  0.98100  0.79500  Biso   1.000  H
  H30      1.0000 0.02200  0.51900  0.29500  Biso   1.000  H
  H31      1.0000 0.98100  0.02200  0.04500  Biso   1.000  H
  H32      1.0000 0.51900  0.47800  0.54500  Biso   1.000  H
  C1       1.0000 0.15169  0.84967  0.63890  Biso   1.000  C
  C2       1.0000 0.34831  0.65033  0.13890  Biso   1.000  C
  C3       1.0000 0.15033  0.65169  0.88890  Biso   1.000  C
  C4       1.0000 0.34967  0.84831  0.38890  Biso   1.000  C
  C5       1.0000 0.15169  0.15033  0.13890  Biso   1.000  C
  C6       1.0000 0.34831  0.34967  0.63890  Biso   1.000  C
  C7       1.0000 0.15033  0.34831  0.38890  Biso   1.000  C
  C8       1.0000 0.34967  0.15169  0.88890  Biso   1.000  C
  C9       1.0000 0.65169  0.34967  0.13890  Biso   1.000  C
  C10      1.0000 0.84831  0.15033  0.63890  Biso   1.000  C
  C11      1.0000 0.65033  0.15169  0.38890  Biso   1.000  C
  C12      1.0000 0.84967  0.34831  0.88890  Biso   1.000  C
  C13      1.0000 0.65169  0.65033  0.63890  Biso   1.000  C
  C14      1.0000 0.84831  0.84967  0.13890  Biso   1.000  C
  C15      1.0000 0.65033  0.84831  0.88890  Biso   1.000  C
  C16      1.0000 0.84967  0.65169  0.38890  Biso   1.000  C
  H33      1.0000 0.17670  0.82220  0.60120  Biso   1.000  H
  H34      1.0000 0.32330  0.67780  0.10120  Biso   1.000  H
  H35      1.0000 0.17780  0.67670  0.85120  Biso   1.000  H
  H36      1.0000 0.32220  0.82330  0.35120  Biso   1.000  H
  H37      1.0000 0.17670  0.17780  0.10120  Biso   1.000  H
  H38      1.0000 0.32330  0.32220  0.60120  Biso   1.000  H
  H39      1.0000 0.17780  0.32330  0.35120  Biso   1.000  H
  H40      1.0000 0.32220  0.17670  0.85120  Biso   1.000  H
  H41      1.0000 0.67670  0.32220  0.10120  Biso   1.000  H
  H42      1.0000 0.82330  0.17780  0.60120  Biso   1.000  H
  H43      1.0000 0.67780  0.17670  0.35120  Biso   1.000  H
  H44      1.0000 0.82220  0.32330  0.85120  Biso   1.000  H
  H45      1.0000 0.67670  0.67780  0.60120  Biso   1.000  H
  H46      1.0000 0.82330  0.82220  0.10120  Biso   1.000  H
  H47      1.0000 0.67780  0.82330  0.85120  Biso   1.000  H
  H48      1.0000 0.82220  0.67670  0.35120  Biso   1.000  H
  H49      1.0000 0.17110  0.83370  0.68520  Biso   1.000  H
  H50      1.0000 0.32890  0.66630  0.18520  Biso   1.000  H
  H51      1.0000 0.16630  0.67110  0.93520  Biso   1.000  H
  H52      1.0000 0.33370  0.82890  0.43520  Biso   1.000  H
  H53      1.0000 0.17110  0.16630  0.18520  Biso   1.000  H
  H54      1.0000 0.32890  0.33370  0.68520  Biso   1.000  H
  H55      1.0000 0.16630  0.32890  0.43520  Biso   1.000  H
  H56      1.0000 0.33370  0.17110  0.93520  Biso   1.000  H
  H57      1.0000 0.67110  0.33370  0.18520  Biso   1.000  H
  H58      1.0000 0.82890  0.16630  0.68520  Biso   1.000  H
  H59      1.0000 0.66630  0.17110  0.43520  Biso   1.000  H
  H60      1.0000 0.83370  0.32890  0.93520  Biso   1.000  H
  H61      1.0000 0.67110  0.66630  0.68520  Biso   1.000  H
  H62      1.0000 0.82890  0.83370  0.18520  Biso   1.000  H
  H63      1.0000 0.66630  0.82890  0.93520  Biso   1.000  H
  H64      1.0000 0.83370  0.67110  0.43520  Biso   1.000  H
  N1       1.0000 0.02201  0.60694  0.63912  Biso   1.000  N
  N2       1.0000 0.47799  0.89306  0.13912  Biso   1.000  N
  N3       1.0000 0.39306  0.52201  0.88912  Biso   1.000  N
  N4       1.0000 0.10694  0.97799  0.38912  Biso   1.000  N
  N5       1.0000 0.02201  0.39306  0.13912  Biso   1.000  N
  N6       1.0000 0.47799  0.10694  0.63912  Biso   1.000  N
  N7       1.0000 0.39306  0.47799  0.38912  Biso   1.000  N
  N8       1.0000 0.10694  0.02201  0.88912  Biso   1.000  N
  N9       1.0000 0.52201  0.10694  0.13912  Biso   1.000  N
  N10      1.0000 0.97799  0.39306  0.63912  Biso   1.000  N
  N11      1.0000 0.89306  0.02201  0.38912  Biso   1.000  N
  N12      1.0000 0.60694  0.47799  0.88912  Biso   1.000  N
  N13      1.0000 0.52201  0.89306  0.63912  Biso   1.000  N
  N14      1.0000 0.97799  0.60694  0.13912  Biso   1.000  N
  N15      1.0000 0.89306  0.97799  0.88912  Biso   1.000  N
  N16      1.0000 0.60694  0.52201  0.38912  Biso   1.000  N
  C17      1.0000 0.07144  0.83353  0.63590  Biso   1.000  C
  C18      1.0000 0.42856  0.66647  0.13590  Biso   1.000  C
  C19      1.0000 0.16647  0.57144  0.88590  Biso   1.000  C
  C20      1.0000 0.33353  0.92856  0.38590  Biso   1.000  C
  C21      1.0000 0.07144  0.16647  0.13590  Biso   1.000  C
  C22      1.0000 0.42856  0.33353  0.63590  Biso   1.000  C
  C23      1.0000 0.16647  0.42856  0.38590  Biso   1.000  C
  C24      1.0000 0.33353  0.07144  0.88590  Biso   1.000  C
  C25      1.0000 0.57144  0.33353  0.13590  Biso   1.000  C
  C26      1.0000 0.92856  0.16647  0.63590  Biso   1.000  C
  C27      1.0000 0.66647  0.07144  0.38590  Biso   1.000  C
  C28      1.0000 0.83353  0.42856  0.88590  Biso   1.000  C
  C29      1.0000 0.57144  0.66647  0.63590  Biso   1.000  C
  C30      1.0000 0.92856  0.83353  0.13590  Biso   1.000  C
  C31      1.0000 0.66647  0.92856  0.88590  Biso   1.000  C
  C32      1.0000 0.83353  0.57144  0.38590  Biso   1.000  C
  H65      1.0000 0.04750  0.85690  0.67670  Biso   1.000  H
  H66      1.0000 0.45250  0.64310  0.17670  Biso   1.000  H
  H67      1.0000 0.14310  0.54750  0.92670  Biso   1.000  H
  H68      1.0000 0.35690  0.95250  0.42670  Biso   1.000  H
  H69      1.0000 0.04750  0.14310  0.17670  Biso   1.000  H
  H70      1.0000 0.45250  0.35690  0.67670  Biso   1.000  H
  H71      1.0000 0.14310  0.45250  0.42670  Biso   1.000  H
  H72      1.0000 0.35690  0.04750  0.92670  Biso   1.000  H
  H73      1.0000 0.54750  0.35690  0.17670  Biso   1.000  H
  H74      1.0000 0.95250  0.14310  0.67670  Biso   1.000  H
  H75      1.0000 0.64310  0.04750  0.42670  Biso   1.000  H
  H76      1.0000 0.85690  0.45250  0.92670  Biso   1.000  H
  H77      1.0000 0.54750  0.64310  0.67670  Biso   1.000  H
  H78      1.0000 0.95250  0.85690  0.17670  Biso   1.000  H
  H79      1.0000 0.64310  0.95250  0.92670  Biso   1.000  H
  H80      1.0000 0.85690  0.54750  0.42670  Biso   1.000  H
  H81      1.0000 0.05120  0.85480  0.59200  Biso   1.000  H
  H82      1.0000 0.44880  0.64520  0.09200  Biso   1.000  H
  H83      1.0000 0.14520  0.55120  0.84200  Biso   1.000  H
  H84      1.0000 0.35480  0.94880  0.34200  Biso   1.000  H
  H85      1.0000 0.05120  0.14520  0.09200  Biso   1.000  H
  H86      1.0000 0.44880  0.35480  0.59200  Biso   1.000  H
  H87      1.0000 0.14520  0.44880  0.34200  Biso   1.000  H
  H88      1.0000 0.35480  0.05120  0.84200  Biso   1.000  H
  H89      1.0000 0.55120  0.35480  0.09200  Biso   1.000  H
  H90      1.0000 0.94880  0.14520  0.59200  Biso   1.000  H
  H91      1.0000 0.64520  0.05120  0.34200  Biso   1.000  H
  H92      1.0000 0.85480  0.44880  0.84200  Biso   1.000  H
  H93      1.0000 0.55120  0.64520  0.59200  Biso   1.000  H
  H94      1.0000 0.94880  0.85480  0.09200  Biso   1.000  H
  H95      1.0000 0.64520  0.94880  0.84200  Biso   1.000  H
  H96      1.0000 0.85480  0.55120  0.34200  Biso   1.000  H
  C33      1.0000 0.05450  0.75410  0.63706  Biso   1.000  C
  C34      1.0000 0.44550  0.74590  0.13706  Biso   1.000  C
  C35      1.0000 0.24590  0.55450  0.88706  Biso   1.000  C
  C36      1.0000 0.25410  0.94550  0.38706  Biso   1.000  C
  C37      1.0000 0.05450  0.24590  0.13706  Biso   1.000  C
  C38      1.0000 0.44550  0.25410  0.63706  Biso   1.000  C
  C39      1.0000 0.24590  0.44550  0.38706  Biso   1.000  C
  C40      1.0000 0.25410  0.05450  0.88706  Biso   1.000  C
  C41      1.0000 0.55450  0.25410  0.13706  Biso   1.000  C
  C42      1.0000 0.94550  0.24590  0.63706  Biso   1.000  C
  C43      1.0000 0.74590  0.05450  0.38706  Biso   1.000  C
  C44      1.0000 0.75410  0.44550  0.88706  Biso   1.000  C
  C45      1.0000 0.55450  0.74590  0.63706  Biso   1.000  C
  C46      1.0000 0.94550  0.75410  0.13706  Biso   1.000  C
  C47      1.0000 0.74590  0.94550  0.88706  Biso   1.000  C
  C48      1.0000 0.75410  0.55450  0.38706  Biso   1.000  C
  C49      1.0000 0.08919  0.70565  0.59243  Biso   1.000  C
  C50      1.0000 0.41081  0.79435  0.09243  Biso   1.000  C
  C51      1.0000 0.29435  0.58919  0.84243  Biso   1.000  C
  C52      1.0000 0.20565  0.91081  0.34243  Biso   1.000  C
  C53      1.0000 0.08919  0.29435  0.09243  Biso   1.000  C
  C54      1.0000 0.41081  0.20565  0.59243  Biso   1.000  C
  C55      1.0000 0.29435  0.41081  0.34243  Biso   1.000  C
  C56      1.0000 0.20565  0.08919  0.84243  Biso   1.000  C
  C57      1.0000 0.58919  0.20565  0.09243  Biso   1.000  C
  C58      1.0000 0.91081  0.29435  0.59243  Biso   1.000  C
  C59      1.0000 0.79435  0.08919  0.34243  Biso   1.000  C
  C60      1.0000 0.70565  0.41081  0.84243  Biso   1.000  C
  C61      1.0000 0.58919  0.79435  0.59243  Biso   1.000  C
  C62      1.0000 0.91081  0.70565  0.09243  Biso   1.000  C
  C63      1.0000 0.79435  0.91081  0.84243  Biso   1.000  C
  C64      1.0000 0.70565  0.58919  0.34243  Biso   1.000  C
  H97      1.0000 0.12500  0.72230  0.56040  Biso   1.000  H
  H98      1.0000 0.37500  0.77770  0.06040  Biso   1.000  H
  H99      1.0000 0.27770  0.62500  0.81040  Biso   1.000  H
  H100     1.0000 0.22230  0.87500  0.31040  Biso   1.000  H
  H101     1.0000 0.12500  0.27770  0.06040  Biso   1.000  H
  H102     1.0000 0.37500  0.22230  0.56040  Biso   1.000  H
  H103     1.0000 0.27770  0.37500  0.31040  Biso   1.000  H
  H104     1.0000 0.22230  0.12500  0.81040  Biso   1.000  H
  H105     1.0000 0.62500  0.22230  0.06040  Biso   1.000  H
  H106     1.0000 0.87500  0.27770  0.56040  Biso   1.000  H
  H107     1.0000 0.77770  0.12500  0.31040  Biso   1.000  H
  H108     1.0000 0.72230  0.37500  0.81040  Biso   1.000  H
  H109     1.0000 0.62500  0.77770  0.56040  Biso   1.000  H
  H110     1.0000 0.87500  0.72230  0.06040  Biso   1.000  H
  H111     1.0000 0.77770  0.87500  0.81040  Biso   1.000  H
  H112     1.0000 0.72230  0.62500  0.31040  Biso   1.000  H
  C65      1.0000 0.07186  0.63338  0.59445  Biso   1.000  C
  C66      1.0000 0.42814  0.86662  0.09445  Biso   1.000  C
  C67      1.0000 0.36662  0.57186  0.84445  Biso   1.000  C
  C68      1.0000 0.13338  0.92814  0.34445  Biso   1.000  C
  C69      1.0000 0.07186  0.36662  0.09445  Biso   1.000  C
  C70      1.0000 0.42814  0.13338  0.59445  Biso   1.000  C
  C71      1.0000 0.36662  0.42814  0.34445  Biso   1.000  C
  C72      1.0000 0.13338  0.07186  0.84445  Biso   1.000  C
  C73      1.0000 0.57186  0.13338  0.09445  Biso   1.000  C
  C74      1.0000 0.92814  0.36662  0.59445  Biso   1.000  C
  C75      1.0000 0.86662  0.07186  0.34445  Biso   1.000  C
  C76      1.0000 0.63338  0.42814  0.84445  Biso   1.000  C
  C77      1.0000 0.57186  0.86662  0.59445  Biso   1.000  C
  C78      1.0000 0.92814  0.63338  0.09445  Biso   1.000  C
  C79      1.0000 0.86662  0.92814  0.84445  Biso   1.000  C
  C80      1.0000 0.63338  0.57186  0.34445  Biso   1.000  C
  H113     1.0000 0.09600  0.60130  0.56320  Biso   1.000  H
  H114     1.0000 0.40400  0.89870  0.06320  Biso   1.000  H
  H115     1.0000 0.39870  0.59600  0.81320  Biso   1.000  H
  H116     1.0000 0.10130  0.90400  0.31320  Biso   1.000  H
  H117     1.0000 0.09600  0.39870  0.06320  Biso   1.000  H
  H118     1.0000 0.40400  0.10130  0.56320  Biso   1.000  H
  H119     1.0000 0.39870  0.40400  0.31320  Biso   1.000  H
  H120     1.0000 0.10130  0.09600  0.81320  Biso   1.000  H
  H121     1.0000 0.59600  0.10130  0.06320  Biso   1.000  H
  H122     1.0000 0.90400  0.39870  0.56320  Biso   1.000  H
  H123     1.0000 0.89870  0.09600  0.31320  Biso   1.000  H
  H124     1.0000 0.60130  0.40400  0.81320  Biso   1.000  H
  H125     1.0000 0.59600  0.89870  0.56320  Biso   1.000  H
  H126     1.0000 0.90400  0.60130  0.06320  Biso   1.000  H
  H127     1.0000 0.89870  0.90400  0.81320  Biso   1.000  H
  H128     1.0000 0.60130  0.59600  0.31320  Biso   1.000  H
  C81      1.0000 0.00277  0.72630  0.68257  Biso   1.000  C
  C82      1.0000 0.49723  0.77370  0.18257  Biso   1.000  C
  C83      1.0000 0.27370  0.50277  0.93257  Biso   1.000  C
  C84      1.0000 0.22630  0.99723  0.43257  Biso   1.000  C
  C85      1.0000 0.00277  0.27370  0.18257  Biso   1.000  C
  C86      1.0000 0.49723  0.22630  0.68257  Biso   1.000  C
  C87      1.0000 0.27370  0.49723  0.43257  Biso   1.000  C
  C88      1.0000 0.22630  0.00277  0.93257  Biso   1.000  C
  C89      1.0000 0.50277  0.22630  0.18257  Biso   1.000  C
  C90      1.0000 0.99723  0.27370  0.68257  Biso   1.000  C
  C91      1.0000 0.77370  0.00277  0.43257  Biso   1.000  C
  C92      1.0000 0.72630  0.49723  0.93257  Biso   1.000  C
  C93      1.0000 0.50277  0.77370  0.68257  Biso   1.000  C
  C94      1.0000 0.99723  0.72630  0.18257  Biso   1.000  C
  C95      1.0000 0.77370  0.99723  0.93257  Biso   1.000  C
  C96      1.0000 0.72630  0.50277  0.43257  Biso   1.000  C
  H129     1.0000 0.97760  0.75750  0.71390  Biso   1.000  H
  H130     1.0000 0.52240  0.74250  0.21390  Biso   1.000  H
  H131     1.0000 0.24250  0.47760  0.96390  Biso   1.000  H
  H132     1.0000 0.25750  0.02240  0.46390  Biso   1.000  H
  H133     1.0000 0.97760  0.24250  0.21390  Biso   1.000  H
  H134     1.0000 0.52240  0.25750  0.71390  Biso   1.000  H
  H135     1.0000 0.24250  0.52240  0.46390  Biso   1.000  H
  H136     1.0000 0.25750  0.97760  0.96390  Biso   1.000  H
  H137     1.0000 0.47760  0.25750  0.21390  Biso   1.000  H
  H138     1.0000 0.02240  0.24250  0.71390  Biso   1.000  H
  H139     1.0000 0.74250  0.97760  0.46390  Biso   1.000  H
  H140     1.0000 0.75750  0.52240  0.96390  Biso   1.000  H
  H141     1.0000 0.47760  0.74250  0.71390  Biso   1.000  H
  H142     1.0000 0.02240  0.75750  0.21390  Biso   1.000  H
  H143     1.0000 0.74250  0.02240  0.96390  Biso   1.000  H
  H144     1.0000 0.75750  0.47760  0.46390  Biso   1.000  H
  C97      1.0000 0.98778  0.65327  0.68252  Biso   1.000  C
  C98      1.0000 0.51222  0.84673  0.18252  Biso   1.000  C
  C99      1.0000 0.34673  0.48778  0.93252  Biso   1.000  C
  C100     1.0000 0.15327  0.01222  0.43252  Biso   1.000  C
  C101     1.0000 0.98778  0.34673  0.18252  Biso   1.000  C
  C102     1.0000 0.51222  0.15327  0.68252  Biso   1.000  C
  C103     1.0000 0.34673  0.51222  0.43252  Biso   1.000  C
  C104     1.0000 0.15327  0.98778  0.93252  Biso   1.000  C
  C105     1.0000 0.48778  0.15327  0.18252  Biso   1.000  C
  C106     1.0000 0.01222  0.34673  0.68252  Biso   1.000  C
  C107     1.0000 0.84673  0.98778  0.43252  Biso   1.000  C
  C108     1.0000 0.65327  0.51222  0.93252  Biso   1.000  C
  C109     1.0000 0.48778  0.84673  0.68252  Biso   1.000  C
  C110     1.0000 0.01222  0.65327  0.18252  Biso   1.000  C
  C111     1.0000 0.84673  0.01222  0.93252  Biso   1.000  C
  C112     1.0000 0.65327  0.48778  0.43252  Biso   1.000  C
  H145     1.0000 0.95220  0.63530  0.71410  Biso   1.000  H
  H146     1.0000 0.54780  0.86470  0.21410  Biso   1.000  H
  H147     1.0000 0.36470  0.45220  0.96410  Biso   1.000  H
  H148     1.0000 0.13530  0.04780  0.46410  Biso   1.000  H
  H149     1.0000 0.95220  0.36470  0.21410  Biso   1.000  H
  H150     1.0000 0.54780  0.13530  0.71410  Biso   1.000  H
  H151     1.0000 0.36470  0.54780  0.46410  Biso   1.000  H
  H152     1.0000 0.13530  0.95220  0.96410  Biso   1.000  H
  H153     1.0000 0.45220  0.13530  0.21410  Biso   1.000  H
  H154     1.0000 0.04780  0.36470  0.71410  Biso   1.000  H
  H155     1.0000 0.86470  0.95220  0.46410  Biso   1.000  H
  H156     1.0000 0.63530  0.54780  0.96410  Biso   1.000  H
  H157     1.0000 0.45220  0.86470  0.71410  Biso   1.000  H
  H158     1.0000 0.04780  0.63530  0.21410  Biso   1.000  H
  H159     1.0000 0.86470  0.04780  0.96410  Biso   1.000  H
  H160     1.0000 0.63530  0.45220  0.46410  Biso   1.000  H
  N17      1.0000 0.39375  0.97768  0.63733  Biso   1.000  N
  N18      1.0000 0.10625  0.52232  0.13733  Biso   1.000  N
  N19      1.0000 0.02232  0.89375  0.88733  Biso   1.000  N
  N20      1.0000 0.47768  0.60625  0.38733  Biso   1.000  N
  N21      1.0000 0.39375  0.02232  0.13733  Biso   1.000  N
  N22      1.0000 0.10625  0.47768  0.63733  Biso   1.000  N
  N23      1.0000 0.02232  0.10625  0.38733  Biso   1.000  N
  N24      1.0000 0.47768  0.39375  0.88733  Biso   1.000  N
  N25      1.0000 0.89375  0.47768  0.13733  Biso   1.000  N
  N26      1.0000 0.60625  0.02232  0.63733  Biso   1.000  N
  N27      1.0000 0.52232  0.39375  0.38733  Biso   1.000  N
  N28      1.0000 0.97768  0.10625  0.88733  Biso   1.000  N
  N29      1.0000 0.89375  0.52232  0.63733  Biso   1.000  N
  N30      1.0000 0.60625  0.97768  0.13733  Biso   1.000  N
  N31      1.0000 0.52232  0.60625  0.88733  Biso   1.000  N
  N32      1.0000 0.97768  0.89375  0.38733  Biso   1.000  N
  C113     1.0000 0.16682  0.92976  0.62920  Biso   1.000  C
  C114     1.0000 0.33318  0.57024  0.12920  Biso   1.000  C
  C115     1.0000 0.07024  0.66682  0.87920  Biso   1.000  C
  C116     1.0000 0.42976  0.83318  0.37920  Biso   1.000  C
  C117     1.0000 0.16682  0.07024  0.12920  Biso   1.000  C
  C118     1.0000 0.33318  0.42976  0.62920  Biso   1.000  C
  C119     1.0000 0.07024  0.33318  0.37920  Biso   1.000  C
  C120     1.0000 0.42976  0.16682  0.87920  Biso   1.000  C
  C121     1.0000 0.66682  0.42976  0.12920  Biso   1.000  C
  C122     1.0000 0.83318  0.07024  0.62920  Biso   1.000  C
  C123     1.0000 0.57024  0.16682  0.37920  Biso   1.000  C
  C124     1.0000 0.92976  0.33318  0.87920  Biso   1.000  C
  C125     1.0000 0.66682  0.57024  0.62920  Biso   1.000  C
  C126     1.0000 0.83318  0.92976  0.12920  Biso   1.000  C
  C127     1.0000 0.57024  0.83318  0.87920  Biso   1.000  C
  C128     1.0000 0.92976  0.66682  0.37920  Biso   1.000  C
  H161     1.0000 0.14760  0.94560  0.58280  Biso   1.000  H
  H162     1.0000 0.35240  0.55440  0.08280  Biso   1.000  H
  H163     1.0000 0.05440  0.64760  0.83280  Biso   1.000  H
  H164     1.0000 0.44560  0.85240  0.33280  Biso   1.000  H
  H165     1.0000 0.14760  0.05440  0.08280  Biso   1.000  H
  H166     1.0000 0.35240  0.44560  0.58280  Biso   1.000  H
  H167     1.0000 0.05440  0.35240  0.33280  Biso   1.000  H
  H168     1.0000 0.44560  0.14760  0.83280  Biso   1.000  H
  H169     1.0000 0.64760  0.44560  0.08280  Biso   1.000  H
  H170     1.0000 0.85240  0.05440  0.58280  Biso   1.000  H
  H171     1.0000 0.55440  0.14760  0.33280  Biso   1.000  H
  H172     1.0000 0.94560  0.35240  0.83280  Biso   1.000  H
  H173     1.0000 0.64760  0.55440  0.58280  Biso   1.000  H
  H174     1.0000 0.85240  0.94560  0.08280  Biso   1.000  H
  H175     1.0000 0.55440  0.85240  0.83280  Biso   1.000  H
  H176     1.0000 0.94560  0.64760  0.33280  Biso   1.000  H
  H177     1.0000 0.14140  0.95720  0.66670  Biso   1.000  H
  H178     1.0000 0.35860  0.54280  0.16670  Biso   1.000  H
  H179     1.0000 0.04280  0.64140  0.91670  Biso   1.000  H
  H180     1.0000 0.45720  0.85860  0.41670  Biso   1.000  H
  H181     1.0000 0.14140  0.04280  0.16670  Biso   1.000  H
  H182     1.0000 0.35860  0.45720  0.66670  Biso   1.000  H
  H183     1.0000 0.04280  0.35860  0.41670  Biso   1.000  H
  H184     1.0000 0.45720  0.14140  0.91670  Biso   1.000  H
  H185     1.0000 0.64140  0.45720  0.16670  Biso   1.000  H
  H186     1.0000 0.85860  0.04280  0.66670  Biso   1.000  H
  H187     1.0000 0.54280  0.14140  0.41670  Biso   1.000  H
  H188     1.0000 0.95720  0.35860  0.91670  Biso   1.000  H
  H189     1.0000 0.64140  0.54280  0.66670  Biso   1.000  H
  H190     1.0000 0.85860  0.95720  0.16670  Biso   1.000  H
  H191     1.0000 0.54280  0.85860  0.91670  Biso   1.000  H
  H192     1.0000 0.95720  0.64140  0.41670  Biso   1.000  H
  C129     1.0000 0.24614  0.94657  0.63264  Biso   1.000  C
  C130     1.0000 0.25386  0.55343  0.13264  Biso   1.000  C
  C131     1.0000 0.05343  0.74614  0.88264  Biso   1.000  C
  C132     1.0000 0.44657  0.75386  0.38264  Biso   1.000  C
  C133     1.0000 0.24614  0.05343  0.13264  Biso   1.000  C
  C134     1.0000 0.25386  0.44657  0.63264  Biso   1.000  C
  C135     1.0000 0.05343  0.25386  0.38264  Biso   1.000  C
  C136     1.0000 0.44657  0.24614  0.88264  Biso   1.000  C
  C137     1.0000 0.74614  0.44657  0.13264  Biso   1.000  C
  C138     1.0000 0.75386  0.05343  0.63264  Biso   1.000  C
  C139     1.0000 0.55343  0.24614  0.38264  Biso   1.000  C
  C140     1.0000 0.94657  0.25386  0.88264  Biso   1.000  C
  C141     1.0000 0.74614  0.55343  0.63264  Biso   1.000  C
  C142     1.0000 0.75386  0.94657  0.13264  Biso   1.000  C
  C143     1.0000 0.55343  0.75386  0.88264  Biso   1.000  C
  C144     1.0000 0.94657  0.74614  0.38264  Biso   1.000  C
  C145     1.0000 0.27420  0.99313  0.68300  Biso   1.000  C
  C146     1.0000 0.22580  0.50687  0.18300  Biso   1.000  C
  C147     1.0000 0.00687  0.77420  0.93300  Biso   1.000  C
  C148     1.0000 0.49313  0.72580  0.43300  Biso   1.000  C
  C149     1.0000 0.27420  0.00687  0.18300  Biso   1.000  C
  C150     1.0000 0.22580  0.49313  0.68300  Biso   1.000  C
  C151     1.0000 0.00687  0.22580  0.43300  Biso   1.000  C
  C152     1.0000 0.49313  0.27420  0.93300  Biso   1.000  C
  C153     1.0000 0.77420  0.49313  0.18300  Biso   1.000  C
  C154     1.0000 0.72580  0.00687  0.68300  Biso   1.000  C
  C155     1.0000 0.50687  0.27420  0.43300  Biso   1.000  C
  C156     1.0000 0.99313  0.22580  0.93300  Biso   1.000  C
  C157     1.0000 0.77420  0.50687  0.68300  Biso   1.000  C
  C158     1.0000 0.72580  0.99313  0.18300  Biso   1.000  C
  C159     1.0000 0.50687  0.72580  0.93300  Biso   1.000  C
  C160     1.0000 0.99313  0.77420  0.43300  Biso   1.000  C
  H193     1.0000 0.24340  0.01550  0.71670  Biso   1.000  H
  H194     1.0000 0.25660  0.48450  0.21670  Biso   1.000  H
  H195     1.0000 0.98450  0.74340  0.96670  Biso   1.000  H
  H196     1.0000 0.51550  0.75660  0.46670  Biso   1.000  H
  H197     1.0000 0.24340  0.98450  0.21670  Biso   1.000  H
  H198     1.0000 0.25660  0.51550  0.71670  Biso   1.000  H
  H199     1.0000 0.98450  0.25660  0.46670  Biso   1.000  H
  H200     1.0000 0.51550  0.24340  0.96670  Biso   1.000  H
  H201     1.0000 0.74340  0.51550  0.21670  Biso   1.000  H
  H202     1.0000 0.75660  0.98450  0.71670  Biso   1.000  H
  H203     1.0000 0.48450  0.24340  0.46670  Biso   1.000  H
  H204     1.0000 0.01550  0.25660  0.96670  Biso   1.000  H
  H205     1.0000 0.74340  0.48450  0.71670  Biso   1.000  H
  H206     1.0000 0.75660  0.01550  0.21670  Biso   1.000  H
  H207     1.0000 0.48450  0.75660  0.96670  Biso   1.000  H
  H208     1.0000 0.01550  0.74340  0.46670  Biso   1.000  H
  C161     1.0000 0.34760  0.00686  0.68370  Biso   1.000  C
  C162     1.0000 0.15240  0.49314  0.18370  Biso   1.000  C
  C163     1.0000 0.99314  0.84760  0.93370  Biso   1.000  C
  C164     1.0000 0.50686  0.65240  0.43370  Biso   1.000  C
  C165     1.0000 0.34760  0.99314  0.18370  Biso   1.000  C
  C166     1.0000 0.15240  0.50686  0.68370  Biso   1.000  C
  C167     1.0000 0.99314  0.15240  0.43370  Biso   1.000  C
  C168     1.0000 0.50686  0.34760  0.93370  Biso   1.000  C
  C169     1.0000 0.84760  0.50686  0.18370  Biso   1.000  C
  C170     1.0000 0.65240  0.99314  0.68370  Biso   1.000  C
  C171     1.0000 0.49314  0.34760  0.43370  Biso   1.000  C
  C172     1.0000 0.00686  0.15240  0.93370  Biso   1.000  C
  C173     1.0000 0.84760  0.49314  0.68370  Biso   1.000  C
  C174     1.0000 0.65240  0.00686  0.18370  Biso   1.000  C
  C175     1.0000 0.49314  0.65240  0.93370  Biso   1.000  C
  C176     1.0000 0.00686  0.84760  0.43370  Biso   1.000  C
  H209     1.0000 0.36610  0.03850  0.71890  Biso   1.000  H
  H210     1.0000 0.13390  0.46150  0.21890  Biso   1.000  H
  H211     1.0000 0.96150  0.86610  0.96890  Biso   1.000  H
  H212     1.0000 0.53850  0.63390  0.46890  Biso   1.000  H
  H213     1.0000 0.36610  0.96150  0.21890  Biso   1.000  H
  H214     1.0000 0.13390  0.53850  0.71890  Biso   1.000  H
  H215     1.0000 0.96150  0.13390  0.46890  Biso   1.000  H
  H216     1.0000 0.53850  0.36610  0.96890  Biso   1.000  H
  H217     1.0000 0.86610  0.53850  0.21890  Biso   1.000  H
  H218     1.0000 0.63390  0.96150  0.71890  Biso   1.000  H
  H219     1.0000 0.46150  0.36610  0.46890  Biso   1.000  H
  H220     1.0000 0.03850  0.13390  0.96890  Biso   1.000  H
  H221     1.0000 0.86610  0.46150  0.71890  Biso   1.000  H
  H222     1.0000 0.63390  0.03850  0.21890  Biso   1.000  H
  H223     1.0000 0.46150  0.63390  0.96890  Biso   1.000  H
  H224     1.0000 0.03850  0.86610  0.46890  Biso   1.000  H
  C177     1.0000 0.29424  0.91598  0.58480  Biso   1.000  C
  C178     1.0000 0.20576  0.58402  0.08480  Biso   1.000  C
  C179     1.0000 0.08402  0.79424  0.83480  Biso   1.000  C
  C180     1.0000 0.41598  0.70576  0.33480  Biso   1.000  C
  C181     1.0000 0.29424  0.08402  0.08480  Biso   1.000  C
  C182     1.0000 0.20576  0.41598  0.58480  Biso   1.000  C
  C183     1.0000 0.08402  0.20576  0.33480  Biso   1.000  C
  C184     1.0000 0.41598  0.29424  0.83480  Biso   1.000  C
  C185     1.0000 0.79424  0.41598  0.08480  Biso   1.000  C
  C186     1.0000 0.70576  0.08402  0.58480  Biso   1.000  C
  C187     1.0000 0.58402  0.29424  0.33480  Biso   1.000  C
  C188     1.0000 0.91598  0.20576  0.83480  Biso   1.000  C
  C189     1.0000 0.79424  0.58402  0.58480  Biso   1.000  C
  C190     1.0000 0.70576  0.91598  0.08480  Biso   1.000  C
  C191     1.0000 0.58402  0.70576  0.83480  Biso   1.000  C
  C192     1.0000 0.91598  0.79424  0.33480  Biso   1.000  C
  H225     1.0000 0.27710  0.88370  0.54950  Biso   1.000  H
  H226     1.0000 0.22290  0.61630  0.04950  Biso   1.000  H
  H227     1.0000 0.11630  0.77710  0.79950  Biso   1.000  H
  H228     1.0000 0.38370  0.72290  0.29950  Biso   1.000  H
  H229     1.0000 0.27710  0.11630  0.04950  Biso   1.000  H
  H230     1.0000 0.22290  0.38370  0.54950  Biso   1.000  H
  H231     1.0000 0.11630  0.22290  0.29950  Biso   1.000  H
  H232     1.0000 0.38370  0.27710  0.79950  Biso   1.000  H
  H233     1.0000 0.77710  0.38370  0.04950  Biso   1.000  H
  H234     1.0000 0.72290  0.11630  0.54950  Biso   1.000  H
  H235     1.0000 0.61630  0.27710  0.29950  Biso   1.000  H
  H236     1.0000 0.88370  0.22290  0.79950  Biso   1.000  H
  H237     1.0000 0.77710  0.61630  0.54950  Biso   1.000  H
  H238     1.0000 0.72290  0.88370  0.04950  Biso   1.000  H
  H239     1.0000 0.61630  0.72290  0.79950  Biso   1.000  H
  H240     1.0000 0.88370  0.77710  0.29950  Biso   1.000  H
  C193     1.0000 0.36661  0.93219  0.58821  Biso   1.000  C
  C194     1.0000 0.13339  0.56781  0.08821  Biso   1.000  C
  C195     1.0000 0.06781  0.86661  0.83821  Biso   1.000  C
  C196     1.0000 0.43219  0.63339  0.33821  Biso   1.000  C
  C197     1.0000 0.36661  0.06781  0.08821  Biso   1.000  C
  C198     1.0000 0.13339  0.43219  0.58821  Biso   1.000  C
  C199     1.0000 0.06781  0.13339  0.33821  Biso   1.000  C
  C200     1.0000 0.43219  0.36661  0.83821  Biso   1.000  C
  C201     1.0000 0.86661  0.43219  0.08821  Biso   1.000  C
  C202     1.0000 0.63339  0.06781  0.58821  Biso   1.000  C
  C203     1.0000 0.56781  0.36661  0.33821  Biso   1.000  C
  C204     1.0000 0.93219  0.13339  0.83821  Biso   1.000  C
  C205     1.0000 0.86661  0.56781  0.58821  Biso   1.000  C
  C206     1.0000 0.63339  0.93219  0.08821  Biso   1.000  C
  C207     1.0000 0.56781  0.63339  0.83821  Biso   1.000  C
  C208     1.0000 0.93219  0.86661  0.33821  Biso   1.000  C
  H241     1.0000 0.39840  0.91070  0.55490  Biso   1.000  H
  H242     1.0000 0.10160  0.58930  0.05490  Biso   1.000  H
  H243     1.0000 0.08930  0.89840  0.80490  Biso   1.000  H
  H244     1.0000 0.41070  0.60160  0.30490  Biso   1.000  H
  H245     1.0000 0.39840  0.08930  0.05490  Biso   1.000  H
  H246     1.0000 0.10160  0.41070  0.55490  Biso   1.000  H
  H247     1.0000 0.08930  0.10160  0.30490  Biso   1.000  H
  H248     1.0000 0.41070  0.39840  0.80490  Biso   1.000  H
  H249     1.0000 0.89840  0.41070  0.05490  Biso   1.000  H
  H250     1.0000 0.60160  0.08930  0.55490  Biso   1.000  H
  H251     1.0000 0.58930  0.39840  0.30490  Biso   1.000  H
  H252     1.0000 0.91070  0.10160  0.80490  Biso   1.000  H
  H253     1.0000 0.89840  0.58930  0.55490  Biso   1.000  H
  H254     1.0000 0.60160  0.91070  0.05490  Biso   1.000  H
  H255     1.0000 0.58930  0.60160  0.80490  Biso   1.000  H
  H256     1.0000 0.91070  0.89840  0.30490  Biso   1.000  H
  O17      1.0000 0.10053  0.40408  0.93721  Biso   1.000  O
  O18      1.0000 0.39947  0.09592  0.43721  Biso   1.000  O
  O19      1.0000 0.59592  0.60053  0.18721  Biso   1.000  O
  O20      1.0000 0.90408  0.89947  0.68721  Biso   1.000  O
  O21      1.0000 0.10053  0.59592  0.43721  Biso   1.000  O
  O22      1.0000 0.39947  0.90408  0.93721  Biso   1.000  O
  O23      1.0000 0.59592  0.39947  0.68721  Biso   1.000  O
  O24      1.0000 0.90408  0.10053  0.18721  Biso   1.000  O
  O25      1.0000 0.60053  0.90408  0.43721  Biso   1.000  O
  O26      1.0000 0.89947  0.59592  0.93721  Biso   1.000  O
  O27      1.0000 0.09592  0.10053  0.68721  Biso   1.000  O
  O28      1.0000 0.40408  0.39947  0.18721  Biso   1.000  O
  O29      1.0000 0.60053  0.09592  0.93721  Biso   1.000  O
  O30      1.0000 0.89947  0.40408  0.43721  Biso   1.000  O
  O31      1.0000 0.09592  0.89947  0.18721  Biso   1.000  O
  O32      1.0000 0.40408  0.60053  0.68721  Biso   1.000  O
  O33      1.0000 0.09902  0.41125  0.81906  Biso   1.000  O
  O34      1.0000 0.40098  0.08875  0.31906  Biso   1.000  O
  O35      1.0000 0.58875  0.59902  0.06906  Biso   1.000  O
  O36      1.0000 0.91125  0.90098  0.56906  Biso   1.000  O
  O37      1.0000 0.09902  0.58875  0.31906  Biso   1.000  O
  O38      1.0000 0.40098  0.91125  0.81906  Biso   1.000  O
  O39      1.0000 0.58875  0.40098  0.56906  Biso   1.000  O
  O40      1.0000 0.91125  0.09902  0.06906  Biso   1.000  O
  O41      1.0000 0.59902  0.91125  0.31906  Biso   1.000  O
  O42      1.0000 0.90098  0.58875  0.81906  Biso   1.000  O
  O43      1.0000 0.08875  0.09902  0.56906  Biso   1.000  O
  O44      1.0000 0.41125  0.40098  0.06906  Biso   1.000  O
  O45      1.0000 0.59902  0.08875  0.81906  Biso   1.000  O
  O46      1.0000 0.90098  0.41125  0.31906  Biso   1.000  O
  O47      1.0000 0.08875  0.90098  0.06906  Biso   1.000  O
  O48      1.0000 0.41125  0.59902  0.56906  Biso   1.000  O
  C209     1.0000 0.11836  0.38690  0.87710  Biso   1.000  C
  C210     1.0000 0.38164  0.11310  0.37710  Biso   1.000  C
  C211     1.0000 0.61310  0.61836  0.12710  Biso   1.000  C
  C212     1.0000 0.88690  0.88164  0.62710  Biso   1.000  C
  C213     1.0000 0.11836  0.61310  0.37710  Biso   1.000  C
  C214     1.0000 0.38164  0.88690  0.87710  Biso   1.000  C
  C215     1.0000 0.61310  0.38164  0.62710  Biso   1.000  C
  C216     1.0000 0.88690  0.11836  0.12710  Biso   1.000  C
  C217     1.0000 0.61836  0.88690  0.37710  Biso   1.000  C
  C218     1.0000 0.88164  0.61310  0.87710  Biso   1.000  C
  C219     1.0000 0.11310  0.11836  0.62710  Biso   1.000  C
  C220     1.0000 0.38690  0.38164  0.12710  Biso   1.000  C
  C221     1.0000 0.61836  0.11310  0.87710  Biso   1.000  C
  C222     1.0000 0.88164  0.38690  0.37710  Biso   1.000  C
  C223     1.0000 0.11310  0.88164  0.12710  Biso   1.000  C
  C224     1.0000 0.38690  0.61836  0.62710  Biso   1.000  C
  C225     1.0000 0.17210  0.32530  0.87116  Biso   1.000  C
  C226     1.0000 0.32790  0.17470  0.37116  Biso   1.000  C
  C227     1.0000 0.67470  0.67210  0.12116  Biso   1.000  C
  C228     1.0000 0.82530  0.82790  0.62116  Biso   1.000  C
  C229     1.0000 0.17210  0.67470  0.37116  Biso   1.000  C
  C230     1.0000 0.32790  0.82530  0.87116  Biso   1.000  C
  C231     1.0000 0.67470  0.32790  0.62116  Biso   1.000  C
  C232     1.0000 0.82530  0.17210  0.12116  Biso   1.000  C
  C233     1.0000 0.67210  0.82530  0.37116  Biso   1.000  C
  C234     1.0000 0.82790  0.67470  0.87116  Biso   1.000  C
  C235     1.0000 0.17470  0.17210  0.62116  Biso   1.000  C
  C236     1.0000 0.32530  0.32790  0.12116  Biso   1.000  C
  C237     1.0000 0.67210  0.17470  0.87116  Biso   1.000  C
  C238     1.0000 0.82790  0.32530  0.37116  Biso   1.000  C
  C239     1.0000 0.17470  0.82790  0.12116  Biso   1.000  C
  C240     1.0000 0.32530  0.67210  0.62116  Biso   1.000  C
  F1       1.0000 0.17080  0.27550  0.92440  Biso   1.000  F
  F2       1.0000 0.32920  0.22450  0.42440  Biso   1.000  F
  F3       1.0000 0.72450  0.67080  0.17440  Biso   1.000  F
  F4       1.0000 0.77550  0.82920  0.67440  Biso   1.000  F
  F5       1.0000 0.17080  0.72450  0.42440  Biso   1.000  F
  F6       1.0000 0.32920  0.77550  0.92440  Biso   1.000  F
  F7       1.0000 0.72450  0.32920  0.67440  Biso   1.000  F
  F8       1.0000 0.77550  0.17080  0.17440  Biso   1.000  F
  F9       1.0000 0.67080  0.77550  0.42440  Biso   1.000  F
  F10      1.0000 0.82920  0.72450  0.92440  Biso   1.000  F
  F11      1.0000 0.22450  0.17080  0.67440  Biso   1.000  F
  F12      1.0000 0.27550  0.32920  0.17440  Biso   1.000  F
  F13      1.0000 0.67080  0.22450  0.92440  Biso   1.000  F
  F14      1.0000 0.82920  0.27550  0.42440  Biso   1.000  F
  F15      1.0000 0.22450  0.82920  0.17440  Biso   1.000  F
  F16      1.0000 0.27550  0.67080  0.67440  Biso   1.000  F
  F17      1.0000 0.24070  0.34520  0.86180  Biso   1.000  F
  F18      1.0000 0.25930  0.15480  0.36180  Biso   1.000  F
  F19      1.0000 0.65480  0.74070  0.11180  Biso   1.000  F
  F20      1.0000 0.84520  0.75930  0.61180  Biso   1.000  F
  F21      1.0000 0.24070  0.65480  0.36180  Biso   1.000  F
  F22      1.0000 0.25930  0.84520  0.86180  Biso   1.000  F
  F23      1.0000 0.65480  0.25930  0.61180  Biso   1.000  F
  F24      1.0000 0.84520  0.24070  0.11180  Biso   1.000  F
  F25      1.0000 0.74070  0.84520  0.36180  Biso   1.000  F
  F26      1.0000 0.75930  0.65480  0.86180  Biso   1.000  F
  F27      1.0000 0.15480  0.24070  0.61180  Biso   1.000  F
  F28      1.0000 0.34520  0.25930  0.11180  Biso   1.000  F
  F29      1.0000 0.74070  0.15480  0.86180  Biso   1.000  F
  F30      1.0000 0.75930  0.34520  0.36180  Biso   1.000  F
  F31      1.0000 0.15480  0.75930  0.11180  Biso   1.000  F
  F32      1.0000 0.34520  0.74070  0.61180  Biso   1.000  F
  F33      1.0000 0.16020  0.27860  0.81690  Biso   1.000  F
  F34      1.0000 0.33980  0.22140  0.31690  Biso   1.000  F
  F35      1.0000 0.72140  0.66020  0.06690  Biso   1.000  F
  F36      1.0000 0.77860  0.83980  0.56690  Biso   1.000  F
  F37      1.0000 0.16020  0.72140  0.31690  Biso   1.000  F
  F38      1.0000 0.33980  0.77860  0.81690  Biso   1.000  F
  F39      1.0000 0.72140  0.33980  0.56690  Biso   1.000  F
  F40      1.0000 0.77860  0.16020  0.06690  Biso   1.000  F
  F41      1.0000 0.66020  0.77860  0.31690  Biso   1.000  F
  F42      1.0000 0.83980  0.72140  0.81690  Biso   1.000  F
  F43      1.0000 0.22140  0.16020  0.56690  Biso   1.000  F
  F44      1.0000 0.27860  0.33980  0.06690  Biso   1.000  F
  F45      1.0000 0.66020  0.22140  0.81690  Biso   1.000  F
  F46      1.0000 0.83980  0.27860  0.31690  Biso   1.000  F
  F47      1.0000 0.22140  0.83980  0.06690  Biso   1.000  F
  F48      1.0000 0.27860  0.66020  0.56690  Biso   1.000  F
  F49      1.0000 0.23110  0.35060  0.83430  Biso   1.000  F
  F50      1.0000 0.26890  0.14940  0.33430  Biso   1.000  F
  F51      1.0000 0.64940  0.73110  0.08430  Biso   1.000  F
  F52      1.0000 0.85060  0.76890  0.58430  Biso   1.000  F
  F53      1.0000 0.23110  0.64940  0.33430  Biso   1.000  F
  F54      1.0000 0.26890  0.85060  0.83430  Biso   1.000  F
  F55      1.0000 0.64940  0.26890  0.58430  Biso   1.000  F
  F56      1.0000 0.85060  0.23110  0.08430  Biso   1.000  F
  F57      1.0000 0.73110  0.85060  0.33430  Biso   1.000  F
  F58      1.0000 0.76890  0.64940  0.83430  Biso   1.000  F
  F59      1.0000 0.14940  0.23110  0.58430  Biso   1.000  F
  F60      1.0000 0.35060  0.26890  0.08430  Biso   1.000  F
  F61      1.0000 0.73110  0.14940  0.83430  Biso   1.000  F
  F62      1.0000 0.76890  0.35060  0.33430  Biso   1.000  F
  F63      1.0000 0.14940  0.76890  0.08430  Biso   1.000  F
  F64      1.0000 0.35060  0.73110  0.58430  Biso   1.000  F
  F65      1.0000 0.14000  0.27270  0.82860  Biso   1.000  F
  F66      1.0000 0.36000  0.22730  0.32860  Biso   1.000  F
  F67      1.0000 0.72730  0.64000  0.07860  Biso   1.000  F
  F68      1.0000 0.77270  0.86000  0.57860  Biso   1.000  F
  F69      1.0000 0.14000  0.72730  0.32860  Biso   1.000  F
  F70      1.0000 0.36000  0.77270  0.82860  Biso   1.000  F
  F71      1.0000 0.72730  0.36000  0.57860  Biso   1.000  F
  F72      1.0000 0.77270  0.14000  0.07860  Biso   1.000  F
  F73      1.0000 0.64000  0.77270  0.32860  Biso   1.000  F
  F74      1.0000 0.86000  0.72730  0.82860  Biso   1.000  F
  F75      1.0000 0.22730  0.14000  0.57860  Biso   1.000  F
  F76      1.0000 0.27270  0.36000  0.07860  Biso   1.000  F
  F77      1.0000 0.64000  0.22730  0.82860  Biso   1.000  F
  F78      1.0000 0.86000  0.27270  0.32860  Biso   1.000  F
  F79      1.0000 0.22730  0.86000  0.07860  Biso   1.000  F
  F80      1.0000 0.27270  0.64000  0.57860  Biso   1.000  F
  F81      1.0000 0.19150  0.29570  0.93450  Biso   1.000  F
  F82      1.0000 0.30850  0.20430  0.43450  Biso   1.000  F
  F83      1.0000 0.70430  0.69150  0.18450  Biso   1.000  F
  F84      1.0000 0.79570  0.80850  0.68450  Biso   1.000  F
  F85      1.0000 0.19150  0.70430  0.43450  Biso   1.000  F
  F86      1.0000 0.30850  0.79570  0.93450  Biso   1.000  F
  F87      1.0000 0.70430  0.30850  0.68450  Biso   1.000  F
  F88      1.0000 0.79570  0.19150  0.18450  Biso   1.000  F
  F89      1.0000 0.69150  0.79570  0.43450  Biso   1.000  F
  F90      1.0000 0.80850  0.70430  0.93450  Biso   1.000  F
  F91      1.0000 0.20430  0.19150  0.68450  Biso   1.000  F
  F92      1.0000 0.29570  0.30850  0.18450  Biso   1.000  F
  F93      1.0000 0.69150  0.20430  0.93450  Biso   1.000  F
  F94      1.0000 0.80850  0.29570  0.43450  Biso   1.000  F
  F95      1.0000 0.20430  0.80850  0.18450  Biso   1.000  F
  F96      1.0000 0.29570  0.69150  0.68450  Biso   1.000  F
  F97      1.0000 0.21640  0.32230  0.92950  Biso   1.000  F
  F98      1.0000 0.28360  0.17770  0.42950  Biso   1.000  F
  F99      1.0000 0.67770  0.71640  0.17950  Biso   1.000  F
  F100     1.0000 0.82230  0.78360  0.67950  Biso   1.000  F
  F101     1.0000 0.21640  0.67770  0.42950  Biso   1.000  F
  F102     1.0000 0.28360  0.82230  0.92950  Biso   1.000  F
  F103     1.0000 0.67770  0.28360  0.67950  Biso   1.000  F
  F104     1.0000 0.82230  0.21640  0.17950  Biso   1.000  F
  F105     1.0000 0.71640  0.82230  0.42950  Biso   1.000  F
  F106     1.0000 0.78360  0.67770  0.92950  Biso   1.000  F
  F107     1.0000 0.17770  0.21640  0.67950  Biso   1.000  F
  F108     1.0000 0.32230  0.28360  0.17950  Biso   1.000  F
  F109     1.0000 0.71640  0.17770  0.92950  Biso   1.000  F
  F110     1.0000 0.78360  0.32230  0.42950  Biso   1.000  F
  F111     1.0000 0.17770  0.78360  0.17950  Biso   1.000  F
  F112     1.0000 0.32230  0.71640  0.67950  Biso   1.000  F
  F113     1.0000 0.14600  0.26020  0.85530  Biso   1.000  F
  F114     1.0000 0.35400  0.23980  0.35530  Biso   1.000  F
  F115     1.0000 0.73980  0.64600  0.10530  Biso   1.000  F
  F116     1.0000 0.76020  0.85400  0.60530  Biso   1.000  F
  F117     1.0000 0.14600  0.73980  0.35530  Biso   1.000  F
  F118     1.0000 0.35400  0.76020  0.85530  Biso   1.000  F
  F119     1.0000 0.73980  0.35400  0.60530  Biso   1.000  F
  F120     1.0000 0.76020  0.14600  0.10530  Biso   1.000  F
  F121     1.0000 0.64600  0.76020  0.35530  Biso   1.000  F
  F122     1.0000 0.85400  0.73980  0.85530  Biso   1.000  F
  F123     1.0000 0.23980  0.14600  0.60530  Biso   1.000  F
  F124     1.0000 0.26020  0.35400  0.10530  Biso   1.000  F
  F125     1.0000 0.64600  0.23980  0.85530  Biso   1.000  F
  F126     1.0000 0.85400  0.26020  0.35530  Biso   1.000  F
  F127     1.0000 0.23980  0.85400  0.10530  Biso   1.000  F
  F128     1.0000 0.26020  0.64600  0.60530  Biso   1.000  F
  F129     1.0000 0.22530  0.33110  0.82290  Biso   1.000  F
  F130     1.0000 0.27470  0.16890  0.32290  Biso   1.000  F
  F131     1.0000 0.66890  0.72530  0.07290  Biso   1.000  F
  F132     1.0000 0.83110  0.77470  0.57290  Biso   1.000  F
  F133     1.0000 0.22530  0.66890  0.32290  Biso   1.000  F
  F134     1.0000 0.27470  0.83110  0.82290  Biso   1.000  F
  F135     1.0000 0.66890  0.27470  0.57290  Biso   1.000  F
  F136     1.0000 0.83110  0.22530  0.07290  Biso   1.000  F
  F137     1.0000 0.72530  0.83110  0.32290  Biso   1.000  F
  F138     1.0000 0.77470  0.66890  0.82290  Biso   1.000  F
  F139     1.0000 0.16890  0.22530  0.57290  Biso   1.000  F
  F140     1.0000 0.33110  0.27470  0.07290  Biso   1.000  F
  F141     1.0000 0.72530  0.16890  0.82290  Biso   1.000  F
  F142     1.0000 0.77470  0.33110  0.32290  Biso   1.000  F
  F143     1.0000 0.16890  0.77470  0.07290  Biso   1.000  F
  F144     1.0000 0.33110  0.72530  0.57290  Biso   1.000  F
