data_image0
_cell_length_a       18.2829
_cell_length_b       18.2829
_cell_length_c       47.823
_cell_angle_alpha    90
_cell_angle_beta     90
_cell_angle_gamma    120

_symmetry_space_group_name_H-M    "P 1"
_symmetry_int_tables_number       1

loop_
  _symmetry_equiv_pos_as_xyz
  'x, y, z'

loop_
  _atom_site_label
  _atom_site_occupancy
  _atom_site_fract_x
  _atom_site_fract_y
  _atom_site_fract_z
  _atom_site_thermal_displace_type
  _atom_site_B_iso_or_equiv
  _atom_site_type_symbol
  Er1      1.0000 0.78367  0.32830  0.00709  Biso   1.000  Er
  Er2      1.0000 0.67170  0.45537  0.00709  Biso   1.000  Er
  Er3      1.0000 0.54463  0.21633  0.00709  Biso   1.000  Er
  Er4      1.0000 0.45034  0.66163  0.34043  Biso   1.000  Er
  Er5      1.0000 0.33837  0.78870  0.34043  Biso   1.000  Er
  Er6      1.0000 0.21130  0.54966  0.34043  Biso   1.000  Er
  Er7      1.0000 0.11700  0.99497  0.67376  Biso   1.000  Er
  Er8      1.0000 0.00503  0.12204  0.67376  Biso   1.000  Er
  Er9      1.0000 0.87796  0.88300  0.67376  Biso   1.000  Er
  Er10     1.0000 0.21633  0.67170  0.99291  Biso   1.000  Er
  Er11     1.0000 0.32830  0.54463  0.99291  Biso   1.000  Er
  Er12     1.0000 0.45537  0.78367  0.99291  Biso   1.000  Er
  Er13     1.0000 0.88300  0.00503  0.32624  Biso   1.000  Er
  Er14     1.0000 0.99497  0.87796  0.32624  Biso   1.000  Er
  Er15     1.0000 0.12204  0.11700  0.32624  Biso   1.000  Er
  Er16     1.0000 0.54966  0.33837  0.65957  Biso   1.000  Er
  Er17     1.0000 0.66163  0.21130  0.65957  Biso   1.000  Er
  Er18     1.0000 0.78870  0.45034  0.65957  Biso   1.000  Er
  Er19     1.0000 0.98534  0.55129  0.96942  Biso   1.000  Er
  Er20     1.0000 0.44871  0.43405  0.96942  Biso   1.000  Er
  Er21     1.0000 0.56595  0.01466  0.96942  Biso   1.000  Er
  Er22     1.0000 0.65201  0.88462  0.30275  Biso   1.000  Er
  Er23     1.0000 0.11538  0.76738  0.30275  Biso   1.000  Er
  Er24     1.0000 0.23262  0.34799  0.30275  Biso   1.000  Er
  Er25     1.0000 0.31867  0.21796  0.63609  Biso   1.000  Er
  Er26     1.0000 0.78204  0.10072  0.63609  Biso   1.000  Er
  Er27     1.0000 0.89928  0.68133  0.63609  Biso   1.000  Er
  Er28     1.0000 0.01466  0.44871  0.03058  Biso   1.000  Er
  Er29     1.0000 0.55129  0.56595  0.03058  Biso   1.000  Er
  Er30     1.0000 0.43405  0.98534  0.03058  Biso   1.000  Er
  Er31     1.0000 0.68133  0.78204  0.36391  Biso   1.000  Er
  Er32     1.0000 0.21796  0.89928  0.36391  Biso   1.000  Er
  Er33     1.0000 0.10072  0.31867  0.36391  Biso   1.000  Er
  Er34     1.0000 0.34799  0.11538  0.69725  Biso   1.000  Er
  Er35     1.0000 0.88462  0.23262  0.69725  Biso   1.000  Er
  Er36     1.0000 0.76738  0.65201  0.69725  Biso   1.000  Er
  Er37     1.0000 0.66670  0.33330  0.94515  Biso   1.000  Er
  Er38     1.0000 0.33337  0.66663  0.27849  Biso   1.000  Er
  Er39     1.0000 0.00003  0.99997  0.61182  Biso   1.000  Er
  Er40     1.0000 0.33330  0.66670  0.05485  Biso   1.000  Er
  Er41     1.0000 0.99997  0.00003  0.38818  Biso   1.000  Er
  Er42     1.0000 0.66663  0.33337  0.72151  Biso   1.000  Er
  Cu1      1.0000 0.99020  0.13948  0.86921  Biso   1.000  Cu
  Cu2      1.0000 0.86052  0.85072  0.86921  Biso   1.000  Cu
  Cu3      1.0000 0.14928  0.00980  0.86921  Biso   1.000  Cu
  Cu4      1.0000 0.65687  0.47281  0.20254  Biso   1.000  Cu
  Cu5      1.0000 0.52719  0.18405  0.20254  Biso   1.000  Cu
  Cu6      1.0000 0.81595  0.34313  0.20254  Biso   1.000  Cu
  Cu7      1.0000 0.32353  0.80615  0.53588  Biso   1.000  Cu
  Cu8      1.0000 0.19385  0.51739  0.53588  Biso   1.000  Cu
  Cu9      1.0000 0.48261  0.67647  0.53588  Biso   1.000  Cu
  Cu10     1.0000 0.00980  0.86052  0.13079  Biso   1.000  Cu
  Cu11     1.0000 0.13948  0.14928  0.13079  Biso   1.000  Cu
  Cu12     1.0000 0.85072  0.99020  0.13079  Biso   1.000  Cu
  Cu13     1.0000 0.67647  0.19385  0.46412  Biso   1.000  Cu
  Cu14     1.0000 0.80615  0.48261  0.46412  Biso   1.000  Cu
  Cu15     1.0000 0.51739  0.32353  0.46412  Biso   1.000  Cu
  Cu16     1.0000 0.34313  0.52719  0.79746  Biso   1.000  Cu
  Cu17     1.0000 0.47281  0.81595  0.79746  Biso   1.000  Cu
  Cu18     1.0000 0.18405  0.65687  0.79746  Biso   1.000  Cu
  Cl1      1.0000 0.00000  0.00010  0.88138  Biso   1.000  Cl
  Cl2      1.0000 0.66667  0.33343  0.21471  Biso   1.000  Cl
  Cl3      1.0000 0.33333  0.66677  0.54805  Biso   1.000  Cl
  Cl4      1.0000 0.00000  0.99990  0.11862  Biso   1.000  Cl
  Cl5      1.0000 0.66667  0.33323  0.45195  Biso   1.000  Cl
  Cl6      1.0000 0.33333  0.66657  0.78529  Biso   1.000  Cl
  Cl7      1.0000 0.11370  0.13390  0.88093  Biso   1.000  Cl
  Cl8      1.0000 0.86610  0.97980  0.88093  Biso   1.000  Cl
  Cl9      1.0000 0.02020  0.88630  0.88093  Biso   1.000  Cl
  Cl10     1.0000 0.78037  0.46723  0.21426  Biso   1.000  Cl
  Cl11     1.0000 0.53277  0.31313  0.21426  Biso   1.000  Cl
  Cl12     1.0000 0.68687  0.21963  0.21426  Biso   1.000  Cl
  Cl13     1.0000 0.44703  0.80057  0.54760  Biso   1.000  Cl
  Cl14     1.0000 0.19943  0.64647  0.54760  Biso   1.000  Cl
  Cl15     1.0000 0.35353  0.55297  0.54760  Biso   1.000  Cl
  Cl16     1.0000 0.88630  0.86610  0.11907  Biso   1.000  Cl
  Cl17     1.0000 0.13390  0.02020  0.11907  Biso   1.000  Cl
  Cl18     1.0000 0.97980  0.11370  0.11907  Biso   1.000  Cl
  Cl19     1.0000 0.55297  0.19943  0.45240  Biso   1.000  Cl
  Cl20     1.0000 0.80057  0.35353  0.45240  Biso   1.000  Cl
  Cl21     1.0000 0.64647  0.44703  0.45240  Biso   1.000  Cl
  Cl22     1.0000 0.21963  0.53277  0.78574  Biso   1.000  Cl
  Cl23     1.0000 0.46723  0.68687  0.78574  Biso   1.000  Cl
  Cl24     1.0000 0.31313  0.78037  0.78574  Biso   1.000  Cl
  O1       1.0000 0.95730  0.41490  0.95854  Biso   1.000  O
  O2       1.0000 0.58510  0.54240  0.95854  Biso   1.000  O
  O3       1.0000 0.45760  0.04270  0.95854  Biso   1.000  O
  O4       1.0000 0.62397  0.74823  0.29187  Biso   1.000  O
  O5       1.0000 0.25177  0.87573  0.29187  Biso   1.000  O
  O6       1.0000 0.12427  0.37603  0.29187  Biso   1.000  O
  O7       1.0000 0.29063  0.08157  0.62521  Biso   1.000  O
  O8       1.0000 0.91843  0.20907  0.62521  Biso   1.000  O
  O9       1.0000 0.79093  0.70937  0.62521  Biso   1.000  O
  O10      1.0000 0.04270  0.58510  0.04146  Biso   1.000  O
  O11      1.0000 0.41490  0.45760  0.04146  Biso   1.000  O
  O12      1.0000 0.54240  0.95730  0.04146  Biso   1.000  O
  O13      1.0000 0.70937  0.91843  0.37479  Biso   1.000  O
  O14      1.0000 0.08157  0.79093  0.37479  Biso   1.000  O
  O15      1.0000 0.20907  0.29063  0.37479  Biso   1.000  O
  O16      1.0000 0.37603  0.25177  0.70813  Biso   1.000  O
  O17      1.0000 0.74823  0.12427  0.70813  Biso   1.000  O
  O18      1.0000 0.87573  0.62397  0.70813  Biso   1.000  O
  O19      1.0000 0.82590  0.30760  0.96315  Biso   1.000  O
  O20      1.0000 0.69240  0.51830  0.96315  Biso   1.000  O
  O21      1.0000 0.48170  0.17410  0.96315  Biso   1.000  O
  O22      1.0000 0.49257  0.64093  0.29648  Biso   1.000  O
  O23      1.0000 0.35907  0.85163  0.29648  Biso   1.000  O
  O24      1.0000 0.14837  0.50743  0.29648  Biso   1.000  O
  O25      1.0000 0.15923  0.97427  0.62982  Biso   1.000  O
  O26      1.0000 0.02573  0.18497  0.62982  Biso   1.000  O
  O27      1.0000 0.81503  0.84077  0.62982  Biso   1.000  O
  O28      1.0000 0.17410  0.69240  0.03685  Biso   1.000  O
  O29      1.0000 0.30760  0.48170  0.03685  Biso   1.000  O
  O30      1.0000 0.51830  0.82590  0.03685  Biso   1.000  O
  O31      1.0000 0.84077  0.02573  0.37018  Biso   1.000  O
  O32      1.0000 0.97427  0.81503  0.37018  Biso   1.000  O
  O33      1.0000 0.18497  0.15923  0.37018  Biso   1.000  O
  O34      1.0000 0.50743  0.35907  0.70352  Biso   1.000  O
  O35      1.0000 0.64093  0.14837  0.70352  Biso   1.000  O
  O36      1.0000 0.85163  0.49257  0.70352  Biso   1.000  O
  O37      1.0000 0.88290  0.51640  0.93696  Biso   1.000  O
  O38      1.0000 0.48360  0.36650  0.93696  Biso   1.000  O
  O39      1.0000 0.63350  0.11710  0.93696  Biso   1.000  O
  O40      1.0000 0.54957  0.84973  0.27029  Biso   1.000  O
  O41      1.0000 0.15027  0.69983  0.27029  Biso   1.000  O
  O42      1.0000 0.30017  0.45043  0.27029  Biso   1.000  O
  O43      1.0000 0.21623  0.18307  0.60363  Biso   1.000  O
  O44      1.0000 0.81693  0.03317  0.60363  Biso   1.000  O
  O45      1.0000 0.96683  0.78377  0.60363  Biso   1.000  O
  O46      1.0000 0.11710  0.48360  0.06304  Biso   1.000  O
  O47      1.0000 0.51640  0.63350  0.06304  Biso   1.000  O
  O48      1.0000 0.36650  0.88290  0.06304  Biso   1.000  O
  O49      1.0000 0.78377  0.81693  0.39637  Biso   1.000  O
  O50      1.0000 0.18307  0.96683  0.39637  Biso   1.000  O
  O51      1.0000 0.03317  0.21623  0.39637  Biso   1.000  O
  O52      1.0000 0.45043  0.15027  0.72971  Biso   1.000  O
  O53      1.0000 0.84973  0.30017  0.72971  Biso   1.000  O
  O54      1.0000 0.69983  0.54957  0.72971  Biso   1.000  O
  O55      1.0000 0.76720  0.42280  0.91555  Biso   1.000  O
  O56      1.0000 0.57720  0.34440  0.91555  Biso   1.000  O
  O57      1.0000 0.65560  0.23280  0.91555  Biso   1.000  O
  O58      1.0000 0.43387  0.75613  0.24888  Biso   1.000  O
  O59      1.0000 0.24387  0.67773  0.24888  Biso   1.000  O
  O60      1.0000 0.32227  0.56613  0.24888  Biso   1.000  O
  O61      1.0000 0.10053  0.08947  0.58222  Biso   1.000  O
  O62      1.0000 0.91053  0.01107  0.58222  Biso   1.000  O
  O63      1.0000 0.98893  0.89947  0.58222  Biso   1.000  O
  O64      1.0000 0.23280  0.57720  0.08445  Biso   1.000  O
  O65      1.0000 0.42280  0.65560  0.08445  Biso   1.000  O
  O66      1.0000 0.34440  0.76720  0.08445  Biso   1.000  O
  O67      1.0000 0.89947  0.91053  0.41778  Biso   1.000  O
  O68      1.0000 0.08947  0.98893  0.41778  Biso   1.000  O
  O69      1.0000 0.01107  0.10053  0.41778  Biso   1.000  O
  O70      1.0000 0.56613  0.24387  0.75112  Biso   1.000  O
  O71      1.0000 0.75613  0.32227  0.75112  Biso   1.000  O
  O72      1.0000 0.67773  0.43387  0.75112  Biso   1.000  O
  O73      1.0000 0.92900  0.44080  0.06637  Biso   1.000  O
  O74      1.0000 0.55920  0.48820  0.06637  Biso   1.000  O
  O75      1.0000 0.51180  0.07100  0.06637  Biso   1.000  O
  O76      1.0000 0.59567  0.77413  0.39970  Biso   1.000  O
  O77      1.0000 0.22587  0.82153  0.39970  Biso   1.000  O
  O78      1.0000 0.17847  0.40433  0.39970  Biso   1.000  O
  O79      1.0000 0.26233  0.10747  0.73304  Biso   1.000  O
  O80      1.0000 0.89253  0.15487  0.73304  Biso   1.000  O
  O81      1.0000 0.84513  0.73767  0.73304  Biso   1.000  O
  O82      1.0000 0.07100  0.55920  0.93363  Biso   1.000  O
  O83      1.0000 0.44080  0.51180  0.93363  Biso   1.000  O
  O84      1.0000 0.48820  0.92900  0.93363  Biso   1.000  O
  O85      1.0000 0.73767  0.89253  0.26696  Biso   1.000  O
  O86      1.0000 0.10747  0.84513  0.26696  Biso   1.000  O
  O87      1.0000 0.15487  0.26233  0.26696  Biso   1.000  O
  O88      1.0000 0.40433  0.22587  0.60030  Biso   1.000  O
  O89      1.0000 0.77413  0.17847  0.60030  Biso   1.000  O
  O90      1.0000 0.82153  0.59567  0.60030  Biso   1.000  O
  O91      1.0000 0.79610  0.34330  0.05668  Biso   1.000  O
  O92      1.0000 0.65670  0.45280  0.05668  Biso   1.000  O
  O93      1.0000 0.54720  0.20390  0.05668  Biso   1.000  O
  O94      1.0000 0.46277  0.67663  0.39001  Biso   1.000  O
  O95      1.0000 0.32337  0.78613  0.39001  Biso   1.000  O
  O96      1.0000 0.21387  0.53723  0.39001  Biso   1.000  O
  O97      1.0000 0.12943  0.00997  0.72335  Biso   1.000  O
  O98      1.0000 0.99003  0.11947  0.72335  Biso   1.000  O
  O99      1.0000 0.88053  0.87057  0.72335  Biso   1.000  O
  O100     1.0000 0.20390  0.65670  0.94332  Biso   1.000  O
  O101     1.0000 0.34330  0.54720  0.94332  Biso   1.000  O
  O102     1.0000 0.45280  0.79610  0.94332  Biso   1.000  O
  O103     1.0000 0.87057  0.99003  0.27665  Biso   1.000  O
  O104     1.0000 0.00997  0.88053  0.27665  Biso   1.000  O
  O105     1.0000 0.11947  0.12943  0.27665  Biso   1.000  O
  O106     1.0000 0.53723  0.32337  0.60999  Biso   1.000  O
  O107     1.0000 0.67663  0.21387  0.60999  Biso   1.000  O
  O108     1.0000 0.78613  0.46277  0.60999  Biso   1.000  O
  O109     1.0000 0.96720  0.31210  0.05428  Biso   1.000  O
  O110     1.0000 0.68790  0.65510  0.05428  Biso   1.000  O
  O111     1.0000 0.34490  0.03280  0.05428  Biso   1.000  O
  O112     1.0000 0.63387  0.64543  0.38761  Biso   1.000  O
  O113     1.0000 0.35457  0.98843  0.38761  Biso   1.000  O
  O114     1.0000 0.01157  0.36613  0.38761  Biso   1.000  O
  O115     1.0000 0.30053  0.97877  0.72095  Biso   1.000  O
  O116     1.0000 0.02123  0.32177  0.72095  Biso   1.000  O
  O117     1.0000 0.67823  0.69947  0.72095  Biso   1.000  O
  O118     1.0000 0.03280  0.68790  0.94572  Biso   1.000  O
  O119     1.0000 0.31210  0.34490  0.94572  Biso   1.000  O
  O120     1.0000 0.65510  0.96720  0.94572  Biso   1.000  O
  O121     1.0000 0.69947  0.02123  0.27905  Biso   1.000  O
  O122     1.0000 0.97877  0.67823  0.27905  Biso   1.000  O
  O123     1.0000 0.32177  0.30053  0.27905  Biso   1.000  O
  O124     1.0000 0.36613  0.35457  0.61239  Biso   1.000  O
  O125     1.0000 0.64543  0.01157  0.61239  Biso   1.000  O
  O126     1.0000 0.98843  0.63387  0.61239  Biso   1.000  O
  O127     1.0000 0.90030  0.30810  0.01594  Biso   1.000  O
  O128     1.0000 0.69190  0.59220  0.01594  Biso   1.000  O
  O129     1.0000 0.40780  0.09970  0.01594  Biso   1.000  O
  O130     1.0000 0.56697  0.64143  0.34927  Biso   1.000  O
  O131     1.0000 0.35857  0.92553  0.34927  Biso   1.000  O
  O132     1.0000 0.07447  0.43303  0.34927  Biso   1.000  O
  O133     1.0000 0.23363  0.97477  0.68261  Biso   1.000  O
  O134     1.0000 0.02523  0.25887  0.68261  Biso   1.000  O
  O135     1.0000 0.74113  0.76637  0.68261  Biso   1.000  O
  O136     1.0000 0.09970  0.69190  0.98406  Biso   1.000  O
  O137     1.0000 0.30810  0.40780  0.98406  Biso   1.000  O
  O138     1.0000 0.59220  0.90030  0.98406  Biso   1.000  O
  O139     1.0000 0.76637  0.02523  0.31739  Biso   1.000  O
  O140     1.0000 0.97477  0.74113  0.31739  Biso   1.000  O
  O141     1.0000 0.25887  0.23363  0.31739  Biso   1.000  O
  O142     1.0000 0.43303  0.35857  0.65073  Biso   1.000  O
  O143     1.0000 0.64143  0.07447  0.65073  Biso   1.000  O
  O144     1.0000 0.92553  0.56697  0.65073  Biso   1.000  O
  O145     1.0000 0.73280  0.18980  0.02149  Biso   1.000  O
  O146     1.0000 0.81020  0.54300  0.02149  Biso   1.000  O
  O147     1.0000 0.45700  0.26720  0.02149  Biso   1.000  O
  O148     1.0000 0.39947  0.52313  0.35482  Biso   1.000  O
  O149     1.0000 0.47687  0.87633  0.35482  Biso   1.000  O
  O150     1.0000 0.12367  0.60053  0.35482  Biso   1.000  O
  O151     1.0000 0.06613  0.85647  0.68816  Biso   1.000  O
  O152     1.0000 0.14353  0.20967  0.68816  Biso   1.000  O
  O153     1.0000 0.79033  0.93387  0.68816  Biso   1.000  O
  O154     1.0000 0.26720  0.81020  0.97851  Biso   1.000  O
  O155     1.0000 0.18980  0.45700  0.97851  Biso   1.000  O
  O156     1.0000 0.54300  0.73280  0.97851  Biso   1.000  O
  O157     1.0000 0.93387  0.14353  0.31184  Biso   1.000  O
  O158     1.0000 0.85647  0.79033  0.31184  Biso   1.000  O
  O159     1.0000 0.20967  0.06613  0.31184  Biso   1.000  O
  O160     1.0000 0.60053  0.47687  0.64518  Biso   1.000  O
  O161     1.0000 0.52313  0.12367  0.64518  Biso   1.000  O
  O162     1.0000 0.87633  0.39947  0.64518  Biso   1.000  O
  O163     1.0000 0.69890  0.08830  0.99030  Biso   1.000  O
  O164     1.0000 0.91170  0.61060  0.99030  Biso   1.000  O
  O165     1.0000 0.38940  0.30110  0.99030  Biso   1.000  O
  O166     1.0000 0.36557  0.42163  0.32363  Biso   1.000  O
  O167     1.0000 0.57837  0.94393  0.32363  Biso   1.000  O
  O168     1.0000 0.05607  0.63443  0.32363  Biso   1.000  O
  O169     1.0000 0.03223  0.75497  0.65697  Biso   1.000  O
  O170     1.0000 0.24503  0.27727  0.65697  Biso   1.000  O
  O171     1.0000 0.72273  0.96777  0.65697  Biso   1.000  O
  O172     1.0000 0.30110  0.91170  0.00970  Biso   1.000  O
  O173     1.0000 0.08830  0.38940  0.00970  Biso   1.000  O
  O174     1.0000 0.61060  0.69890  0.00970  Biso   1.000  O
  O175     1.0000 0.96777  0.24503  0.34303  Biso   1.000  O
  O176     1.0000 0.75497  0.72273  0.34303  Biso   1.000  O
  O177     1.0000 0.27727  0.03223  0.34303  Biso   1.000  O
  O178     1.0000 0.63443  0.57837  0.67637  Biso   1.000  O
  O179     1.0000 0.42163  0.05607  0.67637  Biso   1.000  O
  O180     1.0000 0.94393  0.36557  0.67637  Biso   1.000  O
  O181     1.0000 0.66670  0.33330  0.02500  Biso   1.000  O
  O182     1.0000 0.33337  0.66663  0.35833  Biso   1.000  O
  O183     1.0000 0.00003  0.99997  0.69167  Biso   1.000  O
  O184     1.0000 0.33330  0.66670  0.97500  Biso   1.000  O
  O185     1.0000 0.99997  0.00003  0.30833  Biso   1.000  O
  O186     1.0000 0.66663  0.33337  0.64167  Biso   1.000  O
  O187     1.0000 0.91030  0.46110  0.00728  Biso   1.000  O
  O188     1.0000 0.53890  0.44920  0.00728  Biso   1.000  O
  O189     1.0000 0.55080  0.08970  0.00728  Biso   1.000  O
  O190     1.0000 0.57697  0.79443  0.34061  Biso   1.000  O
  O191     1.0000 0.20557  0.78253  0.34061  Biso   1.000  O
  O192     1.0000 0.21747  0.42303  0.34061  Biso   1.000  O
  O193     1.0000 0.24363  0.12777  0.67395  Biso   1.000  O
  O194     1.0000 0.87223  0.11587  0.67395  Biso   1.000  O
  O195     1.0000 0.88413  0.75637  0.67395  Biso   1.000  O
  O196     1.0000 0.08970  0.53890  0.99272  Biso   1.000  O
  O197     1.0000 0.46110  0.55080  0.99272  Biso   1.000  O
  O198     1.0000 0.44920  0.91030  0.99272  Biso   1.000  O
  O199     1.0000 0.75637  0.87223  0.32605  Biso   1.000  O
  O200     1.0000 0.12777  0.88413  0.32605  Biso   1.000  O
  O201     1.0000 0.11587  0.24363  0.32605  Biso   1.000  O
  O202     1.0000 0.42303  0.20557  0.65939  Biso   1.000  O
  O203     1.0000 0.79443  0.21747  0.65939  Biso   1.000  O
  O204     1.0000 0.78253  0.57697  0.65939  Biso   1.000  O
  O205     1.0000 0.66290  0.24610  0.97918  Biso   1.000  O
  O206     1.0000 0.75390  0.41680  0.97918  Biso   1.000  O
  O207     1.0000 0.58320  0.33710  0.97918  Biso   1.000  O
  O208     1.0000 0.32957  0.57943  0.31251  Biso   1.000  O
  O209     1.0000 0.42057  0.75013  0.31251  Biso   1.000  O
  O210     1.0000 0.24987  0.67043  0.31251  Biso   1.000  O
  O211     1.0000 0.99623  0.91277  0.64585  Biso   1.000  O
  O212     1.0000 0.08723  0.08347  0.64585  Biso   1.000  O
  O213     1.0000 0.91653  0.00377  0.64585  Biso   1.000  O
  O214     1.0000 0.33710  0.75390  0.02082  Biso   1.000  O
  O215     1.0000 0.24610  0.58320  0.02082  Biso   1.000  O
  O216     1.0000 0.41680  0.66290  0.02082  Biso   1.000  O
  O217     1.0000 0.00377  0.08723  0.35415  Biso   1.000  O
  O218     1.0000 0.91277  0.91653  0.35415  Biso   1.000  O
  O219     1.0000 0.08347  0.99623  0.35415  Biso   1.000  O
  O220     1.0000 0.67043  0.42057  0.68749  Biso   1.000  O
  O221     1.0000 0.57943  0.24987  0.68749  Biso   1.000  O
  O222     1.0000 0.75013  0.32957  0.68749  Biso   1.000  O
  N1       1.0000 0.96060  0.19930  0.89630  Biso   1.000  N
  N2       1.0000 0.80070  0.76130  0.89630  Biso   1.000  N
  N3       1.0000 0.23870  0.03940  0.89630  Biso   1.000  N
  N4       1.0000 0.62727  0.53263  0.22963  Biso   1.000  N
  N5       1.0000 0.46737  0.09463  0.22963  Biso   1.000  N
  N6       1.0000 0.90537  0.37273  0.22963  Biso   1.000  N
  N7       1.0000 0.29393  0.86597  0.56297  Biso   1.000  N
  N8       1.0000 0.13403  0.42797  0.56297  Biso   1.000  N
  N9       1.0000 0.57203  0.70607  0.56297  Biso   1.000  N
  N10      1.0000 0.03940  0.80070  0.10370  Biso   1.000  N
  N11      1.0000 0.19930  0.23870  0.10370  Biso   1.000  N
  N12      1.0000 0.76130  0.96060  0.10370  Biso   1.000  N
  N13      1.0000 0.70607  0.13403  0.43703  Biso   1.000  N
  N14      1.0000 0.86597  0.57203  0.43703  Biso   1.000  N
  N15      1.0000 0.42797  0.29393  0.43703  Biso   1.000  N
  N16      1.0000 0.37273  0.46737  0.77037  Biso   1.000  N
  N17      1.0000 0.53263  0.90537  0.77037  Biso   1.000  N
  N18      1.0000 0.09463  0.62727  0.77037  Biso   1.000  N
  N19      1.0000 0.92470  0.62430  0.83750  Biso   1.000  N
  N20      1.0000 0.37570  0.30040  0.83750  Biso   1.000  N
  N21      1.0000 0.69960  0.07530  0.83750  Biso   1.000  N
  N22      1.0000 0.59137  0.95763  0.17083  Biso   1.000  N
  N23      1.0000 0.04237  0.63373  0.17083  Biso   1.000  N
  N24      1.0000 0.36627  0.40863  0.17083  Biso   1.000  N
  N25      1.0000 0.25803  0.29097  0.50417  Biso   1.000  N
  N26      1.0000 0.70903  0.96707  0.50417  Biso   1.000  N
  N27      1.0000 0.03293  0.74197  0.50417  Biso   1.000  N
  N28      1.0000 0.07530  0.37570  0.16250  Biso   1.000  N
  N29      1.0000 0.62430  0.69960  0.16250  Biso   1.000  N
  N30      1.0000 0.30040  0.92470  0.16250  Biso   1.000  N
  N31      1.0000 0.74197  0.70903  0.49583  Biso   1.000  N
  N32      1.0000 0.29097  0.03293  0.49583  Biso   1.000  N
  N33      1.0000 0.96707  0.25803  0.49583  Biso   1.000  N
  N34      1.0000 0.40863  0.04237  0.82917  Biso   1.000  N
  N35      1.0000 0.95763  0.36627  0.82917  Biso   1.000  N
  N36      1.0000 0.63373  0.59137  0.82917  Biso   1.000  N
  N37      1.0000 0.81940  0.35420  0.16159  Biso   1.000  N
  N38      1.0000 0.64580  0.46520  0.16159  Biso   1.000  N
  N39      1.0000 0.53480  0.18060  0.16159  Biso   1.000  N
  N40      1.0000 0.48607  0.68753  0.49492  Biso   1.000  N
  N41      1.0000 0.31247  0.79853  0.49492  Biso   1.000  N
  N42      1.0000 0.20147  0.51393  0.49492  Biso   1.000  N
  N43      1.0000 0.15273  0.02087  0.82826  Biso   1.000  N
  N44      1.0000 0.97913  0.13187  0.82826  Biso   1.000  N
  N45      1.0000 0.86813  0.84727  0.82826  Biso   1.000  N
  N46      1.0000 0.18060  0.64580  0.83841  Biso   1.000  N
  N47      1.0000 0.35420  0.53480  0.83841  Biso   1.000  N
  N48      1.0000 0.46520  0.81940  0.83841  Biso   1.000  N
  N49      1.0000 0.84727  0.97913  0.17174  Biso   1.000  N
  N50      1.0000 0.02087  0.86813  0.17174  Biso   1.000  N
  N51      1.0000 0.13187  0.15273  0.17174  Biso   1.000  N
  N52      1.0000 0.51393  0.31247  0.50508  Biso   1.000  N
  N53      1.0000 0.68753  0.20147  0.50508  Biso   1.000  N
  N54      1.0000 0.79853  0.48607  0.50508  Biso   1.000  N
  C1       1.0000 0.89990  0.34250  0.95300  Biso   1.000  C
  C2       1.0000 0.65750  0.55740  0.95300  Biso   1.000  C
  C3       1.0000 0.44260  0.10010  0.95300  Biso   1.000  C
  C4       1.0000 0.56657  0.67583  0.28633  Biso   1.000  C
  C5       1.0000 0.32417  0.89073  0.28633  Biso   1.000  C
  C6       1.0000 0.10927  0.43343  0.28633  Biso   1.000  C
  C7       1.0000 0.23323  0.00917  0.61967  Biso   1.000  C
  C8       1.0000 0.99083  0.22407  0.61967  Biso   1.000  C
  C9       1.0000 0.77593  0.76677  0.61967  Biso   1.000  C
  C10      1.0000 0.10010  0.65750  0.04700  Biso   1.000  C
  C11      1.0000 0.34250  0.44260  0.04700  Biso   1.000  C
  C12      1.0000 0.55740  0.89990  0.04700  Biso   1.000  C
  C13      1.0000 0.76677  0.99083  0.38033  Biso   1.000  C
  C14      1.0000 0.00917  0.77593  0.38033  Biso   1.000  C
  C15      1.0000 0.22407  0.23323  0.38033  Biso   1.000  C
  C16      1.0000 0.43343  0.32417  0.71367  Biso   1.000  C
  C17      1.0000 0.67583  0.10927  0.71367  Biso   1.000  C
  C18      1.0000 0.89073  0.56657  0.71367  Biso   1.000  C
  C19      1.0000 0.91930  0.29150  0.93330  Biso   1.000  C
  C20      1.0000 0.70850  0.62780  0.93330  Biso   1.000  C
  C21      1.0000 0.37220  0.08070  0.93330  Biso   1.000  C
  C22      1.0000 0.58597  0.62483  0.26663  Biso   1.000  C
  C23      1.0000 0.37517  0.96113  0.26663  Biso   1.000  C
  C24      1.0000 0.03887  0.41403  0.26663  Biso   1.000  C
  C25      1.0000 0.25263  0.95817  0.59997  Biso   1.000  C
  C26      1.0000 0.04183  0.29447  0.59997  Biso   1.000  C
  C27      1.0000 0.70553  0.74737  0.59997  Biso   1.000  C
  C28      1.0000 0.08070  0.70850  0.06670  Biso   1.000  C
  C29      1.0000 0.29150  0.37220  0.06670  Biso   1.000  C
  C30      1.0000 0.62780  0.91930  0.06670  Biso   1.000  C
  C31      1.0000 0.74737  0.04183  0.40003  Biso   1.000  C
  C32      1.0000 0.95817  0.70553  0.40003  Biso   1.000  C
  C33      1.0000 0.29447  0.25263  0.40003  Biso   1.000  C
  C34      1.0000 0.41403  0.37517  0.73337  Biso   1.000  C
  C35      1.0000 0.62483  0.03887  0.73337  Biso   1.000  C
  C36      1.0000 0.96113  0.58597  0.73337  Biso   1.000  C
  C37      1.0000 0.99810  0.32750  0.92080  Biso   1.000  C
  C38      1.0000 0.67250  0.67060  0.92080  Biso   1.000  C
  C39      1.0000 0.32940  0.00190  0.92080  Biso   1.000  C
  C40      1.0000 0.66477  0.66083  0.25413  Biso   1.000  C
  C41      1.0000 0.33917  0.00393  0.25413  Biso   1.000  C
  C42      1.0000 0.99607  0.33523  0.25413  Biso   1.000  C
  C43      1.0000 0.33143  0.99417  0.58747  Biso   1.000  C
  C44      1.0000 0.00583  0.33727  0.58747  Biso   1.000  C
  C45      1.0000 0.66273  0.66857  0.58747  Biso   1.000  C
  C46      1.0000 0.00190  0.67250  0.07920  Biso   1.000  C
  C47      1.0000 0.32750  0.32940  0.07920  Biso   1.000  C
  C48      1.0000 0.67060  0.99810  0.07920  Biso   1.000  C
  C49      1.0000 0.66857  0.00583  0.41253  Biso   1.000  C
  C50      1.0000 0.99417  0.66273  0.41253  Biso   1.000  C
  C51      1.0000 0.33727  0.33143  0.41253  Biso   1.000  C
  C52      1.0000 0.33523  0.33917  0.74587  Biso   1.000  C
  C53      1.0000 0.66083  0.99607  0.74587  Biso   1.000  C
  C54      1.0000 0.00393  0.66477  0.74587  Biso   1.000  C
  H1       1.0000 0.03880  0.38330  0.92440  Biso   1.000  H
  H2       1.0000 0.61670  0.65550  0.92440  Biso   1.000  H
  H3       1.0000 0.34450  0.96120  0.92440  Biso   1.000  H
  H4       1.0000 0.70547  0.71663  0.25773  Biso   1.000  H
  H5       1.0000 0.28337  0.98883  0.25773  Biso   1.000  H
  H6       1.0000 0.01117  0.29453  0.25773  Biso   1.000  H
  H7       1.0000 0.37213  0.04997  0.59107  Biso   1.000  H
  H8       1.0000 0.95003  0.32217  0.59107  Biso   1.000  H
  H9       1.0000 0.67783  0.62787  0.59107  Biso   1.000  H
  H10      1.0000 0.96120  0.61670  0.07560  Biso   1.000  H
  H11      1.0000 0.38330  0.34450  0.07560  Biso   1.000  H
  H12      1.0000 0.65550  0.03880  0.07560  Biso   1.000  H
  H13      1.0000 0.62787  0.95003  0.40893  Biso   1.000  H
  H14      1.0000 0.04997  0.67783  0.40893  Biso   1.000  H
  H15      1.0000 0.32217  0.37213  0.40893  Biso   1.000  H
  H16      1.0000 0.29453  0.28337  0.74227  Biso   1.000  H
  H17      1.0000 0.71663  0.01117  0.74227  Biso   1.000  H
  H18      1.0000 0.98883  0.70547  0.74227  Biso   1.000  H
  C55      1.0000 0.01460  0.27810  0.90280  Biso   1.000  C
  C56      1.0000 0.72190  0.73650  0.90280  Biso   1.000  C
  C57      1.0000 0.26350  0.98540  0.90280  Biso   1.000  C
  C58      1.0000 0.68127  0.61143  0.23613  Biso   1.000  C
  C59      1.0000 0.38857  0.06983  0.23613  Biso   1.000  C
  C60      1.0000 0.93017  0.31873  0.23613  Biso   1.000  C
  C61      1.0000 0.34793  0.94477  0.56947  Biso   1.000  C
  C62      1.0000 0.05523  0.40317  0.56947  Biso   1.000  C
  C63      1.0000 0.59683  0.65207  0.56947  Biso   1.000  C
  C64      1.0000 0.98540  0.72190  0.09720  Biso   1.000  C
  C65      1.0000 0.27810  0.26350  0.09720  Biso   1.000  C
  C66      1.0000 0.73650  0.01460  0.09720  Biso   1.000  C
  C67      1.0000 0.65207  0.05523  0.43053  Biso   1.000  C
  C68      1.0000 0.94477  0.59683  0.43053  Biso   1.000  C
  C69      1.0000 0.40317  0.34793  0.43053  Biso   1.000  C
  C70      1.0000 0.31873  0.38857  0.76387  Biso   1.000  C
  C71      1.0000 0.61143  0.93017  0.76387  Biso   1.000  C
  C72      1.0000 0.06983  0.68127  0.76387  Biso   1.000  C
  H19      1.0000 0.06780  0.30270  0.89460  Biso   1.000  H
  H20      1.0000 0.69730  0.76510  0.89460  Biso   1.000  H
  H21      1.0000 0.23490  0.93220  0.89460  Biso   1.000  H
  H22      1.0000 0.73447  0.63603  0.22793  Biso   1.000  H
  H23      1.0000 0.36397  0.09843  0.22793  Biso   1.000  H
  H24      1.0000 0.90157  0.26553  0.22793  Biso   1.000  H
  H25      1.0000 0.40113  0.96937  0.56127  Biso   1.000  H
  H26      1.0000 0.03063  0.43177  0.56127  Biso   1.000  H
  H27      1.0000 0.56823  0.59887  0.56127  Biso   1.000  H
  H28      1.0000 0.93220  0.69730  0.10540  Biso   1.000  H
  H29      1.0000 0.30270  0.23490  0.10540  Biso   1.000  H
  H30      1.0000 0.76510  0.06780  0.10540  Biso   1.000  H
  H31      1.0000 0.59887  0.03063  0.43873  Biso   1.000  H
  H32      1.0000 0.96937  0.56823  0.43873  Biso   1.000  H
  H33      1.0000 0.43177  0.40113  0.43873  Biso   1.000  H
  H34      1.0000 0.26553  0.36397  0.77207  Biso   1.000  H
  H35      1.0000 0.63603  0.90157  0.77207  Biso   1.000  H
  H36      1.0000 0.09843  0.73447  0.77207  Biso   1.000  H
  C73      1.0000 0.88540  0.16530  0.90890  Biso   1.000  C
  C74      1.0000 0.83470  0.72010  0.90890  Biso   1.000  C
  C75      1.0000 0.27990  0.11460  0.90890  Biso   1.000  C
  C76      1.0000 0.55207  0.49863  0.24223  Biso   1.000  C
  C77      1.0000 0.50137  0.05343  0.24223  Biso   1.000  C
  C78      1.0000 0.94657  0.44793  0.24223  Biso   1.000  C
  C79      1.0000 0.21873  0.83197  0.57557  Biso   1.000  C
  C80      1.0000 0.16803  0.38677  0.57557  Biso   1.000  C
  C81      1.0000 0.61323  0.78127  0.57557  Biso   1.000  C
  C82      1.0000 0.11460  0.83470  0.09110  Biso   1.000  C
  C83      1.0000 0.16530  0.27990  0.09110  Biso   1.000  C
  C84      1.0000 0.72010  0.88540  0.09110  Biso   1.000  C
  C85      1.0000 0.78127  0.16803  0.42443  Biso   1.000  C
  C86      1.0000 0.83197  0.61323  0.42443  Biso   1.000  C
  C87      1.0000 0.38677  0.21873  0.42443  Biso   1.000  C
  C88      1.0000 0.44793  0.50137  0.75777  Biso   1.000  C
  C89      1.0000 0.49863  0.94657  0.75777  Biso   1.000  C
  C90      1.0000 0.05343  0.55207  0.75777  Biso   1.000  C
  H37      1.0000 0.84630  0.10930  0.90480  Biso   1.000  H
  H38      1.0000 0.89070  0.73700  0.90480  Biso   1.000  H
  H39      1.0000 0.26300  0.15370  0.90480  Biso   1.000  H
  H40      1.0000 0.51297  0.44263  0.23813  Biso   1.000  H
  H41      1.0000 0.55737  0.07033  0.23813  Biso   1.000  H
  H42      1.0000 0.92967  0.48703  0.23813  Biso   1.000  H
  H43      1.0000 0.17963  0.77597  0.57147  Biso   1.000  H
  H44      1.0000 0.22403  0.40367  0.57147  Biso   1.000  H
  H45      1.0000 0.59633  0.82037  0.57147  Biso   1.000  H
  H46      1.0000 0.15370  0.89070  0.09520  Biso   1.000  H
  H47      1.0000 0.10930  0.26300  0.09520  Biso   1.000  H
  H48      1.0000 0.73700  0.84630  0.09520  Biso   1.000  H
  H49      1.0000 0.82037  0.22403  0.42853  Biso   1.000  H
  H50      1.0000 0.77597  0.59633  0.42853  Biso   1.000  H
  H51      1.0000 0.40367  0.17963  0.42853  Biso   1.000  H
  H52      1.0000 0.48703  0.55737  0.76187  Biso   1.000  H
  H53      1.0000 0.44263  0.92967  0.76187  Biso   1.000  H
  H54      1.0000 0.07033  0.51297  0.76187  Biso   1.000  H
  C91      1.0000 0.86140  0.20770  0.92750  Biso   1.000  C
  C92      1.0000 0.79230  0.65370  0.92750  Biso   1.000  C
  C93      1.0000 0.34630  0.13860  0.92750  Biso   1.000  C
  C94      1.0000 0.52807  0.54103  0.26083  Biso   1.000  C
  C95      1.0000 0.45897  0.98703  0.26083  Biso   1.000  C
  C96      1.0000 0.01297  0.47193  0.26083  Biso   1.000  C
  C97      1.0000 0.19473  0.87437  0.59417  Biso   1.000  C
  C98      1.0000 0.12563  0.32037  0.59417  Biso   1.000  C
  C99      1.0000 0.67963  0.80527  0.59417  Biso   1.000  C
  C100     1.0000 0.13860  0.79230  0.07250  Biso   1.000  C
  C101     1.0000 0.20770  0.34630  0.07250  Biso   1.000  C
  C102     1.0000 0.65370  0.86140  0.07250  Biso   1.000  C
  C103     1.0000 0.80527  0.12563  0.40583  Biso   1.000  C
  C104     1.0000 0.87437  0.67963  0.40583  Biso   1.000  C
  C105     1.0000 0.32037  0.19473  0.40583  Biso   1.000  C
  C106     1.0000 0.47193  0.45897  0.73917  Biso   1.000  C
  C107     1.0000 0.54103  0.01297  0.73917  Biso   1.000  C
  C108     1.0000 0.98703  0.52807  0.73917  Biso   1.000  C
  H55      1.0000 0.80830  0.18080  0.93580  Biso   1.000  H
  H56      1.0000 0.81920  0.62750  0.93580  Biso   1.000  H
  H57      1.0000 0.37250  0.19170  0.93580  Biso   1.000  H
  H58      1.0000 0.47497  0.51413  0.26913  Biso   1.000  H
  H59      1.0000 0.48587  0.96083  0.26913  Biso   1.000  H
  H60      1.0000 0.03917  0.52503  0.26913  Biso   1.000  H
  H61      1.0000 0.14163  0.84747  0.60247  Biso   1.000  H
  H62      1.0000 0.15253  0.29417  0.60247  Biso   1.000  H
  H63      1.0000 0.70583  0.85837  0.60247  Biso   1.000  H
  H64      1.0000 0.19170  0.81920  0.06420  Biso   1.000  H
  H65      1.0000 0.18080  0.37250  0.06420  Biso   1.000  H
  H66      1.0000 0.62750  0.80830  0.06420  Biso   1.000  H
  H67      1.0000 0.85837  0.15253  0.39753  Biso   1.000  H
  H68      1.0000 0.84747  0.70583  0.39753  Biso   1.000  H
  H69      1.0000 0.29417  0.14163  0.39753  Biso   1.000  H
  H70      1.0000 0.52503  0.48587  0.73087  Biso   1.000  H
  H71      1.0000 0.51413  0.03917  0.73087  Biso   1.000  H
  H72      1.0000 0.96083  0.47497  0.73087  Biso   1.000  H
  C109     1.0000 0.83880  0.48730  0.91550  Biso   1.000  C
  C110     1.0000 0.51270  0.35150  0.91550  Biso   1.000  C
  C111     1.0000 0.64850  0.16120  0.91550  Biso   1.000  C
  C112     1.0000 0.50547  0.82063  0.24883  Biso   1.000  C
  C113     1.0000 0.17937  0.68483  0.24883  Biso   1.000  C
  C114     1.0000 0.31517  0.49453  0.24883  Biso   1.000  C
  C115     1.0000 0.17213  0.15397  0.58217  Biso   1.000  C
  C116     1.0000 0.84603  0.01817  0.58217  Biso   1.000  C
  C117     1.0000 0.98183  0.82787  0.58217  Biso   1.000  C
  C118     1.0000 0.16120  0.51270  0.08450  Biso   1.000  C
  C119     1.0000 0.48730  0.64850  0.08450  Biso   1.000  C
  C120     1.0000 0.35150  0.83880  0.08450  Biso   1.000  C
  C121     1.0000 0.82787  0.84603  0.41783  Biso   1.000  C
  C122     1.0000 0.15397  0.98183  0.41783  Biso   1.000  C
  C123     1.0000 0.01817  0.17213  0.41783  Biso   1.000  C
  C124     1.0000 0.49453  0.17937  0.75117  Biso   1.000  C
  C125     1.0000 0.82063  0.31517  0.75117  Biso   1.000  C
  C126     1.0000 0.68483  0.50547  0.75117  Biso   1.000  C
  C127     1.0000 0.86970  0.53340  0.88830  Biso   1.000  C
  C128     1.0000 0.46660  0.33630  0.88830  Biso   1.000  C
  C129     1.0000 0.66370  0.13030  0.88830  Biso   1.000  C
  C130     1.0000 0.53637  0.86673  0.22163  Biso   1.000  C
  C131     1.0000 0.13327  0.66963  0.22163  Biso   1.000  C
  C132     1.0000 0.33037  0.46363  0.22163  Biso   1.000  C
  C133     1.0000 0.20303  0.20007  0.55497  Biso   1.000  C
  C134     1.0000 0.79993  0.00297  0.55497  Biso   1.000  C
  C135     1.0000 0.99703  0.79697  0.55497  Biso   1.000  C
  C136     1.0000 0.13030  0.46660  0.11170  Biso   1.000  C
  C137     1.0000 0.53340  0.66370  0.11170  Biso   1.000  C
  C138     1.0000 0.33630  0.86970  0.11170  Biso   1.000  C
  C139     1.0000 0.79697  0.79993  0.44503  Biso   1.000  C
  C140     1.0000 0.20007  0.99703  0.44503  Biso   1.000  C
  C141     1.0000 0.00297  0.20303  0.44503  Biso   1.000  C
  C142     1.0000 0.46363  0.13327  0.77837  Biso   1.000  C
  C143     1.0000 0.86673  0.33037  0.77837  Biso   1.000  C
  C144     1.0000 0.66963  0.53637  0.77837  Biso   1.000  C
  C145     1.0000 0.94450  0.60880  0.88620  Biso   1.000  C
  C146     1.0000 0.39120  0.33570  0.88620  Biso   1.000  C
  C147     1.0000 0.66430  0.05550  0.88620  Biso   1.000  C
  C148     1.0000 0.61117  0.94213  0.21953  Biso   1.000  C
  C149     1.0000 0.05787  0.66903  0.21953  Biso   1.000  C
  C150     1.0000 0.33097  0.38883  0.21953  Biso   1.000  C
  C151     1.0000 0.27783  0.27547  0.55287  Biso   1.000  C
  C152     1.0000 0.72453  0.00237  0.55287  Biso   1.000  C
  C153     1.0000 0.99763  0.72217  0.55287  Biso   1.000  C
  C154     1.0000 0.05550  0.39120  0.11380  Biso   1.000  C
  C155     1.0000 0.60880  0.66430  0.11380  Biso   1.000  C
  C156     1.0000 0.33570  0.94450  0.11380  Biso   1.000  C
  C157     1.0000 0.72217  0.72453  0.44713  Biso   1.000  C
  C158     1.0000 0.27547  0.99763  0.44713  Biso   1.000  C
  C159     1.0000 0.00237  0.27783  0.44713  Biso   1.000  C
  C160     1.0000 0.38883  0.05787  0.78047  Biso   1.000  C
  C161     1.0000 0.94213  0.33097  0.78047  Biso   1.000  C
  C162     1.0000 0.66903  0.61117  0.78047  Biso   1.000  C
  H73      1.0000 0.97760  0.63290  0.90200  Biso   1.000  H
  H74      1.0000 0.36710  0.34470  0.90200  Biso   1.000  H
  H75      1.0000 0.65530  0.02240  0.90200  Biso   1.000  H
  H76      1.0000 0.64427  0.96623  0.23533  Biso   1.000  H
  H77      1.0000 0.03377  0.67803  0.23533  Biso   1.000  H
  H78      1.0000 0.32197  0.35573  0.23533  Biso   1.000  H
  H79      1.0000 0.31093  0.29957  0.56867  Biso   1.000  H
  H80      1.0000 0.70043  0.01137  0.56867  Biso   1.000  H
  H81      1.0000 0.98863  0.68907  0.56867  Biso   1.000  H
  H82      1.0000 0.02240  0.36710  0.09800  Biso   1.000  H
  H83      1.0000 0.63290  0.65530  0.09800  Biso   1.000  H
  H84      1.0000 0.34470  0.97760  0.09800  Biso   1.000  H
  H85      1.0000 0.68907  0.70043  0.43133  Biso   1.000  H
  H86      1.0000 0.29957  0.98863  0.43133  Biso   1.000  H
  H87      1.0000 0.01137  0.31093  0.43133  Biso   1.000  H
  H88      1.0000 0.35573  0.03377  0.76467  Biso   1.000  H
  H89      1.0000 0.96623  0.32197  0.76467  Biso   1.000  H
  H90      1.0000 0.67803  0.64427  0.76467  Biso   1.000  H
  C163     1.0000 0.97030  0.64800  0.86110  Biso   1.000  C
  C164     1.0000 0.35200  0.32230  0.86110  Biso   1.000  C
  C165     1.0000 0.67770  0.02970  0.86110  Biso   1.000  C
  C166     1.0000 0.63697  0.98133  0.19443  Biso   1.000  C
  C167     1.0000 0.01867  0.65563  0.19443  Biso   1.000  C
  C168     1.0000 0.34437  0.36303  0.19443  Biso   1.000  C
  C169     1.0000 0.30363  0.31467  0.52777  Biso   1.000  C
  C170     1.0000 0.68533  0.98897  0.52777  Biso   1.000  C
  C171     1.0000 0.01103  0.69637  0.52777  Biso   1.000  C
  C172     1.0000 0.02970  0.35200  0.13890  Biso   1.000  C
  C173     1.0000 0.64800  0.67770  0.13890  Biso   1.000  C
  C174     1.0000 0.32230  0.97030  0.13890  Biso   1.000  C
  C175     1.0000 0.69637  0.68533  0.47223  Biso   1.000  C
  C176     1.0000 0.31467  0.01103  0.47223  Biso   1.000  C
  C177     1.0000 0.98897  0.30363  0.47223  Biso   1.000  C
  C178     1.0000 0.36303  0.01867  0.80557  Biso   1.000  C
  C179     1.0000 0.98133  0.34437  0.80557  Biso   1.000  C
  C180     1.0000 0.65563  0.63697  0.80557  Biso   1.000  C
  H91      1.0000 0.02410  0.69530  0.86020  Biso   1.000  H
  H92      1.0000 0.30470  0.32880  0.86020  Biso   1.000  H
  H93      1.0000 0.67120  0.97590  0.86020  Biso   1.000  H
  H94      1.0000 0.69077  0.02863  0.19353  Biso   1.000  H
  H95      1.0000 0.97137  0.66213  0.19353  Biso   1.000  H
  H96      1.0000 0.33787  0.30923  0.19353  Biso   1.000  H
  H97      1.0000 0.35743  0.36197  0.52687  Biso   1.000  H
  H98      1.0000 0.63803  0.99547  0.52687  Biso   1.000  H
  H99      1.0000 0.00453  0.64257  0.52687  Biso   1.000  H
  H100     1.0000 0.97590  0.30470  0.13980  Biso   1.000  H
  H101     1.0000 0.69530  0.67120  0.13980  Biso   1.000  H
  H102     1.0000 0.32880  0.02410  0.13980  Biso   1.000  H
  H103     1.0000 0.64257  0.63803  0.47313  Biso   1.000  H
  H104     1.0000 0.36197  0.00453  0.47313  Biso   1.000  H
  H105     1.0000 0.99547  0.35743  0.47313  Biso   1.000  H
  H106     1.0000 0.30923  0.97137  0.80647  Biso   1.000  H
  H107     1.0000 0.02863  0.33787  0.80647  Biso   1.000  H
  H108     1.0000 0.66213  0.69077  0.80647  Biso   1.000  H
  C181     1.0000 0.83700  0.56100  0.84070  Biso   1.000  C
  C182     1.0000 0.43900  0.27600  0.84070  Biso   1.000  C
  C183     1.0000 0.72400  0.16300  0.84070  Biso   1.000  C
  C184     1.0000 0.50367  0.89433  0.17403  Biso   1.000  C
  C185     1.0000 0.10567  0.60933  0.17403  Biso   1.000  C
  C186     1.0000 0.39067  0.49633  0.17403  Biso   1.000  C
  C187     1.0000 0.17033  0.22767  0.50737  Biso   1.000  C
  C188     1.0000 0.77233  0.94267  0.50737  Biso   1.000  C
  C189     1.0000 0.05733  0.82967  0.50737  Biso   1.000  C
  C190     1.0000 0.16300  0.43900  0.15930  Biso   1.000  C
  C191     1.0000 0.56100  0.72400  0.15930  Biso   1.000  C
  C192     1.0000 0.27600  0.83700  0.15930  Biso   1.000  C
  C193     1.0000 0.82967  0.77233  0.49263  Biso   1.000  C
  C194     1.0000 0.22767  0.05733  0.49263  Biso   1.000  C
  C195     1.0000 0.94267  0.17033  0.49263  Biso   1.000  C
  C196     1.0000 0.49633  0.10567  0.82597  Biso   1.000  C
  C197     1.0000 0.89433  0.39067  0.82597  Biso   1.000  C
  C198     1.0000 0.60933  0.50367  0.82597  Biso   1.000  C
  C199     1.0000 0.11400  0.47700  0.16270  Biso   1.000  C
  C200     1.0000 0.52300  0.63700  0.16270  Biso   1.000  C
  C201     1.0000 0.36300  0.88600  0.16270  Biso   1.000  C
  C202     1.0000 0.78067  0.81033  0.49603  Biso   1.000  C
  C203     1.0000 0.18967  0.97033  0.49603  Biso   1.000  C
  C204     1.0000 0.02967  0.21933  0.49603  Biso   1.000  C
  C205     1.0000 0.44733  0.14367  0.82937  Biso   1.000  C
  C206     1.0000 0.85633  0.30367  0.82937  Biso   1.000  C
  C207     1.0000 0.69633  0.55267  0.82937  Biso   1.000  C
  C208     1.0000 0.88600  0.52300  0.83730  Biso   1.000  C
  C209     1.0000 0.47700  0.36300  0.83730  Biso   1.000  C
  C210     1.0000 0.63700  0.11400  0.83730  Biso   1.000  C
  C211     1.0000 0.55267  0.85633  0.17063  Biso   1.000  C
  C212     1.0000 0.14367  0.69633  0.17063  Biso   1.000  C
  C213     1.0000 0.30367  0.44733  0.17063  Biso   1.000  C
  C214     1.0000 0.21933  0.18967  0.50397  Biso   1.000  C
  C215     1.0000 0.81033  0.02967  0.50397  Biso   1.000  C
  C216     1.0000 0.97033  0.78067  0.50397  Biso   1.000  C
  C217     1.0000 0.81380  0.51340  0.86550  Biso   1.000  C
  C218     1.0000 0.48660  0.30040  0.86550  Biso   1.000  C
  C219     1.0000 0.69960  0.18620  0.86550  Biso   1.000  C
  C220     1.0000 0.48047  0.84673  0.19883  Biso   1.000  C
  C221     1.0000 0.15327  0.63373  0.19883  Biso   1.000  C
  C222     1.0000 0.36627  0.51953  0.19883  Biso   1.000  C
  C223     1.0000 0.14713  0.18007  0.53217  Biso   1.000  C
  C224     1.0000 0.81993  0.96707  0.53217  Biso   1.000  C
  C225     1.0000 0.03293  0.85287  0.53217  Biso   1.000  C
  C226     1.0000 0.18620  0.48660  0.13450  Biso   1.000  C
  C227     1.0000 0.51340  0.69960  0.13450  Biso   1.000  C
  C228     1.0000 0.30040  0.81380  0.13450  Biso   1.000  C
  C229     1.0000 0.85287  0.81993  0.46783  Biso   1.000  C
  C230     1.0000 0.18007  0.03293  0.46783  Biso   1.000  C
  C231     1.0000 0.96707  0.14713  0.46783  Biso   1.000  C
  C232     1.0000 0.51953  0.15327  0.80117  Biso   1.000  C
  C233     1.0000 0.84673  0.36627  0.80117  Biso   1.000  C
  C234     1.0000 0.63373  0.48047  0.80117  Biso   1.000  C
  C235     1.0000 0.15400  0.51600  0.13670  Biso   1.000  C
  C236     1.0000 0.48400  0.63800  0.13670  Biso   1.000  C
  C237     1.0000 0.36200  0.84600  0.13670  Biso   1.000  C
  C238     1.0000 0.82067  0.84933  0.47003  Biso   1.000  C
  C239     1.0000 0.15067  0.97133  0.47003  Biso   1.000  C
  C240     1.0000 0.02867  0.17933  0.47003  Biso   1.000  C
  C241     1.0000 0.48733  0.18267  0.80337  Biso   1.000  C
  C242     1.0000 0.81733  0.30467  0.80337  Biso   1.000  C
  C243     1.0000 0.69533  0.51267  0.80337  Biso   1.000  C
  C244     1.0000 0.84600  0.48400  0.86330  Biso   1.000  C
  C245     1.0000 0.51600  0.36200  0.86330  Biso   1.000  C
  C246     1.0000 0.63800  0.15400  0.86330  Biso   1.000  C
  C247     1.0000 0.51267  0.81733  0.19663  Biso   1.000  C
  C248     1.0000 0.18267  0.69533  0.19663  Biso   1.000  C
  C249     1.0000 0.30467  0.48733  0.19663  Biso   1.000  C
  C250     1.0000 0.17933  0.15067  0.52997  Biso   1.000  C
  C251     1.0000 0.84933  0.02867  0.52997  Biso   1.000  C
  C252     1.0000 0.97133  0.82067  0.52997  Biso   1.000  C
  C253     1.0000 0.85470  0.38760  0.07309  Biso   1.000  C
  C254     1.0000 0.61240  0.46710  0.07309  Biso   1.000  C
  C255     1.0000 0.53290  0.14530  0.07309  Biso   1.000  C
  C256     1.0000 0.52137  0.72093  0.40642  Biso   1.000  C
  C257     1.0000 0.27907  0.80043  0.40642  Biso   1.000  C
  C258     1.0000 0.19957  0.47863  0.40642  Biso   1.000  C
  C259     1.0000 0.18803  0.05427  0.73976  Biso   1.000  C
  C260     1.0000 0.94573  0.13377  0.73976  Biso   1.000  C
  C261     1.0000 0.86623  0.81197  0.73976  Biso   1.000  C
  C262     1.0000 0.14530  0.61240  0.92691  Biso   1.000  C
  C263     1.0000 0.38760  0.53290  0.92691  Biso   1.000  C
  C264     1.0000 0.46710  0.85470  0.92691  Biso   1.000  C
  C265     1.0000 0.81197  0.94573  0.26024  Biso   1.000  C
  C266     1.0000 0.05427  0.86623  0.26024  Biso   1.000  C
  C267     1.0000 0.13377  0.18803  0.26024  Biso   1.000  C
  C268     1.0000 0.47863  0.27907  0.59358  Biso   1.000  C
  C269     1.0000 0.72093  0.19957  0.59358  Biso   1.000  C
  C270     1.0000 0.80043  0.52137  0.59358  Biso   1.000  C
  C271     1.0000 0.83940  0.37680  0.10390  Biso   1.000  C
  C272     1.0000 0.62320  0.46260  0.10390  Biso   1.000  C
  C273     1.0000 0.53740  0.16060  0.10390  Biso   1.000  C
  C274     1.0000 0.50607  0.71013  0.43723  Biso   1.000  C
  C275     1.0000 0.28987  0.79593  0.43723  Biso   1.000  C
  C276     1.0000 0.20407  0.49393  0.43723  Biso   1.000  C
  C277     1.0000 0.17273  0.04347  0.77057  Biso   1.000  C
  C278     1.0000 0.95653  0.12927  0.77057  Biso   1.000  C
  C279     1.0000 0.87073  0.82727  0.77057  Biso   1.000  C
  C280     1.0000 0.16060  0.62320  0.89610  Biso   1.000  C
  C281     1.0000 0.37680  0.53740  0.89610  Biso   1.000  C
  C282     1.0000 0.46260  0.83940  0.89610  Biso   1.000  C
  C283     1.0000 0.82727  0.95653  0.22943  Biso   1.000  C
  C284     1.0000 0.04347  0.87073  0.22943  Biso   1.000  C
  C285     1.0000 0.12927  0.17273  0.22943  Biso   1.000  C
  C286     1.0000 0.49393  0.28987  0.56277  Biso   1.000  C
  C287     1.0000 0.71013  0.20407  0.56277  Biso   1.000  C
  C288     1.0000 0.79593  0.50607  0.56277  Biso   1.000  C
  C289     1.0000 0.77370  0.30340  0.11520  Biso   1.000  C
  C290     1.0000 0.69660  0.47030  0.11520  Biso   1.000  C
  C291     1.0000 0.52970  0.22630  0.11520  Biso   1.000  C
  C292     1.0000 0.44037  0.63673  0.44853  Biso   1.000  C
  C293     1.0000 0.36327  0.80363  0.44853  Biso   1.000  C
  C294     1.0000 0.19637  0.55963  0.44853  Biso   1.000  C
  C295     1.0000 0.10703  0.97007  0.78187  Biso   1.000  C
  C296     1.0000 0.02993  0.13697  0.78187  Biso   1.000  C
  C297     1.0000 0.86303  0.89297  0.78187  Biso   1.000  C
  C298     1.0000 0.22630  0.69660  0.88480  Biso   1.000  C
  C299     1.0000 0.30340  0.52970  0.88480  Biso   1.000  C
  C300     1.0000 0.47030  0.77370  0.88480  Biso   1.000  C
  C301     1.0000 0.89297  0.02993  0.21813  Biso   1.000  C
  C302     1.0000 0.97007  0.86303  0.21813  Biso   1.000  C
  C303     1.0000 0.13697  0.10703  0.21813  Biso   1.000  C
  C304     1.0000 0.55963  0.36327  0.55147  Biso   1.000  C
  C305     1.0000 0.63673  0.19637  0.55147  Biso   1.000  C
  C306     1.0000 0.80363  0.44037  0.55147  Biso   1.000  C
  H109     1.0000 0.73520  0.26060  0.10350  Biso   1.000  H
  H110     1.0000 0.73940  0.47460  0.10350  Biso   1.000  H
  H111     1.0000 0.52540  0.26480  0.10350  Biso   1.000  H
  H112     1.0000 0.40187  0.59393  0.43683  Biso   1.000  H
  H113     1.0000 0.40607  0.80793  0.43683  Biso   1.000  H
  H114     1.0000 0.19207  0.59813  0.43683  Biso   1.000  H
  H115     1.0000 0.06853  0.92727  0.77017  Biso   1.000  H
  H116     1.0000 0.07273  0.14127  0.77017  Biso   1.000  H
  H117     1.0000 0.85873  0.93147  0.77017  Biso   1.000  H
  H118     1.0000 0.26480  0.73940  0.89650  Biso   1.000  H
  H119     1.0000 0.26060  0.52540  0.89650  Biso   1.000  H
  H120     1.0000 0.47460  0.73520  0.89650  Biso   1.000  H
  H121     1.0000 0.93147  0.07273  0.22983  Biso   1.000  H
  H122     1.0000 0.92727  0.85873  0.22983  Biso   1.000  H
  H123     1.0000 0.14127  0.06853  0.22983  Biso   1.000  H
  H124     1.0000 0.59813  0.40607  0.56317  Biso   1.000  H
  H125     1.0000 0.59393  0.19207  0.56317  Biso   1.000  H
  H126     1.0000 0.80793  0.40187  0.56317  Biso   1.000  H
  C307     1.0000 0.76610  0.29440  0.14390  Biso   1.000  C
  C308     1.0000 0.70560  0.47170  0.14390  Biso   1.000  C
  C309     1.0000 0.52830  0.23390  0.14390  Biso   1.000  C
  C310     1.0000 0.43277  0.62773  0.47723  Biso   1.000  C
  C311     1.0000 0.37227  0.80503  0.47723  Biso   1.000  C
  C312     1.0000 0.19497  0.56723  0.47723  Biso   1.000  C
  C313     1.0000 0.09943  0.96107  0.81057  Biso   1.000  C
  C314     1.0000 0.03893  0.13837  0.81057  Biso   1.000  C
  C315     1.0000 0.86163  0.90057  0.81057  Biso   1.000  C
  C316     1.0000 0.23390  0.70560  0.85610  Biso   1.000  C
  C317     1.0000 0.29440  0.52830  0.85610  Biso   1.000  C
  C318     1.0000 0.47170  0.76610  0.85610  Biso   1.000  C
  C319     1.0000 0.90057  0.03893  0.18943  Biso   1.000  C
  C320     1.0000 0.96107  0.86163  0.18943  Biso   1.000  C
  C321     1.0000 0.13837  0.09943  0.18943  Biso   1.000  C
  C322     1.0000 0.56723  0.37227  0.52277  Biso   1.000  C
  C323     1.0000 0.62773  0.19497  0.52277  Biso   1.000  C
  C324     1.0000 0.80503  0.43277  0.52277  Biso   1.000  C
  H127     1.0000 0.72200  0.24480  0.15120  Biso   1.000  H
  H128     1.0000 0.75520  0.47720  0.15120  Biso   1.000  H
  H129     1.0000 0.52280  0.27800  0.15120  Biso   1.000  H
  H130     1.0000 0.38867  0.57813  0.48453  Biso   1.000  H
  H131     1.0000 0.42187  0.81053  0.48453  Biso   1.000  H
  H132     1.0000 0.18947  0.61133  0.48453  Biso   1.000  H
  H133     1.0000 0.05533  0.91147  0.81787  Biso   1.000  H
  H134     1.0000 0.08853  0.14387  0.81787  Biso   1.000  H
  H135     1.0000 0.85613  0.94467  0.81787  Biso   1.000  H
  H136     1.0000 0.27800  0.75520  0.84880  Biso   1.000  H
  H137     1.0000 0.24480  0.52280  0.84880  Biso   1.000  H
  H138     1.0000 0.47720  0.72200  0.84880  Biso   1.000  H
  H139     1.0000 0.94467  0.08853  0.18213  Biso   1.000  H
  H140     1.0000 0.91147  0.85613  0.18213  Biso   1.000  H
  H141     1.0000 0.14387  0.05533  0.18213  Biso   1.000  H
  H142     1.0000 0.61133  0.42187  0.51547  Biso   1.000  H
  H143     1.0000 0.57813  0.18947  0.51547  Biso   1.000  H
  H144     1.0000 0.81053  0.38867  0.51547  Biso   1.000  H
  C325     1.0000 0.88110  0.42690  0.15040  Biso   1.000  C
  C326     1.0000 0.57310  0.45420  0.15040  Biso   1.000  C
  C327     1.0000 0.54580  0.11890  0.15040  Biso   1.000  C
  C328     1.0000 0.54777  0.76023  0.48373  Biso   1.000  C
  C329     1.0000 0.23977  0.78753  0.48373  Biso   1.000  C
  C330     1.0000 0.21247  0.45223  0.48373  Biso   1.000  C
  C331     1.0000 0.21443  0.09357  0.81707  Biso   1.000  C
  C332     1.0000 0.90643  0.12087  0.81707  Biso   1.000  C
  C333     1.0000 0.87913  0.78557  0.81707  Biso   1.000  C
  C334     1.0000 0.11890  0.57310  0.84960  Biso   1.000  C
  C335     1.0000 0.42690  0.54580  0.84960  Biso   1.000  C
  C336     1.0000 0.45420  0.88110  0.84960  Biso   1.000  C
  C337     1.0000 0.78557  0.90643  0.18293  Biso   1.000  C
  C338     1.0000 0.09357  0.87913  0.18293  Biso   1.000  C
  C339     1.0000 0.12087  0.21443  0.18293  Biso   1.000  C
  C340     1.0000 0.45223  0.23977  0.51627  Biso   1.000  C
  C341     1.0000 0.76023  0.21247  0.51627  Biso   1.000  C
  C342     1.0000 0.78753  0.54777  0.51627  Biso   1.000  C
  H145     1.0000 0.91750  0.46990  0.16230  Biso   1.000  H
  H146     1.0000 0.53010  0.44760  0.16230  Biso   1.000  H
  H147     1.0000 0.55240  0.08250  0.16230  Biso   1.000  H
  H148     1.0000 0.58417  0.80323  0.49563  Biso   1.000  H
  H149     1.0000 0.19677  0.78093  0.49563  Biso   1.000  H
  H150     1.0000 0.21907  0.41583  0.49563  Biso   1.000  H
  H151     1.0000 0.25083  0.13657  0.82897  Biso   1.000  H
  H152     1.0000 0.86343  0.11427  0.82897  Biso   1.000  H
  H153     1.0000 0.88573  0.74917  0.82897  Biso   1.000  H
  H154     1.0000 0.08250  0.53010  0.83770  Biso   1.000  H
  H155     1.0000 0.46990  0.55240  0.83770  Biso   1.000  H
  H156     1.0000 0.44760  0.91750  0.83770  Biso   1.000  H
  H157     1.0000 0.74917  0.86343  0.17103  Biso   1.000  H
  H158     1.0000 0.13657  0.88573  0.17103  Biso   1.000  H
  H159     1.0000 0.11427  0.25083  0.17103  Biso   1.000  H
  H160     1.0000 0.41583  0.19677  0.50437  Biso   1.000  H
  H161     1.0000 0.80323  0.21907  0.50437  Biso   1.000  H
  H162     1.0000 0.78093  0.58417  0.50437  Biso   1.000  H
  C343     1.0000 0.89240  0.44020  0.12190  Biso   1.000  C
  C344     1.0000 0.55980  0.45220  0.12190  Biso   1.000  C
  C345     1.0000 0.54780  0.10760  0.12190  Biso   1.000  C
  C346     1.0000 0.55907  0.77353  0.45523  Biso   1.000  C
  C347     1.0000 0.22647  0.78553  0.45523  Biso   1.000  C
  C348     1.0000 0.21447  0.44093  0.45523  Biso   1.000  C
  C349     1.0000 0.22573  0.10687  0.78857  Biso   1.000  C
  C350     1.0000 0.89313  0.11887  0.78857  Biso   1.000  C
  C351     1.0000 0.88113  0.77427  0.78857  Biso   1.000  C
  C352     1.0000 0.10760  0.55980  0.87810  Biso   1.000  C
  C353     1.0000 0.44020  0.54780  0.87810  Biso   1.000  C
  C354     1.0000 0.45220  0.89240  0.87810  Biso   1.000  C
  C355     1.0000 0.77427  0.89313  0.21143  Biso   1.000  C
  C356     1.0000 0.10687  0.88113  0.21143  Biso   1.000  C
  C357     1.0000 0.11887  0.22573  0.21143  Biso   1.000  C
  C358     1.0000 0.44093  0.22647  0.54477  Biso   1.000  C
  C359     1.0000 0.77353  0.21447  0.54477  Biso   1.000  C
  C360     1.0000 0.78553  0.55907  0.54477  Biso   1.000  C
  H163     1.0000 0.93530  0.49130  0.11500  Biso   1.000  H
  H164     1.0000 0.50870  0.44400  0.11500  Biso   1.000  H
  H165     1.0000 0.55600  0.06470  0.11500  Biso   1.000  H
  H166     1.0000 0.60197  0.82463  0.44833  Biso   1.000  H
  H167     1.0000 0.17537  0.77733  0.44833  Biso   1.000  H
  H168     1.0000 0.22267  0.39803  0.44833  Biso   1.000  H
  H169     1.0000 0.26863  0.15797  0.78167  Biso   1.000  H
  H170     1.0000 0.84203  0.11067  0.78167  Biso   1.000  H
  H171     1.0000 0.88933  0.73137  0.78167  Biso   1.000  H
  H172     1.0000 0.06470  0.50870  0.88500  Biso   1.000  H
  H173     1.0000 0.49130  0.55600  0.88500  Biso   1.000  H
  H174     1.0000 0.44400  0.93530  0.88500  Biso   1.000  H
  H175     1.0000 0.73137  0.84203  0.21833  Biso   1.000  H
  H176     1.0000 0.15797  0.88933  0.21833  Biso   1.000  H
  H177     1.0000 0.11067  0.26863  0.21833  Biso   1.000  H
  H178     1.0000 0.39803  0.17537  0.55167  Biso   1.000  H
  H179     1.0000 0.82463  0.22267  0.55167  Biso   1.000  H
  H180     1.0000 0.77733  0.60197  0.55167  Biso   1.000  H
  C361     1.0000 0.91720  0.27060  0.03540  Biso   1.000  C
  C362     1.0000 0.72940  0.64660  0.03540  Biso   1.000  C
  C363     1.0000 0.35340  0.08280  0.03540  Biso   1.000  C
  C364     1.0000 0.58387  0.60393  0.36873  Biso   1.000  C
  C365     1.0000 0.39607  0.97993  0.36873  Biso   1.000  C
  C366     1.0000 0.02007  0.41613  0.36873  Biso   1.000  C
  C367     1.0000 0.25053  0.93727  0.70207  Biso   1.000  C
  C368     1.0000 0.06273  0.31327  0.70207  Biso   1.000  C
  C369     1.0000 0.68673  0.74947  0.70207  Biso   1.000  C
  C370     1.0000 0.08280  0.72940  0.96460  Biso   1.000  C
  C371     1.0000 0.27060  0.35340  0.96460  Biso   1.000  C
  C372     1.0000 0.64660  0.91720  0.96460  Biso   1.000  C
  C373     1.0000 0.74947  0.06273  0.29793  Biso   1.000  C
  C374     1.0000 0.93727  0.68673  0.29793  Biso   1.000  C
  C375     1.0000 0.31327  0.25053  0.29793  Biso   1.000  C
  C376     1.0000 0.41613  0.39607  0.63127  Biso   1.000  C
  C377     1.0000 0.60393  0.02007  0.63127  Biso   1.000  C
  C378     1.0000 0.97993  0.58387  0.63127  Biso   1.000  C
  C379     1.0000 0.74340  0.13380  0.00984  Biso   1.000  C
  C380     1.0000 0.86620  0.60960  0.00984  Biso   1.000  C
  C381     1.0000 0.39040  0.25660  0.00984  Biso   1.000  C
  C382     1.0000 0.41007  0.46713  0.34317  Biso   1.000  C
  C383     1.0000 0.53287  0.94293  0.34317  Biso   1.000  C
  C384     1.0000 0.05707  0.58993  0.34317  Biso   1.000  C
  C385     1.0000 0.07673  0.80047  0.67651  Biso   1.000  C
  C386     1.0000 0.19953  0.27627  0.67651  Biso   1.000  C
  C387     1.0000 0.72373  0.92327  0.67651  Biso   1.000  C
  C388     1.0000 0.25660  0.86620  0.99016  Biso   1.000  C
  C389     1.0000 0.13380  0.39040  0.99016  Biso   1.000  C
  C390     1.0000 0.60960  0.74340  0.99016  Biso   1.000  C
  C391     1.0000 0.92327  0.19953  0.32349  Biso   1.000  C
  C392     1.0000 0.80047  0.72373  0.32349  Biso   1.000  C
  C393     1.0000 0.27627  0.07673  0.32349  Biso   1.000  C
  C394     1.0000 0.58993  0.53287  0.65683  Biso   1.000  C
  C395     1.0000 0.46713  0.05707  0.65683  Biso   1.000  C
  C396     1.0000 0.94293  0.41007  0.65683  Biso   1.000  C
  C397     1.0000 0.88330  0.17620  0.03450  Biso   1.000  C
  C398     1.0000 0.82380  0.70710  0.03450  Biso   1.000  C
  C399     1.0000 0.29290  0.11670  0.03450  Biso   1.000  C
  C400     1.0000 0.54997  0.50953  0.36783  Biso   1.000  C
  C401     1.0000 0.49047  0.04043  0.36783  Biso   1.000  C
  C402     1.0000 0.95957  0.45003  0.36783  Biso   1.000  C
  C403     1.0000 0.21663  0.84287  0.70117  Biso   1.000  C
  C404     1.0000 0.15713  0.37377  0.70117  Biso   1.000  C
  C405     1.0000 0.62623  0.78337  0.70117  Biso   1.000  C
  C406     1.0000 0.11670  0.82380  0.96550  Biso   1.000  C
  C407     1.0000 0.17620  0.29290  0.96550  Biso   1.000  C
  C408     1.0000 0.70710  0.88330  0.96550  Biso   1.000  C
  C409     1.0000 0.78337  0.15713  0.29883  Biso   1.000  C
  C410     1.0000 0.84287  0.62623  0.29883  Biso   1.000  C
  C411     1.0000 0.37377  0.21663  0.29883  Biso   1.000  C
  C412     1.0000 0.45003  0.49047  0.63217  Biso   1.000  C
  C413     1.0000 0.50953  0.95957  0.63217  Biso   1.000  C
  C414     1.0000 0.04043  0.54997  0.63217  Biso   1.000  C
  C415     1.0000 0.93570  0.15010  0.04710  Biso   1.000  C
  C416     1.0000 0.84990  0.78560  0.04710  Biso   1.000  C
  C417     1.0000 0.21440  0.06430  0.04710  Biso   1.000  C
  C418     1.0000 0.60237  0.48343  0.38043  Biso   1.000  C
  C419     1.0000 0.51657  0.11893  0.38043  Biso   1.000  C
  C420     1.0000 0.88107  0.39763  0.38043  Biso   1.000  C
  C421     1.0000 0.26903  0.81677  0.71377  Biso   1.000  C
  C422     1.0000 0.18323  0.45227  0.71377  Biso   1.000  C
  C423     1.0000 0.54773  0.73097  0.71377  Biso   1.000  C
  C424     1.0000 0.06430  0.84990  0.95290  Biso   1.000  C
  C425     1.0000 0.15010  0.21440  0.95290  Biso   1.000  C
  C426     1.0000 0.78560  0.93570  0.95290  Biso   1.000  C
  C427     1.0000 0.73097  0.18323  0.28623  Biso   1.000  C
  C428     1.0000 0.81677  0.54773  0.28623  Biso   1.000  C
  C429     1.0000 0.45227  0.26903  0.28623  Biso   1.000  C
  C430     1.0000 0.39763  0.51657  0.61957  Biso   1.000  C
  C431     1.0000 0.48343  0.88107  0.61957  Biso   1.000  C
  C432     1.0000 0.11893  0.60237  0.61957  Biso   1.000  C
  H181     1.0000 0.98330  0.18910  0.05680  Biso   1.000  H
  H182     1.0000 0.81090  0.79420  0.05680  Biso   1.000  H
  H183     1.0000 0.20580  0.01670  0.05680  Biso   1.000  H
  H184     1.0000 0.64997  0.52243  0.39013  Biso   1.000  H
  H185     1.0000 0.47757  0.12753  0.39013  Biso   1.000  H
  H186     1.0000 0.87247  0.35003  0.39013  Biso   1.000  H
  H187     1.0000 0.31663  0.85577  0.72347  Biso   1.000  H
  H188     1.0000 0.14423  0.46087  0.72347  Biso   1.000  H
  H189     1.0000 0.53913  0.68337  0.72347  Biso   1.000  H
  H190     1.0000 0.01670  0.81090  0.94320  Biso   1.000  H
  H191     1.0000 0.18910  0.20580  0.94320  Biso   1.000  H
  H192     1.0000 0.79420  0.98330  0.94320  Biso   1.000  H
  H193     1.0000 0.68337  0.14423  0.27653  Biso   1.000  H
  H194     1.0000 0.85577  0.53913  0.27653  Biso   1.000  H
  H195     1.0000 0.46087  0.31663  0.27653  Biso   1.000  H
  H196     1.0000 0.35003  0.47757  0.60987  Biso   1.000  H
  H197     1.0000 0.52243  0.87247  0.60987  Biso   1.000  H
  H198     1.0000 0.12753  0.64997  0.60987  Biso   1.000  H
  C433     1.0000 0.91760  0.06660  0.04520  Biso   1.000  C
  C434     1.0000 0.93340  0.85100  0.04520  Biso   1.000  C
  C435     1.0000 0.14900  0.08240  0.04520  Biso   1.000  C
  C436     1.0000 0.58427  0.39993  0.37853  Biso   1.000  C
  C437     1.0000 0.60007  0.18433  0.37853  Biso   1.000  C
  C438     1.0000 0.81567  0.41573  0.37853  Biso   1.000  C
  C439     1.0000 0.25093  0.73327  0.71187  Biso   1.000  C
  C440     1.0000 0.26673  0.51767  0.71187  Biso   1.000  C
  C441     1.0000 0.48233  0.74907  0.71187  Biso   1.000  C
  C442     1.0000 0.08240  0.93340  0.95480  Biso   1.000  C
  C443     1.0000 0.06660  0.14900  0.95480  Biso   1.000  C
  C444     1.0000 0.85100  0.91760  0.95480  Biso   1.000  C
  C445     1.0000 0.74907  0.26673  0.28813  Biso   1.000  C
  C446     1.0000 0.73327  0.48233  0.28813  Biso   1.000  C
  C447     1.0000 0.51767  0.25093  0.28813  Biso   1.000  C
  C448     1.0000 0.41573  0.60007  0.62147  Biso   1.000  C
  C449     1.0000 0.39993  0.81567  0.62147  Biso   1.000  C
  C450     1.0000 0.18433  0.58427  0.62147  Biso   1.000  C
  H199     1.0000 0.95370  0.05040  0.05310  Biso   1.000  H
  H200     1.0000 0.94960  0.90330  0.05310  Biso   1.000  H
  H201     1.0000 0.09670  0.04630  0.05310  Biso   1.000  H
  H202     1.0000 0.62037  0.38373  0.38643  Biso   1.000  H
  H203     1.0000 0.61627  0.23663  0.38643  Biso   1.000  H
  H204     1.0000 0.76337  0.37963  0.38643  Biso   1.000  H
  H205     1.0000 0.28703  0.71707  0.71977  Biso   1.000  H
  H206     1.0000 0.28293  0.56997  0.71977  Biso   1.000  H
  H207     1.0000 0.43003  0.71297  0.71977  Biso   1.000  H
  H208     1.0000 0.04630  0.94960  0.94690  Biso   1.000  H
  H209     1.0000 0.05040  0.09670  0.94690  Biso   1.000  H
  H210     1.0000 0.90330  0.95370  0.94690  Biso   1.000  H
  H211     1.0000 0.71297  0.28293  0.28023  Biso   1.000  H
  H212     1.0000 0.71707  0.43003  0.28023  Biso   1.000  H
  H213     1.0000 0.56997  0.28703  0.28023  Biso   1.000  H
  H214     1.0000 0.37963  0.61627  0.61357  Biso   1.000  H
  H215     1.0000 0.38373  0.76337  0.61357  Biso   1.000  H
  H216     1.0000 0.23663  0.62037  0.61357  Biso   1.000  H
  C451     1.0000 0.84620  0.00870  0.03150  Biso   1.000  C
  C452     1.0000 0.99130  0.83750  0.03150  Biso   1.000  C
  C453     1.0000 0.16250  0.15380  0.03150  Biso   1.000  C
  C454     1.0000 0.51287  0.34203  0.36483  Biso   1.000  C
  C455     1.0000 0.65797  0.17083  0.36483  Biso   1.000  C
  C456     1.0000 0.82917  0.48713  0.36483  Biso   1.000  C
  C457     1.0000 0.17953  0.67537  0.69817  Biso   1.000  C
  C458     1.0000 0.32463  0.50417  0.69817  Biso   1.000  C
  C459     1.0000 0.49583  0.82047  0.69817  Biso   1.000  C
  C460     1.0000 0.15380  0.99130  0.96850  Biso   1.000  C
  C461     1.0000 0.00870  0.16250  0.96850  Biso   1.000  C
  C462     1.0000 0.83750  0.84620  0.96850  Biso   1.000  C
  C463     1.0000 0.82047  0.32463  0.30183  Biso   1.000  C
  C464     1.0000 0.67537  0.49583  0.30183  Biso   1.000  C
  C465     1.0000 0.50417  0.17953  0.30183  Biso   1.000  C
  C466     1.0000 0.48713  0.65797  0.63517  Biso   1.000  C
  C467     1.0000 0.34203  0.82917  0.63517  Biso   1.000  C
  C468     1.0000 0.17083  0.51287  0.63517  Biso   1.000  C
  H217     1.0000 0.83360  0.95280  0.03030  Biso   1.000  H
  H218     1.0000 0.04720  0.88080  0.03030  Biso   1.000  H
  H219     1.0000 0.11920  0.16640  0.03030  Biso   1.000  H
  H220     1.0000 0.50027  0.28613  0.36363  Biso   1.000  H
  H221     1.0000 0.71387  0.21413  0.36363  Biso   1.000  H
  H222     1.0000 0.78587  0.49973  0.36363  Biso   1.000  H
  H223     1.0000 0.16693  0.61947  0.69697  Biso   1.000  H
  H224     1.0000 0.38053  0.54747  0.69697  Biso   1.000  H
  H225     1.0000 0.45253  0.83307  0.69697  Biso   1.000  H
  H226     1.0000 0.16640  0.04720  0.96970  Biso   1.000  H
  H227     1.0000 0.95280  0.11920  0.96970  Biso   1.000  H
  H228     1.0000 0.88080  0.83360  0.96970  Biso   1.000  H
  H229     1.0000 0.83307  0.38053  0.30303  Biso   1.000  H
  H230     1.0000 0.61947  0.45253  0.30303  Biso   1.000  H
  H231     1.0000 0.54747  0.16693  0.30303  Biso   1.000  H
  H232     1.0000 0.49973  0.71387  0.63637  Biso   1.000  H
  H233     1.0000 0.28613  0.78587  0.63637  Biso   1.000  H
  H234     1.0000 0.21413  0.50027  0.63637  Biso   1.000  H
  C469     1.0000 0.79180  0.03290  0.01920  Biso   1.000  C
  C470     1.0000 0.96710  0.75890  0.01920  Biso   1.000  C
  C471     1.0000 0.24110  0.20820  0.01920  Biso   1.000  C
  C472     1.0000 0.45847  0.36623  0.35253  Biso   1.000  C
  C473     1.0000 0.63377  0.09223  0.35253  Biso   1.000  C
  C474     1.0000 0.90777  0.54153  0.35253  Biso   1.000  C
  C475     1.0000 0.12513  0.69957  0.68587  Biso   1.000  C
  C476     1.0000 0.30043  0.42557  0.68587  Biso   1.000  C
  C477     1.0000 0.57443  0.87487  0.68587  Biso   1.000  C
  C478     1.0000 0.20820  0.96710  0.98080  Biso   1.000  C
  C479     1.0000 0.03290  0.24110  0.98080  Biso   1.000  C
  C480     1.0000 0.75890  0.79180  0.98080  Biso   1.000  C
  C481     1.0000 0.87487  0.30043  0.31413  Biso   1.000  C
  C482     1.0000 0.69957  0.57443  0.31413  Biso   1.000  C
  C483     1.0000 0.42557  0.12513  0.31413  Biso   1.000  C
  C484     1.0000 0.54153  0.63377  0.64747  Biso   1.000  C
  C485     1.0000 0.36623  0.90777  0.64747  Biso   1.000  C
  C486     1.0000 0.09223  0.45847  0.64747  Biso   1.000  C
  H235     1.0000 0.74360  0.99340  0.00980  Biso   1.000  H
  H236     1.0000 0.00660  0.75020  0.00980  Biso   1.000  H
  H237     1.0000 0.24980  0.25640  0.00980  Biso   1.000  H
  H238     1.0000 0.41027  0.32673  0.34313  Biso   1.000  H
  H239     1.0000 0.67327  0.08353  0.34313  Biso   1.000  H
  H240     1.0000 0.91647  0.58973  0.34313  Biso   1.000  H
  H241     1.0000 0.07693  0.66007  0.67647  Biso   1.000  H
  H242     1.0000 0.33993  0.41687  0.67647  Biso   1.000  H
  H243     1.0000 0.58313  0.92307  0.67647  Biso   1.000  H
  H244     1.0000 0.25640  0.00660  0.99020  Biso   1.000  H
  H245     1.0000 0.99340  0.24980  0.99020  Biso   1.000  H
  H246     1.0000 0.75020  0.74360  0.99020  Biso   1.000  H
  H247     1.0000 0.92307  0.33993  0.32353  Biso   1.000  H
  H248     1.0000 0.66007  0.58313  0.32353  Biso   1.000  H
  H249     1.0000 0.41687  0.07693  0.32353  Biso   1.000  H
  H250     1.0000 0.58973  0.67327  0.65687  Biso   1.000  H
  H251     1.0000 0.32673  0.91647  0.65687  Biso   1.000  H
  H252     1.0000 0.08353  0.41027  0.65687  Biso   1.000  H
  C487     1.0000 0.81050  0.11680  0.02130  Biso   1.000  C
  C488     1.0000 0.88320  0.69370  0.02130  Biso   1.000  C
  C489     1.0000 0.30630  0.18950  0.02130  Biso   1.000  C
  C490     1.0000 0.47717  0.45013  0.35463  Biso   1.000  C
  C491     1.0000 0.54987  0.02703  0.35463  Biso   1.000  C
  C492     1.0000 0.97297  0.52283  0.35463  Biso   1.000  C
  C493     1.0000 0.14383  0.78347  0.68797  Biso   1.000  C
  C494     1.0000 0.21653  0.36037  0.68797  Biso   1.000  C
  C495     1.0000 0.63963  0.85617  0.68797  Biso   1.000  C
  C496     1.0000 0.18950  0.88320  0.97870  Biso   1.000  C
  C497     1.0000 0.11680  0.30630  0.97870  Biso   1.000  C
  C498     1.0000 0.69370  0.81050  0.97870  Biso   1.000  C
  C499     1.0000 0.85617  0.21653  0.31203  Biso   1.000  C
  C500     1.0000 0.78347  0.63963  0.31203  Biso   1.000  C
  C501     1.0000 0.36037  0.14383  0.31203  Biso   1.000  C
  C502     1.0000 0.52283  0.54987  0.64537  Biso   1.000  C
  C503     1.0000 0.45013  0.97297  0.64537  Biso   1.000  C
  C504     1.0000 0.02703  0.47717  0.64537  Biso   1.000  C
