data_image0
_cell_length_a       18.3057
_cell_length_b       18.3057
_cell_length_c       48.1567
_cell_angle_alpha    90
_cell_angle_beta     90
_cell_angle_gamma    120

_symmetry_space_group_name_H-M    "P 1"
_symmetry_int_tables_number       1

loop_
  _symmetry_equiv_pos_as_xyz
  'x, y, z'

loop_
  _atom_site_label
  _atom_site_occupancy
  _atom_site_fract_x
  _atom_site_fract_y
  _atom_site_fract_z
  _atom_site_thermal_displace_type
  _atom_site_B_iso_or_equiv
  _atom_site_type_symbol
  Er1      1.0000 0.78382  0.32868  0.00761  Biso   1.000  Er
  Er2      1.0000 0.67132  0.45513  0.00761  Biso   1.000  Er
  Er3      1.0000 0.54487  0.21618  0.00761  Biso   1.000  Er
  Er4      1.0000 0.45048  0.66201  0.34095  Biso   1.000  Er
  Er5      1.0000 0.33799  0.78847  0.34095  Biso   1.000  Er
  Er6      1.0000 0.21153  0.54952  0.34095  Biso   1.000  Er
  Er7      1.0000 0.11715  0.99535  0.67428  Biso   1.000  Er
  Er8      1.0000 0.00465  0.12180  0.67428  Biso   1.000  Er
  Er9      1.0000 0.87820  0.88285  0.67428  Biso   1.000  Er
  Er10     1.0000 0.21618  0.67132  0.99239  Biso   1.000  Er
  Er11     1.0000 0.32868  0.54487  0.99239  Biso   1.000  Er
  Er12     1.0000 0.45513  0.78382  0.99239  Biso   1.000  Er
  Er13     1.0000 0.88285  0.00465  0.32572  Biso   1.000  Er
  Er14     1.0000 0.99535  0.87820  0.32572  Biso   1.000  Er
  Er15     1.0000 0.12180  0.11715  0.32572  Biso   1.000  Er
  Er16     1.0000 0.54952  0.33799  0.65905  Biso   1.000  Er
  Er17     1.0000 0.66201  0.21153  0.65905  Biso   1.000  Er
  Er18     1.0000 0.78847  0.45048  0.65905  Biso   1.000  Er
  Er19     1.0000 0.98486  0.55118  0.96978  Biso   1.000  Er
  Er20     1.0000 0.44882  0.43368  0.96978  Biso   1.000  Er
  Er21     1.0000 0.56632  0.01514  0.96978  Biso   1.000  Er
  Er22     1.0000 0.65153  0.88451  0.30311  Biso   1.000  Er
  Er23     1.0000 0.11549  0.76701  0.30311  Biso   1.000  Er
  Er24     1.0000 0.23299  0.34847  0.30311  Biso   1.000  Er
  Er25     1.0000 0.31819  0.21785  0.63645  Biso   1.000  Er
  Er26     1.0000 0.78215  0.10035  0.63645  Biso   1.000  Er
  Er27     1.0000 0.89965  0.68181  0.63645  Biso   1.000  Er
  Er28     1.0000 0.01514  0.44882  0.03022  Biso   1.000  Er
  Er29     1.0000 0.55118  0.56632  0.03022  Biso   1.000  Er
  Er30     1.0000 0.43368  0.98486  0.03022  Biso   1.000  Er
  Er31     1.0000 0.68181  0.78215  0.36355  Biso   1.000  Er
  Er32     1.0000 0.21785  0.89965  0.36355  Biso   1.000  Er
  Er33     1.0000 0.10035  0.31819  0.36355  Biso   1.000  Er
  Er34     1.0000 0.34847  0.11549  0.69689  Biso   1.000  Er
  Er35     1.0000 0.88451  0.23299  0.69689  Biso   1.000  Er
  Er36     1.0000 0.76701  0.65153  0.69689  Biso   1.000  Er
  Er37     1.0000 0.66670  0.33330  0.94621  Biso   1.000  Er
  Er38     1.0000 0.33337  0.66663  0.27955  Biso   1.000  Er
  Er39     1.0000 0.00003  0.99997  0.61288  Biso   1.000  Er
  Er40     1.0000 0.33330  0.66670  0.05379  Biso   1.000  Er
  Er41     1.0000 0.99997  0.00003  0.38712  Biso   1.000  Er
  Er42     1.0000 0.66663  0.33337  0.72045  Biso   1.000  Er
  Cu1      1.0000 0.97610  0.13206  0.86869  Biso   1.000  Cu
  Cu2      1.0000 0.86794  0.84404  0.86869  Biso   1.000  Cu
  Cu3      1.0000 0.15596  0.02390  0.86869  Biso   1.000  Cu
  Cu4      1.0000 0.64277  0.46539  0.20202  Biso   1.000  Cu
  Cu5      1.0000 0.53461  0.17737  0.20202  Biso   1.000  Cu
  Cu6      1.0000 0.82263  0.35723  0.20202  Biso   1.000  Cu
  Cu7      1.0000 0.30943  0.79873  0.53536  Biso   1.000  Cu
  Cu8      1.0000 0.20127  0.51071  0.53536  Biso   1.000  Cu
  Cu9      1.0000 0.48929  0.69057  0.53536  Biso   1.000  Cu
  Cu10     1.0000 0.02390  0.86794  0.13131  Biso   1.000  Cu
  Cu11     1.0000 0.13206  0.15596  0.13131  Biso   1.000  Cu
  Cu12     1.0000 0.84404  0.97610  0.13131  Biso   1.000  Cu
  Cu13     1.0000 0.69057  0.20127  0.46464  Biso   1.000  Cu
  Cu14     1.0000 0.79873  0.48929  0.46464  Biso   1.000  Cu
  Cu15     1.0000 0.51071  0.30943  0.46464  Biso   1.000  Cu
  Cu16     1.0000 0.35723  0.53461  0.79798  Biso   1.000  Cu
  Cu17     1.0000 0.46539  0.82263  0.79798  Biso   1.000  Cu
  Cu18     1.0000 0.17737  0.64277  0.79798  Biso   1.000  Cu
  Br1      1.0000 0.00000  0.00010  0.88109  Biso   1.000  Br
  Br2      1.0000 0.66667  0.33343  0.21442  Biso   1.000  Br
  Br3      1.0000 0.33333  0.66677  0.54776  Biso   1.000  Br
  Br4      1.0000 0.00000  0.99990  0.11891  Biso   1.000  Br
  Br5      1.0000 0.66667  0.33323  0.45224  Biso   1.000  Br
  Br6      1.0000 0.33333  0.66657  0.78558  Biso   1.000  Br
  Br7      1.0000 0.11590  0.14288  0.88089  Biso   1.000  Br
  Br8      1.0000 0.85712  0.97302  0.88089  Biso   1.000  Br
  Br9      1.0000 0.02698  0.88410  0.88089  Biso   1.000  Br
  Br10     1.0000 0.78257  0.47621  0.21422  Biso   1.000  Br
  Br11     1.0000 0.52379  0.30635  0.21422  Biso   1.000  Br
  Br12     1.0000 0.69365  0.21743  0.21422  Biso   1.000  Br
  Br13     1.0000 0.44923  0.80955  0.54756  Biso   1.000  Br
  Br14     1.0000 0.19045  0.63969  0.54756  Biso   1.000  Br
  Br15     1.0000 0.36031  0.55077  0.54756  Biso   1.000  Br
  Br16     1.0000 0.88410  0.85712  0.11911  Biso   1.000  Br
  Br17     1.0000 0.14288  0.02698  0.11911  Biso   1.000  Br
  Br18     1.0000 0.97302  0.11590  0.11911  Biso   1.000  Br
  Br19     1.0000 0.55077  0.19045  0.45244  Biso   1.000  Br
  Br20     1.0000 0.80955  0.36031  0.45244  Biso   1.000  Br
  Br21     1.0000 0.63969  0.44923  0.45244  Biso   1.000  Br
  Br22     1.0000 0.21743  0.52379  0.78578  Biso   1.000  Br
  Br23     1.0000 0.47621  0.69365  0.78578  Biso   1.000  Br
  Br24     1.0000 0.30635  0.78257  0.78578  Biso   1.000  Br
  O1       1.0000 0.95780  0.41480  0.95910  Biso   1.000  O
  O2       1.0000 0.58520  0.54300  0.95910  Biso   1.000  O
  O3       1.0000 0.45700  0.04220  0.95910  Biso   1.000  O
  O4       1.0000 0.62447  0.74813  0.29243  Biso   1.000  O
  O5       1.0000 0.25187  0.87633  0.29243  Biso   1.000  O
  O6       1.0000 0.12367  0.37553  0.29243  Biso   1.000  O
  O7       1.0000 0.29113  0.08147  0.62577  Biso   1.000  O
  O8       1.0000 0.91853  0.20967  0.62577  Biso   1.000  O
  O9       1.0000 0.79033  0.70887  0.62577  Biso   1.000  O
  O10      1.0000 0.04220  0.58520  0.04090  Biso   1.000  O
  O11      1.0000 0.41480  0.45700  0.04090  Biso   1.000  O
  O12      1.0000 0.54300  0.95780  0.04090  Biso   1.000  O
  O13      1.0000 0.70887  0.91853  0.37423  Biso   1.000  O
  O14      1.0000 0.08147  0.79033  0.37423  Biso   1.000  O
  O15      1.0000 0.20967  0.29113  0.37423  Biso   1.000  O
  O16      1.0000 0.37553  0.25187  0.70757  Biso   1.000  O
  O17      1.0000 0.74813  0.12367  0.70757  Biso   1.000  O
  O18      1.0000 0.87633  0.62447  0.70757  Biso   1.000  O
  O19      1.0000 0.82570  0.30890  0.96396  Biso   1.000  O
  O20      1.0000 0.69110  0.51680  0.96396  Biso   1.000  O
  O21      1.0000 0.48320  0.17430  0.96396  Biso   1.000  O
  O22      1.0000 0.49237  0.64223  0.29729  Biso   1.000  O
  O23      1.0000 0.35777  0.85013  0.29729  Biso   1.000  O
  O24      1.0000 0.14987  0.50763  0.29729  Biso   1.000  O
  O25      1.0000 0.15903  0.97557  0.63063  Biso   1.000  O
  O26      1.0000 0.02443  0.18347  0.63063  Biso   1.000  O
  O27      1.0000 0.81653  0.84097  0.63063  Biso   1.000  O
  O28      1.0000 0.17430  0.69110  0.03604  Biso   1.000  O
  O29      1.0000 0.30890  0.48320  0.03604  Biso   1.000  O
  O30      1.0000 0.51680  0.82570  0.03604  Biso   1.000  O
  O31      1.0000 0.84097  0.02443  0.36937  Biso   1.000  O
  O32      1.0000 0.97557  0.81653  0.36937  Biso   1.000  O
  O33      1.0000 0.18347  0.15903  0.36937  Biso   1.000  O
  O34      1.0000 0.50763  0.35777  0.70271  Biso   1.000  O
  O35      1.0000 0.64223  0.14987  0.70271  Biso   1.000  O
  O36      1.0000 0.85013  0.49237  0.70271  Biso   1.000  O
  O37      1.0000 0.88310  0.51500  0.93760  Biso   1.000  O
  O38      1.0000 0.48500  0.36810  0.93760  Biso   1.000  O
  O39      1.0000 0.63190  0.11690  0.93760  Biso   1.000  O
  O40      1.0000 0.54977  0.84833  0.27093  Biso   1.000  O
  O41      1.0000 0.15167  0.70143  0.27093  Biso   1.000  O
  O42      1.0000 0.29857  0.45023  0.27093  Biso   1.000  O
  O43      1.0000 0.21643  0.18167  0.60427  Biso   1.000  O
  O44      1.0000 0.81833  0.03477  0.60427  Biso   1.000  O
  O45      1.0000 0.96523  0.78357  0.60427  Biso   1.000  O
  O46      1.0000 0.11690  0.48500  0.06240  Biso   1.000  O
  O47      1.0000 0.51500  0.63190  0.06240  Biso   1.000  O
  O48      1.0000 0.36810  0.88310  0.06240  Biso   1.000  O
  O49      1.0000 0.78357  0.81833  0.39573  Biso   1.000  O
  O50      1.0000 0.18167  0.96523  0.39573  Biso   1.000  O
  O51      1.0000 0.03477  0.21643  0.39573  Biso   1.000  O
  O52      1.0000 0.45023  0.15167  0.72907  Biso   1.000  O
  O53      1.0000 0.84833  0.29857  0.72907  Biso   1.000  O
  O54      1.0000 0.70143  0.54977  0.72907  Biso   1.000  O
  O55      1.0000 0.76630  0.42300  0.91666  Biso   1.000  O
  O56      1.0000 0.57700  0.34330  0.91666  Biso   1.000  O
  O57      1.0000 0.65670  0.23370  0.91666  Biso   1.000  O
  O58      1.0000 0.43297  0.75633  0.24999  Biso   1.000  O
  O59      1.0000 0.24367  0.67663  0.24999  Biso   1.000  O
  O60      1.0000 0.32337  0.56703  0.24999  Biso   1.000  O
  O61      1.0000 0.09963  0.08967  0.58333  Biso   1.000  O
  O62      1.0000 0.91033  0.00997  0.58333  Biso   1.000  O
  O63      1.0000 0.99003  0.90037  0.58333  Biso   1.000  O
  O64      1.0000 0.23370  0.57700  0.08334  Biso   1.000  O
  O65      1.0000 0.42300  0.65670  0.08334  Biso   1.000  O
  O66      1.0000 0.34330  0.76630  0.08334  Biso   1.000  O
  O67      1.0000 0.90037  0.91033  0.41667  Biso   1.000  O
  O68      1.0000 0.08967  0.99003  0.41667  Biso   1.000  O
  O69      1.0000 0.00997  0.09963  0.41667  Biso   1.000  O
  O70      1.0000 0.56703  0.24367  0.75001  Biso   1.000  O
  O71      1.0000 0.75633  0.32337  0.75001  Biso   1.000  O
  O72      1.0000 0.67663  0.43297  0.75001  Biso   1.000  O
  O73      1.0000 0.93010  0.44070  0.06595  Biso   1.000  O
  O74      1.0000 0.55930  0.48940  0.06595  Biso   1.000  O
  O75      1.0000 0.51060  0.06990  0.06595  Biso   1.000  O
  O76      1.0000 0.59677  0.77403  0.39928  Biso   1.000  O
  O77      1.0000 0.22597  0.82273  0.39928  Biso   1.000  O
  O78      1.0000 0.17727  0.40323  0.39928  Biso   1.000  O
  O79      1.0000 0.26343  0.10737  0.73262  Biso   1.000  O
  O80      1.0000 0.89263  0.15607  0.73262  Biso   1.000  O
  O81      1.0000 0.84393  0.73657  0.73262  Biso   1.000  O
  O82      1.0000 0.06990  0.55930  0.93405  Biso   1.000  O
  O83      1.0000 0.44070  0.51060  0.93405  Biso   1.000  O
  O84      1.0000 0.48940  0.93010  0.93405  Biso   1.000  O
  O85      1.0000 0.73657  0.89263  0.26738  Biso   1.000  O
  O86      1.0000 0.10737  0.84393  0.26738  Biso   1.000  O
  O87      1.0000 0.15607  0.26343  0.26738  Biso   1.000  O
  O88      1.0000 0.40323  0.22597  0.60072  Biso   1.000  O
  O89      1.0000 0.77403  0.17727  0.60072  Biso   1.000  O
  O90      1.0000 0.82273  0.59677  0.60072  Biso   1.000  O
  O91      1.0000 0.79650  0.34460  0.05645  Biso   1.000  O
  O92      1.0000 0.65540  0.45190  0.05645  Biso   1.000  O
  O93      1.0000 0.54810  0.20350  0.05645  Biso   1.000  O
  O94      1.0000 0.46317  0.67793  0.38978  Biso   1.000  O
  O95      1.0000 0.32207  0.78523  0.38978  Biso   1.000  O
  O96      1.0000 0.21477  0.53683  0.38978  Biso   1.000  O
  O97      1.0000 0.12983  0.01127  0.72312  Biso   1.000  O
  O98      1.0000 0.98873  0.11857  0.72312  Biso   1.000  O
  O99      1.0000 0.88143  0.87017  0.72312  Biso   1.000  O
  O100     1.0000 0.20350  0.65540  0.94355  Biso   1.000  O
  O101     1.0000 0.34460  0.54810  0.94355  Biso   1.000  O
  O102     1.0000 0.45190  0.79650  0.94355  Biso   1.000  O
  O103     1.0000 0.87017  0.98873  0.27688  Biso   1.000  O
  O104     1.0000 0.01127  0.88143  0.27688  Biso   1.000  O
  O105     1.0000 0.11857  0.12983  0.27688  Biso   1.000  O
  O106     1.0000 0.53683  0.32207  0.61022  Biso   1.000  O
  O107     1.0000 0.67793  0.21477  0.61022  Biso   1.000  O
  O108     1.0000 0.78523  0.46317  0.61022  Biso   1.000  O
  O109     1.0000 0.96960  0.31330  0.05364  Biso   1.000  O
  O110     1.0000 0.68670  0.65630  0.05364  Biso   1.000  O
  O111     1.0000 0.34370  0.03040  0.05364  Biso   1.000  O
  O112     1.0000 0.63627  0.64663  0.38697  Biso   1.000  O
  O113     1.0000 0.35337  0.98963  0.38697  Biso   1.000  O
  O114     1.0000 0.01037  0.36373  0.38697  Biso   1.000  O
  O115     1.0000 0.30293  0.97997  0.72031  Biso   1.000  O
  O116     1.0000 0.02003  0.32297  0.72031  Biso   1.000  O
  O117     1.0000 0.67703  0.69707  0.72031  Biso   1.000  O
  O118     1.0000 0.03040  0.68670  0.94636  Biso   1.000  O
  O119     1.0000 0.31330  0.34370  0.94636  Biso   1.000  O
  O120     1.0000 0.65630  0.96960  0.94636  Biso   1.000  O
  O121     1.0000 0.69707  0.02003  0.27969  Biso   1.000  O
  O122     1.0000 0.97997  0.67703  0.27969  Biso   1.000  O
  O123     1.0000 0.32297  0.30293  0.27969  Biso   1.000  O
  O124     1.0000 0.36373  0.35337  0.61303  Biso   1.000  O
  O125     1.0000 0.64663  0.01037  0.61303  Biso   1.000  O
  O126     1.0000 0.98963  0.63627  0.61303  Biso   1.000  O
  O127     1.0000 0.90080  0.30830  0.01626  Biso   1.000  O
  O128     1.0000 0.69170  0.59250  0.01626  Biso   1.000  O
  O129     1.0000 0.40750  0.09920  0.01626  Biso   1.000  O
  O130     1.0000 0.56747  0.64163  0.34959  Biso   1.000  O
  O131     1.0000 0.35837  0.92583  0.34959  Biso   1.000  O
  O132     1.0000 0.07417  0.43253  0.34959  Biso   1.000  O
  O133     1.0000 0.23413  0.97497  0.68293  Biso   1.000  O
  O134     1.0000 0.02503  0.25917  0.68293  Biso   1.000  O
  O135     1.0000 0.74083  0.76587  0.68293  Biso   1.000  O
  O136     1.0000 0.09920  0.69170  0.98374  Biso   1.000  O
  O137     1.0000 0.30830  0.40750  0.98374  Biso   1.000  O
  O138     1.0000 0.59250  0.90080  0.98374  Biso   1.000  O
  O139     1.0000 0.76587  0.02503  0.31707  Biso   1.000  O
  O140     1.0000 0.97497  0.74083  0.31707  Biso   1.000  O
  O141     1.0000 0.25917  0.23413  0.31707  Biso   1.000  O
  O142     1.0000 0.43253  0.35837  0.65041  Biso   1.000  O
  O143     1.0000 0.64163  0.07417  0.65041  Biso   1.000  O
  O144     1.0000 0.92583  0.56747  0.65041  Biso   1.000  O
  O145     1.0000 0.73270  0.19030  0.02196  Biso   1.000  O
  O146     1.0000 0.80970  0.54240  0.02196  Biso   1.000  O
  O147     1.0000 0.45760  0.26730  0.02196  Biso   1.000  O
  O148     1.0000 0.39937  0.52363  0.35529  Biso   1.000  O
  O149     1.0000 0.47637  0.87573  0.35529  Biso   1.000  O
  O150     1.0000 0.12427  0.60063  0.35529  Biso   1.000  O
  O151     1.0000 0.06603  0.85697  0.68863  Biso   1.000  O
  O152     1.0000 0.14303  0.20907  0.68863  Biso   1.000  O
  O153     1.0000 0.79093  0.93397  0.68863  Biso   1.000  O
  O154     1.0000 0.26730  0.80970  0.97804  Biso   1.000  O
  O155     1.0000 0.19030  0.45760  0.97804  Biso   1.000  O
  O156     1.0000 0.54240  0.73270  0.97804  Biso   1.000  O
  O157     1.0000 0.93397  0.14303  0.31137  Biso   1.000  O
  O158     1.0000 0.85697  0.79093  0.31137  Biso   1.000  O
  O159     1.0000 0.20907  0.06603  0.31137  Biso   1.000  O
  O160     1.0000 0.60063  0.47637  0.64471  Biso   1.000  O
  O161     1.0000 0.52363  0.12427  0.64471  Biso   1.000  O
  O162     1.0000 0.87573  0.39937  0.64471  Biso   1.000  O
  O163     1.0000 0.69820  0.08870  0.99069  Biso   1.000  O
  O164     1.0000 0.91130  0.60950  0.99069  Biso   1.000  O
  O165     1.0000 0.39050  0.30180  0.99069  Biso   1.000  O
  O166     1.0000 0.36487  0.42203  0.32402  Biso   1.000  O
  O167     1.0000 0.57797  0.94283  0.32402  Biso   1.000  O
  O168     1.0000 0.05717  0.63513  0.32402  Biso   1.000  O
  O169     1.0000 0.03153  0.75537  0.65736  Biso   1.000  O
  O170     1.0000 0.24463  0.27617  0.65736  Biso   1.000  O
  O171     1.0000 0.72383  0.96847  0.65736  Biso   1.000  O
  O172     1.0000 0.30180  0.91130  0.00931  Biso   1.000  O
  O173     1.0000 0.08870  0.39050  0.00931  Biso   1.000  O
  O174     1.0000 0.60950  0.69820  0.00931  Biso   1.000  O
  O175     1.0000 0.96847  0.24463  0.34264  Biso   1.000  O
  O176     1.0000 0.75537  0.72383  0.34264  Biso   1.000  O
  O177     1.0000 0.27617  0.03153  0.34264  Biso   1.000  O
  O178     1.0000 0.63513  0.57797  0.67598  Biso   1.000  O
  O179     1.0000 0.42203  0.05717  0.67598  Biso   1.000  O
  O180     1.0000 0.94283  0.36487  0.67598  Biso   1.000  O
  O181     1.0000 0.66670  0.33330  0.02524  Biso   1.000  O
  O182     1.0000 0.33337  0.66663  0.35857  Biso   1.000  O
  O183     1.0000 0.00003  0.99997  0.69191  Biso   1.000  O
  O184     1.0000 0.33330  0.66670  0.97476  Biso   1.000  O
  O185     1.0000 0.99997  0.00003  0.30809  Biso   1.000  O
  O186     1.0000 0.66663  0.33337  0.64143  Biso   1.000  O
  O187     1.0000 0.91020  0.46160  0.00743  Biso   1.000  O
  O188     1.0000 0.53840  0.44860  0.00743  Biso   1.000  O
  O189     1.0000 0.55140  0.08980  0.00743  Biso   1.000  O
  O190     1.0000 0.57687  0.79493  0.34076  Biso   1.000  O
  O191     1.0000 0.20507  0.78193  0.34076  Biso   1.000  O
  O192     1.0000 0.21807  0.42313  0.34076  Biso   1.000  O
  O193     1.0000 0.24353  0.12827  0.67410  Biso   1.000  O
  O194     1.0000 0.87173  0.11527  0.67410  Biso   1.000  O
  O195     1.0000 0.88473  0.75647  0.67410  Biso   1.000  O
  O196     1.0000 0.08980  0.53840  0.99257  Biso   1.000  O
  O197     1.0000 0.46160  0.55140  0.99257  Biso   1.000  O
  O198     1.0000 0.44860  0.91020  0.99257  Biso   1.000  O
  O199     1.0000 0.75647  0.87173  0.32590  Biso   1.000  O
  O200     1.0000 0.12827  0.88473  0.32590  Biso   1.000  O
  O201     1.0000 0.11527  0.24353  0.32590  Biso   1.000  O
  O202     1.0000 0.42313  0.20507  0.65924  Biso   1.000  O
  O203     1.0000 0.79493  0.21807  0.65924  Biso   1.000  O
  O204     1.0000 0.78193  0.57687  0.65924  Biso   1.000  O
  O205     1.0000 0.66240  0.24600  0.97994  Biso   1.000  O
  O206     1.0000 0.75400  0.41640  0.97994  Biso   1.000  O
  O207     1.0000 0.58360  0.33760  0.97994  Biso   1.000  O
  O208     1.0000 0.32907  0.57933  0.31327  Biso   1.000  O
  O209     1.0000 0.42067  0.74973  0.31327  Biso   1.000  O
  O210     1.0000 0.25027  0.67093  0.31327  Biso   1.000  O
  O211     1.0000 0.99573  0.91267  0.64661  Biso   1.000  O
  O212     1.0000 0.08733  0.08307  0.64661  Biso   1.000  O
  O213     1.0000 0.91693  0.00427  0.64661  Biso   1.000  O
  O214     1.0000 0.33760  0.75400  0.02006  Biso   1.000  O
  O215     1.0000 0.24600  0.58360  0.02006  Biso   1.000  O
  O216     1.0000 0.41640  0.66240  0.02006  Biso   1.000  O
  O217     1.0000 0.00427  0.08733  0.35339  Biso   1.000  O
  O218     1.0000 0.91267  0.91693  0.35339  Biso   1.000  O
  O219     1.0000 0.08307  0.99573  0.35339  Biso   1.000  O
  O220     1.0000 0.67093  0.42067  0.68673  Biso   1.000  O
  O221     1.0000 0.57933  0.25027  0.68673  Biso   1.000  O
  O222     1.0000 0.74973  0.32907  0.68673  Biso   1.000  O
  N1       1.0000 0.95110  0.19630  0.89606  Biso   1.000  N
  N2       1.0000 0.80370  0.75480  0.89606  Biso   1.000  N
  N3       1.0000 0.24520  0.04890  0.89606  Biso   1.000  N
  N4       1.0000 0.61777  0.52963  0.22939  Biso   1.000  N
  N5       1.0000 0.47037  0.08813  0.22939  Biso   1.000  N
  N6       1.0000 0.91187  0.38223  0.22939  Biso   1.000  N
  N7       1.0000 0.28443  0.86297  0.56273  Biso   1.000  N
  N8       1.0000 0.13703  0.42147  0.56273  Biso   1.000  N
  N9       1.0000 0.57853  0.71557  0.56273  Biso   1.000  N
  N10      1.0000 0.04890  0.80370  0.10394  Biso   1.000  N
  N11      1.0000 0.19630  0.24520  0.10394  Biso   1.000  N
  N12      1.0000 0.75480  0.95110  0.10394  Biso   1.000  N
  N13      1.0000 0.71557  0.13703  0.43727  Biso   1.000  N
  N14      1.0000 0.86297  0.57853  0.43727  Biso   1.000  N
  N15      1.0000 0.42147  0.28443  0.43727  Biso   1.000  N
  N16      1.0000 0.38223  0.47037  0.77061  Biso   1.000  N
  N17      1.0000 0.52963  0.91187  0.77061  Biso   1.000  N
  N18      1.0000 0.08813  0.61777  0.77061  Biso   1.000  N
  N19      1.0000 0.92080  0.62090  0.83980  Biso   1.000  N
  N20      1.0000 0.37910  0.29990  0.83980  Biso   1.000  N
  N21      1.0000 0.70010  0.07920  0.83980  Biso   1.000  N
  N22      1.0000 0.58747  0.95423  0.17313  Biso   1.000  N
  N23      1.0000 0.04577  0.63323  0.17313  Biso   1.000  N
  N24      1.0000 0.36677  0.41253  0.17313  Biso   1.000  N
  N25      1.0000 0.25413  0.28757  0.50647  Biso   1.000  N
  N26      1.0000 0.71243  0.96657  0.50647  Biso   1.000  N
  N27      1.0000 0.03343  0.74587  0.50647  Biso   1.000  N
  N28      1.0000 0.07920  0.37910  0.16020  Biso   1.000  N
  N29      1.0000 0.62090  0.70010  0.16020  Biso   1.000  N
  N30      1.0000 0.29990  0.92080  0.16020  Biso   1.000  N
  N31      1.0000 0.74587  0.71243  0.49353  Biso   1.000  N
  N32      1.0000 0.28757  0.03343  0.49353  Biso   1.000  N
  N33      1.0000 0.96657  0.25413  0.49353  Biso   1.000  N
  N34      1.0000 0.41253  0.04577  0.82687  Biso   1.000  N
  N35      1.0000 0.95423  0.36677  0.82687  Biso   1.000  N
  N36      1.0000 0.63323  0.58747  0.82687  Biso   1.000  N
  N37      1.0000 0.82410  0.36360  0.16089  Biso   1.000  N
  N38      1.0000 0.63640  0.46050  0.16089  Biso   1.000  N
  N39      1.0000 0.53950  0.17590  0.16089  Biso   1.000  N
  N40      1.0000 0.49077  0.69693  0.49422  Biso   1.000  N
  N41      1.0000 0.30307  0.79383  0.49422  Biso   1.000  N
  N42      1.0000 0.20617  0.50923  0.49422  Biso   1.000  N
  N43      1.0000 0.15743  0.03027  0.82756  Biso   1.000  N
  N44      1.0000 0.96973  0.12717  0.82756  Biso   1.000  N
  N45      1.0000 0.87283  0.84257  0.82756  Biso   1.000  N
  N46      1.0000 0.17590  0.63640  0.83911  Biso   1.000  N
  N47      1.0000 0.36360  0.53950  0.83911  Biso   1.000  N
  N48      1.0000 0.46050  0.82410  0.83911  Biso   1.000  N
  N49      1.0000 0.84257  0.96973  0.17244  Biso   1.000  N
  N50      1.0000 0.03027  0.87283  0.17244  Biso   1.000  N
  N51      1.0000 0.12717  0.15743  0.17244  Biso   1.000  N
  N52      1.0000 0.50923  0.30307  0.50578  Biso   1.000  N
  N53      1.0000 0.69693  0.20617  0.50578  Biso   1.000  N
  N54      1.0000 0.79383  0.49077  0.50578  Biso   1.000  N
  C1       1.0000 0.89860  0.34300  0.95395  Biso   1.000  C
  C2       1.0000 0.65700  0.55560  0.95395  Biso   1.000  C
  C3       1.0000 0.44440  0.10140  0.95395  Biso   1.000  C
  C4       1.0000 0.56527  0.67633  0.28728  Biso   1.000  C
  C5       1.0000 0.32367  0.88893  0.28728  Biso   1.000  C
  C6       1.0000 0.11107  0.43473  0.28728  Biso   1.000  C
  C7       1.0000 0.23193  0.00967  0.62062  Biso   1.000  C
  C8       1.0000 0.99033  0.22227  0.62062  Biso   1.000  C
  C9       1.0000 0.77773  0.76807  0.62062  Biso   1.000  C
  C10      1.0000 0.10140  0.65700  0.04605  Biso   1.000  C
  C11      1.0000 0.34300  0.44440  0.04605  Biso   1.000  C
  C12      1.0000 0.55560  0.89860  0.04605  Biso   1.000  C
  C13      1.0000 0.76807  0.99033  0.37938  Biso   1.000  C
  C14      1.0000 0.00967  0.77773  0.37938  Biso   1.000  C
  C15      1.0000 0.22227  0.23193  0.37938  Biso   1.000  C
  C16      1.0000 0.43473  0.32367  0.71272  Biso   1.000  C
  C17      1.0000 0.67633  0.11107  0.71272  Biso   1.000  C
  C18      1.0000 0.88893  0.56527  0.71272  Biso   1.000  C
  C19      1.0000 0.91710  0.29090  0.93366  Biso   1.000  C
  C20      1.0000 0.70910  0.62620  0.93366  Biso   1.000  C
  C21      1.0000 0.37380  0.08290  0.93366  Biso   1.000  C
  C22      1.0000 0.58377  0.62423  0.26699  Biso   1.000  C
  C23      1.0000 0.37577  0.95953  0.26699  Biso   1.000  C
  C24      1.0000 0.04047  0.41623  0.26699  Biso   1.000  C
  C25      1.0000 0.25043  0.95757  0.60033  Biso   1.000  C
  C26      1.0000 0.04243  0.29287  0.60033  Biso   1.000  C
  C27      1.0000 0.70713  0.74957  0.60033  Biso   1.000  C
  C28      1.0000 0.08290  0.70910  0.06634  Biso   1.000  C
  C29      1.0000 0.29090  0.37380  0.06634  Biso   1.000  C
  C30      1.0000 0.62620  0.91710  0.06634  Biso   1.000  C
  C31      1.0000 0.74957  0.04243  0.39967  Biso   1.000  C
  C32      1.0000 0.95757  0.70713  0.39967  Biso   1.000  C
  C33      1.0000 0.29287  0.25043  0.39967  Biso   1.000  C
  C34      1.0000 0.41623  0.37577  0.73301  Biso   1.000  C
  C35      1.0000 0.62423  0.04047  0.73301  Biso   1.000  C
  C36      1.0000 0.95953  0.58377  0.73301  Biso   1.000  C
  C37      1.0000 0.99310  0.32600  0.92011  Biso   1.000  C
  C38      1.0000 0.67400  0.66710  0.92011  Biso   1.000  C
  C39      1.0000 0.33290  0.00690  0.92011  Biso   1.000  C
  C40      1.0000 0.65977  0.65933  0.25344  Biso   1.000  C
  C41      1.0000 0.34067  0.00043  0.25344  Biso   1.000  C
  C42      1.0000 0.99957  0.34023  0.25344  Biso   1.000  C
  C43      1.0000 0.32643  0.99267  0.58678  Biso   1.000  C
  C44      1.0000 0.00733  0.33377  0.58678  Biso   1.000  C
  C45      1.0000 0.66623  0.67357  0.58678  Biso   1.000  C
  C46      1.0000 0.00690  0.67400  0.07989  Biso   1.000  C
  C47      1.0000 0.32600  0.33290  0.07989  Biso   1.000  C
  C48      1.0000 0.66710  0.99310  0.07989  Biso   1.000  C
  C49      1.0000 0.67357  0.00733  0.41322  Biso   1.000  C
  C50      1.0000 0.99267  0.66623  0.41322  Biso   1.000  C
  C51      1.0000 0.33377  0.32643  0.41322  Biso   1.000  C
  C52      1.0000 0.34023  0.34067  0.74656  Biso   1.000  C
  C53      1.0000 0.65933  0.99957  0.74656  Biso   1.000  C
  C54      1.0000 0.00043  0.65977  0.74656  Biso   1.000  C
  H1       1.0000 0.03390  0.38210  0.92300  Biso   1.000  H
  H2       1.0000 0.61790  0.65180  0.92300  Biso   1.000  H
  H3       1.0000 0.34820  0.96610  0.92300  Biso   1.000  H
  H4       1.0000 0.70057  0.71543  0.25633  Biso   1.000  H
  H5       1.0000 0.28457  0.98513  0.25633  Biso   1.000  H
  H6       1.0000 0.01487  0.29943  0.25633  Biso   1.000  H
  H7       1.0000 0.36723  0.04877  0.58967  Biso   1.000  H
  H8       1.0000 0.95123  0.31847  0.58967  Biso   1.000  H
  H9       1.0000 0.68153  0.63277  0.58967  Biso   1.000  H
  H10      1.0000 0.96610  0.61790  0.07700  Biso   1.000  H
  H11      1.0000 0.38210  0.34820  0.07700  Biso   1.000  H
  H12      1.0000 0.65180  0.03390  0.07700  Biso   1.000  H
  H13      1.0000 0.63277  0.95123  0.41033  Biso   1.000  H
  H14      1.0000 0.04877  0.68153  0.41033  Biso   1.000  H
  H15      1.0000 0.31847  0.36723  0.41033  Biso   1.000  H
  H16      1.0000 0.29943  0.28457  0.74367  Biso   1.000  H
  H17      1.0000 0.71543  0.01487  0.74367  Biso   1.000  H
  H18      1.0000 0.98513  0.70057  0.74367  Biso   1.000  H
  C55      1.0000 0.00740  0.27550  0.90203  Biso   1.000  C
  C56      1.0000 0.72450  0.73190  0.90203  Biso   1.000  C
  C57      1.0000 0.26810  0.99260  0.90203  Biso   1.000  C
  C58      1.0000 0.67407  0.60883  0.23536  Biso   1.000  C
  C59      1.0000 0.39117  0.06523  0.23536  Biso   1.000  C
  C60      1.0000 0.93477  0.32593  0.23536  Biso   1.000  C
  C61      1.0000 0.34073  0.94217  0.56870  Biso   1.000  C
  C62      1.0000 0.05783  0.39857  0.56870  Biso   1.000  C
  C63      1.0000 0.60143  0.65927  0.56870  Biso   1.000  C
  C64      1.0000 0.99260  0.72450  0.09797  Biso   1.000  C
  C65      1.0000 0.27550  0.26810  0.09797  Biso   1.000  C
  C66      1.0000 0.73190  0.00740  0.09797  Biso   1.000  C
  C67      1.0000 0.65927  0.05783  0.43130  Biso   1.000  C
  C68      1.0000 0.94217  0.60143  0.43130  Biso   1.000  C
  C69      1.0000 0.39857  0.34073  0.43130  Biso   1.000  C
  C70      1.0000 0.32593  0.39117  0.76464  Biso   1.000  C
  C71      1.0000 0.60883  0.93477  0.76464  Biso   1.000  C
  C72      1.0000 0.06523  0.67407  0.76464  Biso   1.000  C
  H19      1.0000 0.06000  0.29870  0.89360  Biso   1.000  H
  H20      1.0000 0.70130  0.76130  0.89360  Biso   1.000  H
  H21      1.0000 0.23870  0.94000  0.89360  Biso   1.000  H
  H22      1.0000 0.72667  0.63203  0.22693  Biso   1.000  H
  H23      1.0000 0.36797  0.09463  0.22693  Biso   1.000  H
  H24      1.0000 0.90537  0.27333  0.22693  Biso   1.000  H
  H25      1.0000 0.39333  0.96537  0.56027  Biso   1.000  H
  H26      1.0000 0.03463  0.42797  0.56027  Biso   1.000  H
  H27      1.0000 0.57203  0.60667  0.56027  Biso   1.000  H
  H28      1.0000 0.94000  0.70130  0.10640  Biso   1.000  H
  H29      1.0000 0.29870  0.23870  0.10640  Biso   1.000  H
  H30      1.0000 0.76130  0.06000  0.10640  Biso   1.000  H
  H31      1.0000 0.60667  0.03463  0.43973  Biso   1.000  H
  H32      1.0000 0.96537  0.57203  0.43973  Biso   1.000  H
  H33      1.0000 0.42797  0.39333  0.43973  Biso   1.000  H
  H34      1.0000 0.27333  0.36797  0.77307  Biso   1.000  H
  H35      1.0000 0.63203  0.90537  0.77307  Biso   1.000  H
  H36      1.0000 0.09463  0.72667  0.77307  Biso   1.000  H
  C73      1.0000 0.87720  0.16150  0.90998  Biso   1.000  C
  C74      1.0000 0.83850  0.71570  0.90998  Biso   1.000  C
  C75      1.0000 0.28430  0.12280  0.90998  Biso   1.000  C
  C76      1.0000 0.54387  0.49483  0.24331  Biso   1.000  C
  C77      1.0000 0.50517  0.04903  0.24331  Biso   1.000  C
  C78      1.0000 0.95097  0.45613  0.24331  Biso   1.000  C
  C79      1.0000 0.21053  0.82817  0.57665  Biso   1.000  C
  C80      1.0000 0.17183  0.38237  0.57665  Biso   1.000  C
  C81      1.0000 0.61763  0.78947  0.57665  Biso   1.000  C
  C82      1.0000 0.12280  0.83850  0.09002  Biso   1.000  C
  C83      1.0000 0.16150  0.28430  0.09002  Biso   1.000  C
  C84      1.0000 0.71570  0.87720  0.09002  Biso   1.000  C
  C85      1.0000 0.78947  0.17183  0.42335  Biso   1.000  C
  C86      1.0000 0.82817  0.61763  0.42335  Biso   1.000  C
  C87      1.0000 0.38237  0.21053  0.42335  Biso   1.000  C
  C88      1.0000 0.45613  0.50517  0.75669  Biso   1.000  C
  C89      1.0000 0.49483  0.95097  0.75669  Biso   1.000  C
  C90      1.0000 0.04903  0.54387  0.75669  Biso   1.000  C
  H37      1.0000 0.83800  0.10490  0.90690  Biso   1.000  H
  H38      1.0000 0.89510  0.73310  0.90690  Biso   1.000  H
  H39      1.0000 0.26690  0.16200  0.90690  Biso   1.000  H
  H40      1.0000 0.50467  0.43823  0.24023  Biso   1.000  H
  H41      1.0000 0.56177  0.06643  0.24023  Biso   1.000  H
  H42      1.0000 0.93357  0.49533  0.24023  Biso   1.000  H
  H43      1.0000 0.17133  0.77157  0.57357  Biso   1.000  H
  H44      1.0000 0.22843  0.39977  0.57357  Biso   1.000  H
  H45      1.0000 0.60023  0.82867  0.57357  Biso   1.000  H
  H46      1.0000 0.16200  0.89510  0.09310  Biso   1.000  H
  H47      1.0000 0.10490  0.26690  0.09310  Biso   1.000  H
  H48      1.0000 0.73310  0.83800  0.09310  Biso   1.000  H
  H49      1.0000 0.82867  0.22843  0.42643  Biso   1.000  H
  H50      1.0000 0.77157  0.60023  0.42643  Biso   1.000  H
  H51      1.0000 0.39977  0.17133  0.42643  Biso   1.000  H
  H52      1.0000 0.49533  0.56177  0.75977  Biso   1.000  H
  H53      1.0000 0.43823  0.93357  0.75977  Biso   1.000  H
  H54      1.0000 0.06643  0.50467  0.75977  Biso   1.000  H
  C91      1.0000 0.85760  0.20640  0.92854  Biso   1.000  C
  C92      1.0000 0.79360  0.65120  0.92854  Biso   1.000  C
  C93      1.0000 0.34880  0.14240  0.92854  Biso   1.000  C
  C94      1.0000 0.52427  0.53973  0.26187  Biso   1.000  C
  C95      1.0000 0.46027  0.98453  0.26187  Biso   1.000  C
  C96      1.0000 0.01547  0.47573  0.26187  Biso   1.000  C
  C97      1.0000 0.19093  0.87307  0.59521  Biso   1.000  C
  C98      1.0000 0.12693  0.31787  0.59521  Biso   1.000  C
  C99      1.0000 0.68213  0.80907  0.59521  Biso   1.000  C
  C100     1.0000 0.14240  0.79360  0.07146  Biso   1.000  C
  C101     1.0000 0.20640  0.34880  0.07146  Biso   1.000  C
  C102     1.0000 0.65120  0.85760  0.07146  Biso   1.000  C
  C103     1.0000 0.80907  0.12693  0.40479  Biso   1.000  C
  C104     1.0000 0.87307  0.68213  0.40479  Biso   1.000  C
  C105     1.0000 0.31787  0.19093  0.40479  Biso   1.000  C
  C106     1.0000 0.47573  0.46027  0.73813  Biso   1.000  C
  C107     1.0000 0.53973  0.01547  0.73813  Biso   1.000  C
  C108     1.0000 0.98453  0.52427  0.73813  Biso   1.000  C
  H55      1.0000 0.80560  0.18090  0.93750  Biso   1.000  H
  H56      1.0000 0.81910  0.62470  0.93750  Biso   1.000  H
  H57      1.0000 0.37530  0.19440  0.93750  Biso   1.000  H
  H58      1.0000 0.47227  0.51423  0.27083  Biso   1.000  H
  H59      1.0000 0.48577  0.95803  0.27083  Biso   1.000  H
  H60      1.0000 0.04197  0.52773  0.27083  Biso   1.000  H
  H61      1.0000 0.13893  0.84757  0.60417  Biso   1.000  H
  H62      1.0000 0.15243  0.29137  0.60417  Biso   1.000  H
  H63      1.0000 0.70863  0.86107  0.60417  Biso   1.000  H
  H64      1.0000 0.19440  0.81910  0.06250  Biso   1.000  H
  H65      1.0000 0.18090  0.37530  0.06250  Biso   1.000  H
  H66      1.0000 0.62470  0.80560  0.06250  Biso   1.000  H
  H67      1.0000 0.86107  0.15243  0.39583  Biso   1.000  H
  H68      1.0000 0.84757  0.70863  0.39583  Biso   1.000  H
  H69      1.0000 0.29137  0.13893  0.39583  Biso   1.000  H
  H70      1.0000 0.52773  0.48577  0.72917  Biso   1.000  H
  H71      1.0000 0.51423  0.04197  0.72917  Biso   1.000  H
  H72      1.0000 0.95803  0.47227  0.72917  Biso   1.000  H
  C109     1.0000 0.83730  0.48620  0.91644  Biso   1.000  C
  C110     1.0000 0.51380  0.35110  0.91644  Biso   1.000  C
  C111     1.0000 0.64890  0.16270  0.91644  Biso   1.000  C
  C112     1.0000 0.50397  0.81953  0.24977  Biso   1.000  C
  C113     1.0000 0.18047  0.68443  0.24977  Biso   1.000  C
  C114     1.0000 0.31557  0.49603  0.24977  Biso   1.000  C
  C115     1.0000 0.17063  0.15287  0.58311  Biso   1.000  C
  C116     1.0000 0.84713  0.01777  0.58311  Biso   1.000  C
  C117     1.0000 0.98223  0.82937  0.58311  Biso   1.000  C
  C118     1.0000 0.16270  0.51380  0.08356  Biso   1.000  C
  C119     1.0000 0.48620  0.64890  0.08356  Biso   1.000  C
  C120     1.0000 0.35110  0.83730  0.08356  Biso   1.000  C
  C121     1.0000 0.82937  0.84713  0.41689  Biso   1.000  C
  C122     1.0000 0.15287  0.98223  0.41689  Biso   1.000  C
  C123     1.0000 0.01777  0.17063  0.41689  Biso   1.000  C
  C124     1.0000 0.49603  0.18047  0.75023  Biso   1.000  C
  C125     1.0000 0.81953  0.31557  0.75023  Biso   1.000  C
  C126     1.0000 0.68443  0.50397  0.75023  Biso   1.000  C
  C127     1.0000 0.86910  0.53250  0.88946  Biso   1.000  C
  C128     1.0000 0.46750  0.33660  0.88946  Biso   1.000  C
  C129     1.0000 0.66340  0.13090  0.88946  Biso   1.000  C
  C130     1.0000 0.53577  0.86583  0.22279  Biso   1.000  C
  C131     1.0000 0.13417  0.66993  0.22279  Biso   1.000  C
  C132     1.0000 0.33007  0.46423  0.22279  Biso   1.000  C
  C133     1.0000 0.20243  0.19917  0.55613  Biso   1.000  C
  C134     1.0000 0.80083  0.00327  0.55613  Biso   1.000  C
  C135     1.0000 0.99673  0.79757  0.55613  Biso   1.000  C
  C136     1.0000 0.13090  0.46750  0.11054  Biso   1.000  C
  C137     1.0000 0.53250  0.66340  0.11054  Biso   1.000  C
  C138     1.0000 0.33660  0.86910  0.11054  Biso   1.000  C
  C139     1.0000 0.79757  0.80083  0.44387  Biso   1.000  C
  C140     1.0000 0.19917  0.99673  0.44387  Biso   1.000  C
  C141     1.0000 0.00327  0.20243  0.44387  Biso   1.000  C
  C142     1.0000 0.46423  0.13417  0.77721  Biso   1.000  C
  C143     1.0000 0.86583  0.33007  0.77721  Biso   1.000  C
  C144     1.0000 0.66993  0.53577  0.77721  Biso   1.000  C
  C145     1.0000 0.94510  0.60360  0.88682  Biso   1.000  C
  C146     1.0000 0.39640  0.34150  0.88682  Biso   1.000  C
  C147     1.0000 0.65850  0.05490  0.88682  Biso   1.000  C
  C148     1.0000 0.61177  0.93693  0.22015  Biso   1.000  C
  C149     1.0000 0.06307  0.67483  0.22015  Biso   1.000  C
  C150     1.0000 0.32517  0.38823  0.22015  Biso   1.000  C
  C151     1.0000 0.27843  0.27027  0.55349  Biso   1.000  C
  C152     1.0000 0.72973  0.00817  0.55349  Biso   1.000  C
  C153     1.0000 0.99183  0.72157  0.55349  Biso   1.000  C
  C154     1.0000 0.05490  0.39640  0.11318  Biso   1.000  C
  C155     1.0000 0.60360  0.65850  0.11318  Biso   1.000  C
  C156     1.0000 0.34150  0.94510  0.11318  Biso   1.000  C
  C157     1.0000 0.72157  0.72973  0.44651  Biso   1.000  C
  C158     1.0000 0.27027  0.99183  0.44651  Biso   1.000  C
  C159     1.0000 0.00817  0.27843  0.44651  Biso   1.000  C
  C160     1.0000 0.38823  0.06307  0.77985  Biso   1.000  C
  C161     1.0000 0.93693  0.32517  0.77985  Biso   1.000  C
  C162     1.0000 0.67483  0.61177  0.77985  Biso   1.000  C
  H73      1.0000 0.98040  0.62480  0.90220  Biso   1.000  H
  H74      1.0000 0.37520  0.35560  0.90220  Biso   1.000  H
  H75      1.0000 0.64440  0.01960  0.90220  Biso   1.000  H
  H76      1.0000 0.64707  0.95813  0.23553  Biso   1.000  H
  H77      1.0000 0.04187  0.68893  0.23553  Biso   1.000  H
  H78      1.0000 0.31107  0.35293  0.23553  Biso   1.000  H
  H79      1.0000 0.31373  0.29147  0.56887  Biso   1.000  H
  H80      1.0000 0.70853  0.02227  0.56887  Biso   1.000  H
  H81      1.0000 0.97773  0.68627  0.56887  Biso   1.000  H
  H82      1.0000 0.01960  0.37520  0.09780  Biso   1.000  H
  H83      1.0000 0.62480  0.64440  0.09780  Biso   1.000  H
  H84      1.0000 0.35560  0.98040  0.09780  Biso   1.000  H
  H85      1.0000 0.68627  0.70853  0.43113  Biso   1.000  H
  H86      1.0000 0.29147  0.97773  0.43113  Biso   1.000  H
  H87      1.0000 0.02227  0.31373  0.43113  Biso   1.000  H
  H88      1.0000 0.35293  0.04187  0.76447  Biso   1.000  H
  H89      1.0000 0.95813  0.31107  0.76447  Biso   1.000  H
  H90      1.0000 0.68893  0.64707  0.76447  Biso   1.000  H
  C163     1.0000 0.97090  0.64490  0.86180  Biso   1.000  C
  C164     1.0000 0.35510  0.32600  0.86180  Biso   1.000  C
  C165     1.0000 0.67400  0.02910  0.86180  Biso   1.000  C
  C166     1.0000 0.63757  0.97823  0.19513  Biso   1.000  C
  C167     1.0000 0.02177  0.65933  0.19513  Biso   1.000  C
  C168     1.0000 0.34067  0.36243  0.19513  Biso   1.000  C
  C169     1.0000 0.30423  0.31157  0.52847  Biso   1.000  C
  C170     1.0000 0.68843  0.99267  0.52847  Biso   1.000  C
  C171     1.0000 0.00733  0.69577  0.52847  Biso   1.000  C
  C172     1.0000 0.02910  0.35510  0.13820  Biso   1.000  C
  C173     1.0000 0.64490  0.67400  0.13820  Biso   1.000  C
  C174     1.0000 0.32600  0.97090  0.13820  Biso   1.000  C
  C175     1.0000 0.69577  0.68843  0.47153  Biso   1.000  C
  C176     1.0000 0.31157  0.00733  0.47153  Biso   1.000  C
  C177     1.0000 0.99267  0.30423  0.47153  Biso   1.000  C
  C178     1.0000 0.36243  0.02177  0.80487  Biso   1.000  C
  C179     1.0000 0.97823  0.34067  0.80487  Biso   1.000  C
  C180     1.0000 0.65933  0.63757  0.80487  Biso   1.000  C
  H91      1.0000 0.02510  0.69100  0.86030  Biso   1.000  H
  H92      1.0000 0.30900  0.33410  0.86030  Biso   1.000  H
  H93      1.0000 0.66590  0.97490  0.86030  Biso   1.000  H
  H94      1.0000 0.69177  0.02433  0.19363  Biso   1.000  H
  H95      1.0000 0.97567  0.66743  0.19363  Biso   1.000  H
  H96      1.0000 0.33257  0.30823  0.19363  Biso   1.000  H
  H97      1.0000 0.35843  0.35767  0.52697  Biso   1.000  H
  H98      1.0000 0.64233  0.00077  0.52697  Biso   1.000  H
  H99      1.0000 0.99923  0.64157  0.52697  Biso   1.000  H
  H100     1.0000 0.97490  0.30900  0.13970  Biso   1.000  H
  H101     1.0000 0.69100  0.66590  0.13970  Biso   1.000  H
  H102     1.0000 0.33410  0.02510  0.13970  Biso   1.000  H
  H103     1.0000 0.64157  0.64233  0.47303  Biso   1.000  H
  H104     1.0000 0.35767  0.99923  0.47303  Biso   1.000  H
  H105     1.0000 0.00077  0.35843  0.47303  Biso   1.000  H
  H106     1.0000 0.30823  0.97567  0.80637  Biso   1.000  H
  H107     1.0000 0.02433  0.33257  0.80637  Biso   1.000  H
  H108     1.0000 0.66743  0.69177  0.80637  Biso   1.000  H
  C181     1.0000 0.84020  0.55860  0.84250  Biso   1.000  C
  C182     1.0000 0.44140  0.28160  0.84250  Biso   1.000  C
  C183     1.0000 0.71840  0.15980  0.84250  Biso   1.000  C
  C184     1.0000 0.50687  0.89193  0.17583  Biso   1.000  C
  C185     1.0000 0.10807  0.61493  0.17583  Biso   1.000  C
  C186     1.0000 0.38507  0.49313  0.17583  Biso   1.000  C
  C187     1.0000 0.17353  0.22527  0.50917  Biso   1.000  C
  C188     1.0000 0.77473  0.94827  0.50917  Biso   1.000  C
  C189     1.0000 0.05173  0.82647  0.50917  Biso   1.000  C
  C190     1.0000 0.15980  0.44140  0.15750  Biso   1.000  C
  C191     1.0000 0.55860  0.71840  0.15750  Biso   1.000  C
  C192     1.0000 0.28160  0.84020  0.15750  Biso   1.000  C
  C193     1.0000 0.82647  0.77473  0.49083  Biso   1.000  C
  C194     1.0000 0.22527  0.05173  0.49083  Biso   1.000  C
  C195     1.0000 0.94827  0.17353  0.49083  Biso   1.000  C
  C196     1.0000 0.49313  0.10807  0.82417  Biso   1.000  C
  C197     1.0000 0.89193  0.38507  0.82417  Biso   1.000  C
  C198     1.0000 0.61493  0.50687  0.82417  Biso   1.000  C
  C199     1.0000 0.12500  0.47300  0.15940  Biso   1.000  C
  C200     1.0000 0.52700  0.65200  0.15940  Biso   1.000  C
  C201     1.0000 0.34800  0.87500  0.15940  Biso   1.000  C
  C202     1.0000 0.79167  0.80633  0.49273  Biso   1.000  C
  C203     1.0000 0.19367  0.98533  0.49273  Biso   1.000  C
  C204     1.0000 0.01467  0.20833  0.49273  Biso   1.000  C
  C205     1.0000 0.45833  0.13967  0.82607  Biso   1.000  C
  C206     1.0000 0.86033  0.31867  0.82607  Biso   1.000  C
  C207     1.0000 0.68133  0.54167  0.82607  Biso   1.000  C
  C208     1.0000 0.87500  0.52700  0.84060  Biso   1.000  C
  C209     1.0000 0.47300  0.34800  0.84060  Biso   1.000  C
  C210     1.0000 0.65200  0.12500  0.84060  Biso   1.000  C
  C211     1.0000 0.54167  0.86033  0.17393  Biso   1.000  C
  C212     1.0000 0.13967  0.68133  0.17393  Biso   1.000  C
  C213     1.0000 0.31867  0.45833  0.17393  Biso   1.000  C
  C214     1.0000 0.20833  0.19367  0.50727  Biso   1.000  C
  C215     1.0000 0.80633  0.01467  0.50727  Biso   1.000  C
  C216     1.0000 0.98533  0.79167  0.50727  Biso   1.000  C
  C217     1.0000 0.81230  0.51100  0.86720  Biso   1.000  C
  C218     1.0000 0.48900  0.30130  0.86720  Biso   1.000  C
  C219     1.0000 0.69870  0.18770  0.86720  Biso   1.000  C
  C220     1.0000 0.47897  0.84433  0.20053  Biso   1.000  C
  C221     1.0000 0.15567  0.63463  0.20053  Biso   1.000  C
  C222     1.0000 0.36537  0.52103  0.20053  Biso   1.000  C
  C223     1.0000 0.14563  0.17767  0.53387  Biso   1.000  C
  C224     1.0000 0.82233  0.96797  0.53387  Biso   1.000  C
  C225     1.0000 0.03203  0.85437  0.53387  Biso   1.000  C
  C226     1.0000 0.18770  0.48900  0.13280  Biso   1.000  C
  C227     1.0000 0.51100  0.69870  0.13280  Biso   1.000  C
  C228     1.0000 0.30130  0.81230  0.13280  Biso   1.000  C
  C229     1.0000 0.85437  0.82233  0.46613  Biso   1.000  C
  C230     1.0000 0.17767  0.03203  0.46613  Biso   1.000  C
  C231     1.0000 0.96797  0.14563  0.46613  Biso   1.000  C
  C232     1.0000 0.52103  0.15567  0.79947  Biso   1.000  C
  C233     1.0000 0.84433  0.36537  0.79947  Biso   1.000  C
  C234     1.0000 0.63463  0.47897  0.79947  Biso   1.000  C
  C235     1.0000 0.16000  0.52300  0.13670  Biso   1.000  C
  C236     1.0000 0.47700  0.63700  0.13670  Biso   1.000  C
  C237     1.0000 0.36300  0.84000  0.13670  Biso   1.000  C
  C238     1.0000 0.82667  0.85633  0.47003  Biso   1.000  C
  C239     1.0000 0.14367  0.97033  0.47003  Biso   1.000  C
  C240     1.0000 0.02967  0.17333  0.47003  Biso   1.000  C
  C241     1.0000 0.49333  0.18967  0.80337  Biso   1.000  C
  C242     1.0000 0.81033  0.30367  0.80337  Biso   1.000  C
  C243     1.0000 0.69633  0.50667  0.80337  Biso   1.000  C
  C244     1.0000 0.84000  0.47700  0.86330  Biso   1.000  C
  C245     1.0000 0.52300  0.36300  0.86330  Biso   1.000  C
  C246     1.0000 0.63700  0.16000  0.86330  Biso   1.000  C
  C247     1.0000 0.50667  0.81033  0.19663  Biso   1.000  C
  C248     1.0000 0.18967  0.69633  0.19663  Biso   1.000  C
  C249     1.0000 0.30367  0.49333  0.19663  Biso   1.000  C
  C250     1.0000 0.17333  0.14367  0.52997  Biso   1.000  C
  C251     1.0000 0.85633  0.02967  0.52997  Biso   1.000  C
  C252     1.0000 0.97033  0.82667  0.52997  Biso   1.000  C
  C253     1.0000 0.85560  0.38860  0.07276  Biso   1.000  C
  C254     1.0000 0.61140  0.46700  0.07276  Biso   1.000  C
  C255     1.0000 0.53300  0.14440  0.07276  Biso   1.000  C
  C256     1.0000 0.52227  0.72193  0.40609  Biso   1.000  C
  C257     1.0000 0.27807  0.80033  0.40609  Biso   1.000  C
  C258     1.0000 0.19967  0.47773  0.40609  Biso   1.000  C
  C259     1.0000 0.18893  0.05527  0.73943  Biso   1.000  C
  C260     1.0000 0.94473  0.13367  0.73943  Biso   1.000  C
  C261     1.0000 0.86633  0.81107  0.73943  Biso   1.000  C
  C262     1.0000 0.14440  0.61140  0.92724  Biso   1.000  C
  C263     1.0000 0.38860  0.53300  0.92724  Biso   1.000  C
  C264     1.0000 0.46700  0.85560  0.92724  Biso   1.000  C
  C265     1.0000 0.81107  0.94473  0.26057  Biso   1.000  C
  C266     1.0000 0.05527  0.86633  0.26057  Biso   1.000  C
  C267     1.0000 0.13367  0.18893  0.26057  Biso   1.000  C
  C268     1.0000 0.47773  0.27807  0.59391  Biso   1.000  C
  C269     1.0000 0.72193  0.19967  0.59391  Biso   1.000  C
  C270     1.0000 0.80033  0.52227  0.59391  Biso   1.000  C
  C271     1.0000 0.84080  0.38080  0.10376  Biso   1.000  C
  C272     1.0000 0.61920  0.46000  0.10376  Biso   1.000  C
  C273     1.0000 0.54000  0.15920  0.10376  Biso   1.000  C
  C274     1.0000 0.50747  0.71413  0.43709  Biso   1.000  C
  C275     1.0000 0.28587  0.79333  0.43709  Biso   1.000  C
  C276     1.0000 0.20667  0.49253  0.43709  Biso   1.000  C
  C277     1.0000 0.17413  0.04747  0.77043  Biso   1.000  C
  C278     1.0000 0.95253  0.12667  0.77043  Biso   1.000  C
  C279     1.0000 0.87333  0.82587  0.77043  Biso   1.000  C
  C280     1.0000 0.15920  0.61920  0.89624  Biso   1.000  C
  C281     1.0000 0.38080  0.54000  0.89624  Biso   1.000  C
  C282     1.0000 0.46000  0.84080  0.89624  Biso   1.000  C
  C283     1.0000 0.82587  0.95253  0.22957  Biso   1.000  C
  C284     1.0000 0.04747  0.87333  0.22957  Biso   1.000  C
  C285     1.0000 0.12667  0.17413  0.22957  Biso   1.000  C
  C286     1.0000 0.49253  0.28587  0.56291  Biso   1.000  C
  C287     1.0000 0.71413  0.20667  0.56291  Biso   1.000  C
  C288     1.0000 0.79333  0.50747  0.56291  Biso   1.000  C
  C289     1.0000 0.77690  0.30770  0.11547  Biso   1.000  C
  C290     1.0000 0.69230  0.46920  0.11547  Biso   1.000  C
  C291     1.0000 0.53080  0.22310  0.11547  Biso   1.000  C
  C292     1.0000 0.44357  0.64103  0.44880  Biso   1.000  C
  C293     1.0000 0.35897  0.80253  0.44880  Biso   1.000  C
  C294     1.0000 0.19747  0.55643  0.44880  Biso   1.000  C
  C295     1.0000 0.11023  0.97437  0.78214  Biso   1.000  C
  C296     1.0000 0.02563  0.13587  0.78214  Biso   1.000  C
  C297     1.0000 0.86413  0.88977  0.78214  Biso   1.000  C
  C298     1.0000 0.22310  0.69230  0.88453  Biso   1.000  C
  C299     1.0000 0.30770  0.53080  0.88453  Biso   1.000  C
  C300     1.0000 0.46920  0.77690  0.88453  Biso   1.000  C
  C301     1.0000 0.88977  0.02563  0.21786  Biso   1.000  C
  C302     1.0000 0.97437  0.86413  0.21786  Biso   1.000  C
  C303     1.0000 0.13587  0.11023  0.21786  Biso   1.000  C
  C304     1.0000 0.55643  0.35897  0.55120  Biso   1.000  C
  C305     1.0000 0.64103  0.19747  0.55120  Biso   1.000  C
  C306     1.0000 0.80253  0.44357  0.55120  Biso   1.000  C
  H109     1.0000 0.73810  0.26390  0.10430  Biso   1.000  H
  H110     1.0000 0.73610  0.47420  0.10430  Biso   1.000  H
  H111     1.0000 0.52580  0.26190  0.10430  Biso   1.000  H
  H112     1.0000 0.40477  0.59723  0.43763  Biso   1.000  H
  H113     1.0000 0.40277  0.80753  0.43763  Biso   1.000  H
  H114     1.0000 0.19247  0.59523  0.43763  Biso   1.000  H
  H115     1.0000 0.07143  0.93057  0.77097  Biso   1.000  H
  H116     1.0000 0.06943  0.14087  0.77097  Biso   1.000  H
  H117     1.0000 0.85913  0.92857  0.77097  Biso   1.000  H
  H118     1.0000 0.26190  0.73610  0.89570  Biso   1.000  H
  H119     1.0000 0.26390  0.52580  0.89570  Biso   1.000  H
  H120     1.0000 0.47420  0.73810  0.89570  Biso   1.000  H
  H121     1.0000 0.92857  0.06943  0.22903  Biso   1.000  H
  H122     1.0000 0.93057  0.85913  0.22903  Biso   1.000  H
  H123     1.0000 0.14087  0.07143  0.22903  Biso   1.000  H
  H124     1.0000 0.59523  0.40277  0.56237  Biso   1.000  H
  H125     1.0000 0.59723  0.19247  0.56237  Biso   1.000  H
  H126     1.0000 0.80753  0.40477  0.56237  Biso   1.000  H
  C307     1.0000 0.77200  0.30120  0.14435  Biso   1.000  C
  C308     1.0000 0.69880  0.47080  0.14435  Biso   1.000  C
  C309     1.0000 0.52920  0.22800  0.14435  Biso   1.000  C
  C310     1.0000 0.43867  0.63453  0.47768  Biso   1.000  C
  C311     1.0000 0.36547  0.80413  0.47768  Biso   1.000  C
  C312     1.0000 0.19587  0.56133  0.47768  Biso   1.000  C
  C313     1.0000 0.10533  0.96787  0.81102  Biso   1.000  C
  C314     1.0000 0.03213  0.13747  0.81102  Biso   1.000  C
  C315     1.0000 0.86253  0.89467  0.81102  Biso   1.000  C
  C316     1.0000 0.22800  0.69880  0.85565  Biso   1.000  C
  C317     1.0000 0.30120  0.52920  0.85565  Biso   1.000  C
  C318     1.0000 0.47080  0.77200  0.85565  Biso   1.000  C
  C319     1.0000 0.89467  0.03213  0.18898  Biso   1.000  C
  C320     1.0000 0.96787  0.86253  0.18898  Biso   1.000  C
  C321     1.0000 0.13747  0.10533  0.18898  Biso   1.000  C
  C322     1.0000 0.56133  0.36547  0.52232  Biso   1.000  C
  C323     1.0000 0.63453  0.19587  0.52232  Biso   1.000  C
  C324     1.0000 0.80413  0.43867  0.52232  Biso   1.000  C
  H127     1.0000 0.73060  0.25120  0.15230  Biso   1.000  H
  H128     1.0000 0.74880  0.47940  0.15230  Biso   1.000  H
  H129     1.0000 0.52060  0.26940  0.15230  Biso   1.000  H
  H130     1.0000 0.39727  0.58453  0.48563  Biso   1.000  H
  H131     1.0000 0.41547  0.81273  0.48563  Biso   1.000  H
  H132     1.0000 0.18727  0.60273  0.48563  Biso   1.000  H
  H133     1.0000 0.06393  0.91787  0.81897  Biso   1.000  H
  H134     1.0000 0.08213  0.14607  0.81897  Biso   1.000  H
  H135     1.0000 0.85393  0.93607  0.81897  Biso   1.000  H
  H136     1.0000 0.26940  0.74880  0.84770  Biso   1.000  H
  H137     1.0000 0.25120  0.52060  0.84770  Biso   1.000  H
  H138     1.0000 0.47940  0.73060  0.84770  Biso   1.000  H
  H139     1.0000 0.93607  0.08213  0.18103  Biso   1.000  H
  H140     1.0000 0.91787  0.85393  0.18103  Biso   1.000  H
  H141     1.0000 0.14607  0.06393  0.18103  Biso   1.000  H
  H142     1.0000 0.60273  0.41547  0.51437  Biso   1.000  H
  H143     1.0000 0.58453  0.18727  0.51437  Biso   1.000  H
  H144     1.0000 0.81273  0.39727  0.51437  Biso   1.000  H
  C325     1.0000 0.88320  0.43460  0.14918  Biso   1.000  C
  C326     1.0000 0.56540  0.44860  0.14918  Biso   1.000  C
  C327     1.0000 0.55140  0.11680  0.14918  Biso   1.000  C
  C328     1.0000 0.54987  0.76793  0.48251  Biso   1.000  C
  C329     1.0000 0.23207  0.78193  0.48251  Biso   1.000  C
  C330     1.0000 0.21807  0.45013  0.48251  Biso   1.000  C
  C331     1.0000 0.21653  0.10127  0.81585  Biso   1.000  C
  C332     1.0000 0.89873  0.11527  0.81585  Biso   1.000  C
  C333     1.0000 0.88473  0.78347  0.81585  Biso   1.000  C
  C334     1.0000 0.11680  0.56540  0.85082  Biso   1.000  C
  C335     1.0000 0.43460  0.55140  0.85082  Biso   1.000  C
  C336     1.0000 0.44860  0.88320  0.85082  Biso   1.000  C
  C337     1.0000 0.78347  0.89873  0.18415  Biso   1.000  C
  C338     1.0000 0.10127  0.88473  0.18415  Biso   1.000  C
  C339     1.0000 0.11527  0.21653  0.18415  Biso   1.000  C
  C340     1.0000 0.45013  0.23207  0.51749  Biso   1.000  C
  C341     1.0000 0.76793  0.21807  0.51749  Biso   1.000  C
  C342     1.0000 0.78193  0.54987  0.51749  Biso   1.000  C
  H145     1.0000 0.91880  0.47930  0.16060  Biso   1.000  H
  H146     1.0000 0.52070  0.43950  0.16060  Biso   1.000  H
  H147     1.0000 0.56050  0.08120  0.16060  Biso   1.000  H
  H148     1.0000 0.58547  0.81263  0.49393  Biso   1.000  H
  H149     1.0000 0.18737  0.77283  0.49393  Biso   1.000  H
  H150     1.0000 0.22717  0.41453  0.49393  Biso   1.000  H
  H151     1.0000 0.25213  0.14597  0.82727  Biso   1.000  H
  H152     1.0000 0.85403  0.10617  0.82727  Biso   1.000  H
  H153     1.0000 0.89383  0.74787  0.82727  Biso   1.000  H
  H154     1.0000 0.08120  0.52070  0.83940  Biso   1.000  H
  H155     1.0000 0.47930  0.56050  0.83940  Biso   1.000  H
  H156     1.0000 0.43950  0.91880  0.83940  Biso   1.000  H
  H157     1.0000 0.74787  0.85403  0.17273  Biso   1.000  H
  H158     1.0000 0.14597  0.89383  0.17273  Biso   1.000  H
  H159     1.0000 0.10617  0.25213  0.17273  Biso   1.000  H
  H160     1.0000 0.41453  0.18737  0.50607  Biso   1.000  H
  H161     1.0000 0.81263  0.22717  0.50607  Biso   1.000  H
  H162     1.0000 0.77283  0.58547  0.50607  Biso   1.000  H
  C343     1.0000 0.89390  0.44470  0.12114  Biso   1.000  C
  C344     1.0000 0.55530  0.44920  0.12114  Biso   1.000  C
  C345     1.0000 0.55080  0.10610  0.12114  Biso   1.000  C
  C346     1.0000 0.56057  0.77803  0.45447  Biso   1.000  C
  C347     1.0000 0.22197  0.78253  0.45447  Biso   1.000  C
  C348     1.0000 0.21747  0.43943  0.45447  Biso   1.000  C
  C349     1.0000 0.22723  0.11137  0.78781  Biso   1.000  C
  C350     1.0000 0.88863  0.11587  0.78781  Biso   1.000  C
  C351     1.0000 0.88413  0.77277  0.78781  Biso   1.000  C
  C352     1.0000 0.10610  0.55530  0.87886  Biso   1.000  C
  C353     1.0000 0.44470  0.55080  0.87886  Biso   1.000  C
  C354     1.0000 0.44920  0.89390  0.87886  Biso   1.000  C
  C355     1.0000 0.77277  0.88863  0.21219  Biso   1.000  C
  C356     1.0000 0.11137  0.88413  0.21219  Biso   1.000  C
  C357     1.0000 0.11587  0.22723  0.21219  Biso   1.000  C
  C358     1.0000 0.43943  0.22197  0.54553  Biso   1.000  C
  C359     1.0000 0.77803  0.21747  0.54553  Biso   1.000  C
  C360     1.0000 0.78253  0.56057  0.54553  Biso   1.000  C
  H163     1.0000 0.93710  0.49480  0.11380  Biso   1.000  H
  H164     1.0000 0.50520  0.44230  0.11380  Biso   1.000  H
  H165     1.0000 0.55770  0.06290  0.11380  Biso   1.000  H
  H166     1.0000 0.60377  0.82813  0.44713  Biso   1.000  H
  H167     1.0000 0.17187  0.77563  0.44713  Biso   1.000  H
  H168     1.0000 0.22437  0.39623  0.44713  Biso   1.000  H
  H169     1.0000 0.27043  0.16147  0.78047  Biso   1.000  H
  H170     1.0000 0.83853  0.10897  0.78047  Biso   1.000  H
  H171     1.0000 0.89103  0.72957  0.78047  Biso   1.000  H
  H172     1.0000 0.06290  0.50520  0.88620  Biso   1.000  H
  H173     1.0000 0.49480  0.55770  0.88620  Biso   1.000  H
  H174     1.0000 0.44230  0.93710  0.88620  Biso   1.000  H
  H175     1.0000 0.72957  0.83853  0.21953  Biso   1.000  H
  H176     1.0000 0.16147  0.89103  0.21953  Biso   1.000  H
  H177     1.0000 0.10897  0.27043  0.21953  Biso   1.000  H
  H178     1.0000 0.39623  0.17187  0.55287  Biso   1.000  H
  H179     1.0000 0.82813  0.22437  0.55287  Biso   1.000  H
  H180     1.0000 0.77563  0.60377  0.55287  Biso   1.000  H
  C361     1.0000 0.91790  0.27080  0.03526  Biso   1.000  C
  C362     1.0000 0.72920  0.64710  0.03526  Biso   1.000  C
  C363     1.0000 0.35290  0.08210  0.03526  Biso   1.000  C
  C364     1.0000 0.58457  0.60413  0.36859  Biso   1.000  C
  C365     1.0000 0.39587  0.98043  0.36859  Biso   1.000  C
  C366     1.0000 0.01957  0.41543  0.36859  Biso   1.000  C
  C367     1.0000 0.25123  0.93747  0.70193  Biso   1.000  C
  C368     1.0000 0.06253  0.31377  0.70193  Biso   1.000  C
  C369     1.0000 0.68623  0.74877  0.70193  Biso   1.000  C
  C370     1.0000 0.08210  0.72920  0.96474  Biso   1.000  C
  C371     1.0000 0.27080  0.35290  0.96474  Biso   1.000  C
  C372     1.0000 0.64710  0.91790  0.96474  Biso   1.000  C
  C373     1.0000 0.74877  0.06253  0.29807  Biso   1.000  C
  C374     1.0000 0.93747  0.68623  0.29807  Biso   1.000  C
  C375     1.0000 0.31377  0.25123  0.29807  Biso   1.000  C
  C376     1.0000 0.41543  0.39587  0.63141  Biso   1.000  C
  C377     1.0000 0.60413  0.01957  0.63141  Biso   1.000  C
  C378     1.0000 0.98043  0.58457  0.63141  Biso   1.000  C
  C379     1.0000 0.74350  0.13470  0.01021  Biso   1.000  C
  C380     1.0000 0.86530  0.60880  0.01021  Biso   1.000  C
  C381     1.0000 0.39120  0.25650  0.01021  Biso   1.000  C
  C382     1.0000 0.41017  0.46803  0.34354  Biso   1.000  C
  C383     1.0000 0.53197  0.94213  0.34354  Biso   1.000  C
  C384     1.0000 0.05787  0.58983  0.34354  Biso   1.000  C
  C385     1.0000 0.07683  0.80137  0.67688  Biso   1.000  C
  C386     1.0000 0.19863  0.27547  0.67688  Biso   1.000  C
  C387     1.0000 0.72453  0.92317  0.67688  Biso   1.000  C
  C388     1.0000 0.25650  0.86530  0.98979  Biso   1.000  C
  C389     1.0000 0.13470  0.39120  0.98979  Biso   1.000  C
  C390     1.0000 0.60880  0.74350  0.98979  Biso   1.000  C
  C391     1.0000 0.92317  0.19863  0.32312  Biso   1.000  C
  C392     1.0000 0.80137  0.72453  0.32312  Biso   1.000  C
  C393     1.0000 0.27547  0.07683  0.32312  Biso   1.000  C
  C394     1.0000 0.58983  0.53197  0.65646  Biso   1.000  C
  C395     1.0000 0.46803  0.05787  0.65646  Biso   1.000  C
  C396     1.0000 0.94213  0.41017  0.65646  Biso   1.000  C
  C397     1.0000 0.88400  0.17630  0.03436  Biso   1.000  C
  C398     1.0000 0.82370  0.70770  0.03436  Biso   1.000  C
  C399     1.0000 0.29230  0.11600  0.03436  Biso   1.000  C
  C400     1.0000 0.55067  0.50963  0.36769  Biso   1.000  C
  C401     1.0000 0.49037  0.04103  0.36769  Biso   1.000  C
  C402     1.0000 0.95897  0.44933  0.36769  Biso   1.000  C
  C403     1.0000 0.21733  0.84297  0.70103  Biso   1.000  C
  C404     1.0000 0.15703  0.37437  0.70103  Biso   1.000  C
  C405     1.0000 0.62563  0.78267  0.70103  Biso   1.000  C
  C406     1.0000 0.11600  0.82370  0.96564  Biso   1.000  C
  C407     1.0000 0.17630  0.29230  0.96564  Biso   1.000  C
  C408     1.0000 0.70770  0.88400  0.96564  Biso   1.000  C
  C409     1.0000 0.78267  0.15703  0.29897  Biso   1.000  C
  C410     1.0000 0.84297  0.62563  0.29897  Biso   1.000  C
  C411     1.0000 0.37437  0.21733  0.29897  Biso   1.000  C
  C412     1.0000 0.44933  0.49037  0.63231  Biso   1.000  C
  C413     1.0000 0.50963  0.95897  0.63231  Biso   1.000  C
  C414     1.0000 0.04103  0.55067  0.63231  Biso   1.000  C
  C415     1.0000 0.93640  0.14970  0.04602  Biso   1.000  C
  C416     1.0000 0.85030  0.78670  0.04602  Biso   1.000  C
  C417     1.0000 0.21330  0.06360  0.04602  Biso   1.000  C
  C418     1.0000 0.60307  0.48303  0.37935  Biso   1.000  C
  C419     1.0000 0.51697  0.12003  0.37935  Biso   1.000  C
  C420     1.0000 0.87997  0.39693  0.37935  Biso   1.000  C
  C421     1.0000 0.26973  0.81637  0.71269  Biso   1.000  C
  C422     1.0000 0.18363  0.45337  0.71269  Biso   1.000  C
  C423     1.0000 0.54663  0.73027  0.71269  Biso   1.000  C
  C424     1.0000 0.06360  0.85030  0.95398  Biso   1.000  C
  C425     1.0000 0.14970  0.21330  0.95398  Biso   1.000  C
  C426     1.0000 0.78670  0.93640  0.95398  Biso   1.000  C
  C427     1.0000 0.73027  0.18363  0.28731  Biso   1.000  C
  C428     1.0000 0.81637  0.54663  0.28731  Biso   1.000  C
  C429     1.0000 0.45337  0.26973  0.28731  Biso   1.000  C
  C430     1.0000 0.39693  0.51697  0.62065  Biso   1.000  C
  C431     1.0000 0.48303  0.87997  0.62065  Biso   1.000  C
  C432     1.0000 0.12003  0.60307  0.62065  Biso   1.000  C
  H181     1.0000 0.98570  0.18880  0.05500  Biso   1.000  H
  H182     1.0000 0.81120  0.79690  0.05500  Biso   1.000  H
  H183     1.0000 0.20310  0.01430  0.05500  Biso   1.000  H
  H184     1.0000 0.65237  0.52213  0.38833  Biso   1.000  H
  H185     1.0000 0.47787  0.13023  0.38833  Biso   1.000  H
  H186     1.0000 0.86977  0.34763  0.38833  Biso   1.000  H
  H187     1.0000 0.31903  0.85547  0.72167  Biso   1.000  H
  H188     1.0000 0.14453  0.46357  0.72167  Biso   1.000  H
  H189     1.0000 0.53643  0.68097  0.72167  Biso   1.000  H
  H190     1.0000 0.01430  0.81120  0.94500  Biso   1.000  H
  H191     1.0000 0.18880  0.20310  0.94500  Biso   1.000  H
  H192     1.0000 0.79690  0.98570  0.94500  Biso   1.000  H
  H193     1.0000 0.68097  0.14453  0.27833  Biso   1.000  H
  H194     1.0000 0.85547  0.53643  0.27833  Biso   1.000  H
  H195     1.0000 0.46357  0.31903  0.27833  Biso   1.000  H
  H196     1.0000 0.34763  0.47787  0.61167  Biso   1.000  H
  H197     1.0000 0.52213  0.86977  0.61167  Biso   1.000  H
  H198     1.0000 0.13023  0.65237  0.61167  Biso   1.000  H
  C433     1.0000 0.91690  0.06680  0.04458  Biso   1.000  C
  C434     1.0000 0.93320  0.85010  0.04458  Biso   1.000  C
  C435     1.0000 0.14990  0.08310  0.04458  Biso   1.000  C
  C436     1.0000 0.58357  0.40013  0.37791  Biso   1.000  C
  C437     1.0000 0.59987  0.18343  0.37791  Biso   1.000  C
  C438     1.0000 0.81657  0.41643  0.37791  Biso   1.000  C
  C439     1.0000 0.25023  0.73347  0.71125  Biso   1.000  C
  C440     1.0000 0.26653  0.51677  0.71125  Biso   1.000  C
  C441     1.0000 0.48323  0.74977  0.71125  Biso   1.000  C
  C442     1.0000 0.08310  0.93320  0.95542  Biso   1.000  C
  C443     1.0000 0.06680  0.14990  0.95542  Biso   1.000  C
  C444     1.0000 0.85010  0.91690  0.95542  Biso   1.000  C
  C445     1.0000 0.74977  0.26653  0.28875  Biso   1.000  C
  C446     1.0000 0.73347  0.48323  0.28875  Biso   1.000  C
  C447     1.0000 0.51677  0.25023  0.28875  Biso   1.000  C
  C448     1.0000 0.41643  0.59987  0.62209  Biso   1.000  C
  C449     1.0000 0.40013  0.81657  0.62209  Biso   1.000  C
  C450     1.0000 0.18343  0.58357  0.62209  Biso   1.000  C
  H199     1.0000 0.95220  0.05010  0.05280  Biso   1.000  H
  H200     1.0000 0.94990  0.90210  0.05280  Biso   1.000  H
  H201     1.0000 0.09790  0.04780  0.05280  Biso   1.000  H
  H202     1.0000 0.61887  0.38343  0.38613  Biso   1.000  H
  H203     1.0000 0.61657  0.23543  0.38613  Biso   1.000  H
  H204     1.0000 0.76457  0.38113  0.38613  Biso   1.000  H
  H205     1.0000 0.28553  0.71677  0.71947  Biso   1.000  H
  H206     1.0000 0.28323  0.56877  0.71947  Biso   1.000  H
  H207     1.0000 0.43123  0.71447  0.71947  Biso   1.000  H
  H208     1.0000 0.04780  0.94990  0.94720  Biso   1.000  H
  H209     1.0000 0.05010  0.09790  0.94720  Biso   1.000  H
  H210     1.0000 0.90210  0.95220  0.94720  Biso   1.000  H
  H211     1.0000 0.71447  0.28323  0.28053  Biso   1.000  H
  H212     1.0000 0.71677  0.43123  0.28053  Biso   1.000  H
  H213     1.0000 0.56877  0.28553  0.28053  Biso   1.000  H
  H214     1.0000 0.38113  0.61657  0.61387  Biso   1.000  H
  H215     1.0000 0.38343  0.76457  0.61387  Biso   1.000  H
  H216     1.0000 0.23543  0.61887  0.61387  Biso   1.000  H
  C451     1.0000 0.84580  0.00940  0.03105  Biso   1.000  C
  C452     1.0000 0.99060  0.83640  0.03105  Biso   1.000  C
  C453     1.0000 0.16360  0.15420  0.03105  Biso   1.000  C
  C454     1.0000 0.51247  0.34273  0.36438  Biso   1.000  C
  C455     1.0000 0.65727  0.16973  0.36438  Biso   1.000  C
  C456     1.0000 0.83027  0.48753  0.36438  Biso   1.000  C
  C457     1.0000 0.17913  0.67607  0.69772  Biso   1.000  C
  C458     1.0000 0.32393  0.50307  0.69772  Biso   1.000  C
  C459     1.0000 0.49693  0.82087  0.69772  Biso   1.000  C
  C460     1.0000 0.15420  0.99060  0.96895  Biso   1.000  C
  C461     1.0000 0.00940  0.16360  0.96895  Biso   1.000  C
  C462     1.0000 0.83640  0.84580  0.96895  Biso   1.000  C
  C463     1.0000 0.82087  0.32393  0.30228  Biso   1.000  C
  C464     1.0000 0.67607  0.49693  0.30228  Biso   1.000  C
  C465     1.0000 0.50307  0.17913  0.30228  Biso   1.000  C
  C466     1.0000 0.48753  0.65727  0.63562  Biso   1.000  C
  C467     1.0000 0.34273  0.83027  0.63562  Biso   1.000  C
  C468     1.0000 0.16973  0.51247  0.63562  Biso   1.000  C
  H217     1.0000 0.83330  0.95370  0.02950  Biso   1.000  H
  H218     1.0000 0.04630  0.87960  0.02950  Biso   1.000  H
  H219     1.0000 0.12040  0.16670  0.02950  Biso   1.000  H
  H220     1.0000 0.49997  0.28703  0.36283  Biso   1.000  H
  H221     1.0000 0.71297  0.21293  0.36283  Biso   1.000  H
  H222     1.0000 0.78707  0.50003  0.36283  Biso   1.000  H
  H223     1.0000 0.16663  0.62037  0.69617  Biso   1.000  H
  H224     1.0000 0.37963  0.54627  0.69617  Biso   1.000  H
  H225     1.0000 0.45373  0.83337  0.69617  Biso   1.000  H
  H226     1.0000 0.16670  0.04630  0.97050  Biso   1.000  H
  H227     1.0000 0.95370  0.12040  0.97050  Biso   1.000  H
  H228     1.0000 0.87960  0.83330  0.97050  Biso   1.000  H
  H229     1.0000 0.83337  0.37963  0.30383  Biso   1.000  H
  H230     1.0000 0.62037  0.45373  0.30383  Biso   1.000  H
  H231     1.0000 0.54627  0.16663  0.30383  Biso   1.000  H
  H232     1.0000 0.50003  0.71297  0.63717  Biso   1.000  H
  H233     1.0000 0.28703  0.78707  0.63717  Biso   1.000  H
  H234     1.0000 0.21293  0.49997  0.63717  Biso   1.000  H
  C469     1.0000 0.79230  0.03420  0.01965  Biso   1.000  C
  C470     1.0000 0.96580  0.75810  0.01965  Biso   1.000  C
  C471     1.0000 0.24190  0.20770  0.01965  Biso   1.000  C
  C472     1.0000 0.45897  0.36753  0.35298  Biso   1.000  C
  C473     1.0000 0.63247  0.09143  0.35298  Biso   1.000  C
  C474     1.0000 0.90857  0.54103  0.35298  Biso   1.000  C
  C475     1.0000 0.12563  0.70087  0.68632  Biso   1.000  C
  C476     1.0000 0.29913  0.42477  0.68632  Biso   1.000  C
  C477     1.0000 0.57523  0.87437  0.68632  Biso   1.000  C
  C478     1.0000 0.20770  0.96580  0.98035  Biso   1.000  C
  C479     1.0000 0.03420  0.24190  0.98035  Biso   1.000  C
  C480     1.0000 0.75810  0.79230  0.98035  Biso   1.000  C
  C481     1.0000 0.87437  0.29913  0.31368  Biso   1.000  C
  C482     1.0000 0.70087  0.57523  0.31368  Biso   1.000  C
  C483     1.0000 0.42477  0.12563  0.31368  Biso   1.000  C
  C484     1.0000 0.54103  0.63247  0.64702  Biso   1.000  C
  C485     1.0000 0.36753  0.90857  0.64702  Biso   1.000  C
  C486     1.0000 0.09143  0.45897  0.64702  Biso   1.000  C
  H235     1.0000 0.74320  0.99420  0.01090  Biso   1.000  H
  H236     1.0000 0.00580  0.74900  0.01090  Biso   1.000  H
  H237     1.0000 0.25100  0.25680  0.01090  Biso   1.000  H
  H238     1.0000 0.40987  0.32753  0.34423  Biso   1.000  H
  H239     1.0000 0.67247  0.08233  0.34423  Biso   1.000  H
  H240     1.0000 0.91767  0.59013  0.34423  Biso   1.000  H
  H241     1.0000 0.07653  0.66087  0.67757  Biso   1.000  H
  H242     1.0000 0.33913  0.41567  0.67757  Biso   1.000  H
  H243     1.0000 0.58433  0.92347  0.67757  Biso   1.000  H
  H244     1.0000 0.25680  0.00580  0.98910  Biso   1.000  H
  H245     1.0000 0.99420  0.25100  0.98910  Biso   1.000  H
  H246     1.0000 0.74900  0.74320  0.98910  Biso   1.000  H
  H247     1.0000 0.92347  0.33913  0.32243  Biso   1.000  H
  H248     1.0000 0.66087  0.58433  0.32243  Biso   1.000  H
  H249     1.0000 0.41567  0.07653  0.32243  Biso   1.000  H
  H250     1.0000 0.59013  0.67247  0.65577  Biso   1.000  H
  H251     1.0000 0.32753  0.91767  0.65577  Biso   1.000  H
  H252     1.0000 0.08233  0.40987  0.65577  Biso   1.000  H
  C487     1.0000 0.80990  0.11730  0.02093  Biso   1.000  C
  C488     1.0000 0.88270  0.69260  0.02093  Biso   1.000  C
  C489     1.0000 0.30740  0.19010  0.02093  Biso   1.000  C
  C490     1.0000 0.47657  0.45063  0.35426  Biso   1.000  C
  C491     1.0000 0.54937  0.02593  0.35426  Biso   1.000  C
  C492     1.0000 0.97407  0.52343  0.35426  Biso   1.000  C
  C493     1.0000 0.14323  0.78397  0.68760  Biso   1.000  C
  C494     1.0000 0.21603  0.35927  0.68760  Biso   1.000  C
  C495     1.0000 0.64073  0.85677  0.68760  Biso   1.000  C
  C496     1.0000 0.19010  0.88270  0.97907  Biso   1.000  C
  C497     1.0000 0.11730  0.30740  0.97907  Biso   1.000  C
  C498     1.0000 0.69260  0.80990  0.97907  Biso   1.000  C
  C499     1.0000 0.85677  0.21603  0.31240  Biso   1.000  C
  C500     1.0000 0.78397  0.64073  0.31240  Biso   1.000  C
  C501     1.0000 0.35927  0.14323  0.31240  Biso   1.000  C
  C502     1.0000 0.52343  0.54937  0.64574  Biso   1.000  C
  C503     1.0000 0.45063  0.97407  0.64574  Biso   1.000  C
  C504     1.0000 0.02593  0.47657  0.64574  Biso   1.000  C
