data_image0
_cell_length_a       22.3869
_cell_length_b       22.3869
_cell_length_c       22.3869
_cell_angle_alpha    90
_cell_angle_beta     90
_cell_angle_gamma    90

_symmetry_space_group_name_H-M    "P 1"
_symmetry_int_tables_number       1

loop_
  _symmetry_equiv_pos_as_xyz
  'x, y, z'

loop_
  _atom_site_label
  _atom_site_occupancy
  _atom_site_fract_x
  _atom_site_fract_y
  _atom_site_fract_z
  _atom_site_thermal_displace_type
  _atom_site_B_iso_or_equiv
  _atom_site_type_symbol
  Cu1      1.0000 0.66246  0.91738  0.25592  Biso   1.000  Cu
  Cu2      1.0000 0.83754  0.08262  0.75592  Biso   1.000  Cu
  Cu3      1.0000 0.33754  0.41738  0.24408  Biso   1.000  Cu
  Cu4      1.0000 0.16246  0.58262  0.74408  Biso   1.000  Cu
  Cu5      1.0000 0.25592  0.66246  0.91738  Biso   1.000  Cu
  Cu6      1.0000 0.75592  0.83754  0.08262  Biso   1.000  Cu
  Cu7      1.0000 0.24408  0.33754  0.41738  Biso   1.000  Cu
  Cu8      1.0000 0.74408  0.16246  0.58262  Biso   1.000  Cu
  Cu9      1.0000 0.91738  0.25592  0.66246  Biso   1.000  Cu
  Cu10     1.0000 0.08262  0.75592  0.83754  Biso   1.000  Cu
  Cu11     1.0000 0.41738  0.24408  0.33754  Biso   1.000  Cu
  Cu12     1.0000 0.58262  0.74408  0.16246  Biso   1.000  Cu
  O1       1.0000 0.61700  0.95420  0.31670  Biso   1.000  O
  O2       1.0000 0.88300  0.04580  0.81670  Biso   1.000  O
  O3       1.0000 0.38300  0.45420  0.18330  Biso   1.000  O
  O4       1.0000 0.11700  0.54580  0.68330  Biso   1.000  O
  O5       1.0000 0.31670  0.61700  0.95420  Biso   1.000  O
  O6       1.0000 0.81670  0.88300  0.04580  Biso   1.000  O
  O7       1.0000 0.18330  0.38300  0.45420  Biso   1.000  O
  O8       1.0000 0.68330  0.11700  0.54580  Biso   1.000  O
  O9       1.0000 0.95420  0.31670  0.61700  Biso   1.000  O
  O10      1.0000 0.04580  0.81670  0.88300  Biso   1.000  O
  O11      1.0000 0.45420  0.18330  0.38300  Biso   1.000  O
  O12      1.0000 0.54580  0.68330  0.11700  Biso   1.000  O
  O13      1.0000 0.39300  0.89980  0.40340  Biso   1.000  O
  O14      1.0000 0.10700  0.10020  0.90340  Biso   1.000  O
  O15      1.0000 0.60700  0.39980  0.09660  Biso   1.000  O
  O16      1.0000 0.89300  0.60020  0.59660  Biso   1.000  O
  O17      1.0000 0.40340  0.39300  0.89980  Biso   1.000  O
  O18      1.0000 0.90340  0.10700  0.10020  Biso   1.000  O
  O19      1.0000 0.09660  0.60700  0.39980  Biso   1.000  O
  O20      1.0000 0.59660  0.89300  0.60020  Biso   1.000  O
  O21      1.0000 0.89980  0.40340  0.39300  Biso   1.000  O
  O22      1.0000 0.10020  0.90340  0.10700  Biso   1.000  O
  O23      1.0000 0.39980  0.09660  0.60700  Biso   1.000  O
  O24      1.0000 0.60020  0.59660  0.89300  Biso   1.000  O
  H1       1.0000 0.37520  0.93200  0.41080  Biso   1.000  H
  H2       1.0000 0.12480  0.06800  0.91080  Biso   1.000  H
  H3       1.0000 0.62480  0.43200  0.08920  Biso   1.000  H
  H4       1.0000 0.87520  0.56800  0.58920  Biso   1.000  H
  H5       1.0000 0.41080  0.37520  0.93200  Biso   1.000  H
  H6       1.0000 0.91080  0.12480  0.06800  Biso   1.000  H
  H7       1.0000 0.08920  0.62480  0.43200  Biso   1.000  H
  H8       1.0000 0.58920  0.87520  0.56800  Biso   1.000  H
  H9       1.0000 0.93200  0.41080  0.37520  Biso   1.000  H
  H10      1.0000 0.06800  0.91080  0.12480  Biso   1.000  H
  H11      1.0000 0.43200  0.08920  0.62480  Biso   1.000  H
  H12      1.0000 0.56800  0.58920  0.87520  Biso   1.000  H
  N1       1.0000 0.62100  0.81300  0.19920  Biso   1.000  N
  N2       1.0000 0.87900  0.18700  0.69920  Biso   1.000  N
  N3       1.0000 0.37900  0.31300  0.30080  Biso   1.000  N
  N4       1.0000 0.12100  0.68700  0.80080  Biso   1.000  N
  N5       1.0000 0.19920  0.62100  0.81300  Biso   1.000  N
  N6       1.0000 0.69920  0.87900  0.18700  Biso   1.000  N
  N7       1.0000 0.30080  0.37900  0.31300  Biso   1.000  N
  N8       1.0000 0.80080  0.12100  0.68700  Biso   1.000  N
  N9       1.0000 0.81300  0.19920  0.62100  Biso   1.000  N
  N10      1.0000 0.18700  0.69920  0.87900  Biso   1.000  N
  N11      1.0000 0.31300  0.30080  0.37900  Biso   1.000  N
  N12      1.0000 0.68700  0.80080  0.12100  Biso   1.000  N
  N13      1.0000 0.60550  0.85410  0.24270  Biso   1.000  N
  N14      1.0000 0.89450  0.14590  0.74270  Biso   1.000  N
  N15      1.0000 0.39450  0.35410  0.25730  Biso   1.000  N
  N16      1.0000 0.10550  0.64590  0.75730  Biso   1.000  N
  N17      1.0000 0.24270  0.60550  0.85410  Biso   1.000  N
  N18      1.0000 0.74270  0.89450  0.14590  Biso   1.000  N
  N19      1.0000 0.25730  0.39450  0.35410  Biso   1.000  N
  N20      1.0000 0.75730  0.10550  0.64590  Biso   1.000  N
  N21      1.0000 0.85410  0.24270  0.60550  Biso   1.000  N
  N22      1.0000 0.14590  0.74270  0.89450  Biso   1.000  N
  N23      1.0000 0.35410  0.25730  0.39450  Biso   1.000  N
  N24      1.0000 0.64590  0.75730  0.10550  Biso   1.000  N
  C1       1.0000 0.67030  0.82970  0.17030  Biso   1.000  C
  C2       1.0000 0.82970  0.17030  0.67030  Biso   1.000  C
  C3       1.0000 0.32970  0.32970  0.32970  Biso   1.000  C
  C4       1.0000 0.17030  0.67030  0.82970  Biso   1.000  C
  C5       1.0000 0.55400  0.84700  0.27090  Biso   1.000  C
  C6       1.0000 0.94600  0.15300  0.77090  Biso   1.000  C
  C7       1.0000 0.44600  0.34700  0.22910  Biso   1.000  C
  C8       1.0000 0.05400  0.65300  0.72910  Biso   1.000  C
  C9       1.0000 0.27090  0.55400  0.84700  Biso   1.000  C
  C10      1.0000 0.77090  0.94600  0.15300  Biso   1.000  C
  C11      1.0000 0.22910  0.44600  0.34700  Biso   1.000  C
  C12      1.0000 0.72910  0.05400  0.65300  Biso   1.000  C
  C13      1.0000 0.84700  0.27090  0.55400  Biso   1.000  C
  C14      1.0000 0.15300  0.77090  0.94600  Biso   1.000  C
  C15      1.0000 0.34700  0.22910  0.44600  Biso   1.000  C
  C16      1.0000 0.65300  0.72910  0.05400  Biso   1.000  C
  H13      1.0000 0.53030  0.81330  0.26100  Biso   1.000  H
  H14      1.0000 0.96970  0.18670  0.76100  Biso   1.000  H
  H15      1.0000 0.46970  0.31330  0.23900  Biso   1.000  H
  H16      1.0000 0.03030  0.68670  0.73900  Biso   1.000  H
  H17      1.0000 0.26100  0.53030  0.81330  Biso   1.000  H
  H18      1.0000 0.76100  0.96970  0.18670  Biso   1.000  H
  H19      1.0000 0.23900  0.46970  0.31330  Biso   1.000  H
  H20      1.0000 0.73900  0.03030  0.68670  Biso   1.000  H
  H21      1.0000 0.81330  0.26100  0.53030  Biso   1.000  H
  H22      1.0000 0.18670  0.76100  0.96970  Biso   1.000  H
  H23      1.0000 0.31330  0.23900  0.46970  Biso   1.000  H
  H24      1.0000 0.68670  0.73900  0.03030  Biso   1.000  H
  C17      1.0000 0.53220  0.88690  0.31520  Biso   1.000  C
  C18      1.0000 0.96780  0.11310  0.81520  Biso   1.000  C
  C19      1.0000 0.46780  0.38690  0.18480  Biso   1.000  C
  C20      1.0000 0.03220  0.61310  0.68480  Biso   1.000  C
  C21      1.0000 0.31520  0.53220  0.88690  Biso   1.000  C
  C22      1.0000 0.81520  0.96780  0.11310  Biso   1.000  C
  C23      1.0000 0.18480  0.46780  0.38690  Biso   1.000  C
  C24      1.0000 0.68480  0.03220  0.61310  Biso   1.000  C
  C25      1.0000 0.88690  0.31520  0.53220  Biso   1.000  C
  C26      1.0000 0.11310  0.81520  0.96780  Biso   1.000  C
  C27      1.0000 0.38690  0.18480  0.46780  Biso   1.000  C
  C28      1.0000 0.61310  0.68480  0.03220  Biso   1.000  C
  C29      1.0000 0.56240  0.94040  0.33430  Biso   1.000  C
  C30      1.0000 0.93760  0.05960  0.83430  Biso   1.000  C
  C31      1.0000 0.43760  0.44040  0.16570  Biso   1.000  C
  C32      1.0000 0.06240  0.55960  0.66570  Biso   1.000  C
  C33      1.0000 0.33430  0.56240  0.94040  Biso   1.000  C
  C34      1.0000 0.83430  0.93760  0.05960  Biso   1.000  C
  C35      1.0000 0.16570  0.43760  0.44040  Biso   1.000  C
  C36      1.0000 0.66570  0.06240  0.55960  Biso   1.000  C
  C37      1.0000 0.94040  0.33430  0.56240  Biso   1.000  C
  C38      1.0000 0.05960  0.83430  0.93760  Biso   1.000  C
  C39      1.0000 0.44040  0.16570  0.43760  Biso   1.000  C
  C40      1.0000 0.55960  0.66570  0.06240  Biso   1.000  C
  C41      1.0000 0.53420  0.97630  0.37600  Biso   1.000  C
  C42      1.0000 0.96580  0.02370  0.87600  Biso   1.000  C
  C43      1.0000 0.46580  0.47630  0.12400  Biso   1.000  C
  C44      1.0000 0.03420  0.52370  0.62400  Biso   1.000  C
  C45      1.0000 0.37600  0.53420  0.97630  Biso   1.000  C
  C46      1.0000 0.87600  0.96580  0.02370  Biso   1.000  C
  C47      1.0000 0.12400  0.46580  0.47630  Biso   1.000  C
  C48      1.0000 0.62400  0.03420  0.52370  Biso   1.000  C
  C49      1.0000 0.97630  0.37600  0.53420  Biso   1.000  C
  C50      1.0000 0.02370  0.87600  0.96580  Biso   1.000  C
  C51      1.0000 0.47630  0.12400  0.46580  Biso   1.000  C
  C52      1.0000 0.52370  0.62400  0.03420  Biso   1.000  C
  H25      1.0000 0.55430  0.01090  0.39010  Biso   1.000  H
  H26      1.0000 0.94570  0.98910  0.89010  Biso   1.000  H
  H27      1.0000 0.44570  0.51090  0.10990  Biso   1.000  H
  H28      1.0000 0.05430  0.48910  0.60990  Biso   1.000  H
  H29      1.0000 0.39010  0.55430  0.01090  Biso   1.000  H
  H30      1.0000 0.89010  0.94570  0.98910  Biso   1.000  H
  H31      1.0000 0.10990  0.44570  0.51090  Biso   1.000  H
  H32      1.0000 0.60990  0.05430  0.48910  Biso   1.000  H
  H33      1.0000 0.01090  0.39010  0.55430  Biso   1.000  H
  H34      1.0000 0.98910  0.89010  0.94570  Biso   1.000  H
  H35      1.0000 0.51090  0.10990  0.44570  Biso   1.000  H
  H36      1.0000 0.48910  0.60990  0.05430  Biso   1.000  H
  C53      1.0000 0.47770  0.96370  0.39790  Biso   1.000  C
  C54      1.0000 0.02230  0.03630  0.89790  Biso   1.000  C
  C55      1.0000 0.52230  0.46370  0.10210  Biso   1.000  C
  C56      1.0000 0.97770  0.53630  0.60210  Biso   1.000  C
  C57      1.0000 0.39790  0.47770  0.96370  Biso   1.000  C
  C58      1.0000 0.89790  0.02230  0.03630  Biso   1.000  C
  C59      1.0000 0.10210  0.52230  0.46370  Biso   1.000  C
  C60      1.0000 0.60210  0.97770  0.53630  Biso   1.000  C
  C61      1.0000 0.96370  0.39790  0.47770  Biso   1.000  C
  C62      1.0000 0.03630  0.89790  0.02230  Biso   1.000  C
  C63      1.0000 0.46370  0.10210  0.52230  Biso   1.000  C
  C64      1.0000 0.53630  0.60210  0.97770  Biso   1.000  C
  H37      1.0000 0.45890  0.98990  0.42550  Biso   1.000  H
  H38      1.0000 0.04110  0.01010  0.92550  Biso   1.000  H
  H39      1.0000 0.54110  0.48990  0.07450  Biso   1.000  H
  H40      1.0000 0.95890  0.51010  0.57450  Biso   1.000  H
  H41      1.0000 0.42550  0.45890  0.98990  Biso   1.000  H
  H42      1.0000 0.92550  0.04110  0.01010  Biso   1.000  H
  H43      1.0000 0.07450  0.54110  0.48990  Biso   1.000  H
  H44      1.0000 0.57450  0.95890  0.51010  Biso   1.000  H
  H45      1.0000 0.98990  0.42550  0.45890  Biso   1.000  H
  H46      1.0000 0.01010  0.92550  0.04110  Biso   1.000  H
  H47      1.0000 0.48990  0.07450  0.54110  Biso   1.000  H
  H48      1.0000 0.51010  0.57450  0.95890  Biso   1.000  H
  C65      1.0000 0.44910  0.91220  0.37880  Biso   1.000  C
  C66      1.0000 0.05090  0.08780  0.87880  Biso   1.000  C
  C67      1.0000 0.55090  0.41220  0.12120  Biso   1.000  C
  C68      1.0000 0.94910  0.58780  0.62120  Biso   1.000  C
  C69      1.0000 0.37880  0.44910  0.91220  Biso   1.000  C
  C70      1.0000 0.87880  0.05090  0.08780  Biso   1.000  C
  C71      1.0000 0.12120  0.55090  0.41220  Biso   1.000  C
  C72      1.0000 0.62120  0.94910  0.58780  Biso   1.000  C
  C73      1.0000 0.91220  0.37880  0.44910  Biso   1.000  C
  C74      1.0000 0.08780  0.87880  0.05090  Biso   1.000  C
  C75      1.0000 0.41220  0.12120  0.55090  Biso   1.000  C
  C76      1.0000 0.58780  0.62120  0.94910  Biso   1.000  C
  C77      1.0000 0.47560  0.87590  0.33930  Biso   1.000  C
  C78      1.0000 0.02440  0.12410  0.83930  Biso   1.000  C
  C79      1.0000 0.52440  0.37590  0.16070  Biso   1.000  C
  C80      1.0000 0.97560  0.62410  0.66070  Biso   1.000  C
  C81      1.0000 0.33930  0.47560  0.87590  Biso   1.000  C
  C82      1.0000 0.83930  0.02440  0.12410  Biso   1.000  C
  C83      1.0000 0.16070  0.52440  0.37590  Biso   1.000  C
  C84      1.0000 0.66070  0.97560  0.62410  Biso   1.000  C
  C85      1.0000 0.87590  0.33930  0.47560  Biso   1.000  C
  C86      1.0000 0.12410  0.83930  0.02440  Biso   1.000  C
  C87      1.0000 0.37590  0.16070  0.52440  Biso   1.000  C
  C88      1.0000 0.62410  0.66070  0.97560  Biso   1.000  C
  H49      1.0000 0.45490  0.84090  0.32700  Biso   1.000  H
  H50      1.0000 0.04510  0.15910  0.82700  Biso   1.000  H
  H51      1.0000 0.54510  0.34090  0.17300  Biso   1.000  H
  H52      1.0000 0.95490  0.65910  0.67300  Biso   1.000  H
  H53      1.0000 0.32700  0.45490  0.84090  Biso   1.000  H
  H54      1.0000 0.82700  0.04510  0.15910  Biso   1.000  H
  H55      1.0000 0.17300  0.54510  0.34090  Biso   1.000  H
  H56      1.0000 0.67300  0.95490  0.65910  Biso   1.000  H
  H57      1.0000 0.84090  0.32700  0.45490  Biso   1.000  H
  H58      1.0000 0.15910  0.82700  0.04510  Biso   1.000  H
  H59      1.0000 0.34090  0.17300  0.54510  Biso   1.000  H
  H60      1.0000 0.65910  0.67300  0.95490  Biso   1.000  H
  Cu13     1.0000 0.66999  0.04081  0.29468  Biso   1.000  Cu
  Cu14     1.0000 0.83001  0.95919  0.79468  Biso   1.000  Cu
  Cu15     1.0000 0.33001  0.54081  0.20532  Biso   1.000  Cu
  Cu16     1.0000 0.16999  0.45919  0.70532  Biso   1.000  Cu
  Cu17     1.0000 0.29468  0.66999  0.04081  Biso   1.000  Cu
  Cu18     1.0000 0.79468  0.83001  0.95919  Biso   1.000  Cu
  Cu19     1.0000 0.20532  0.33001  0.54081  Biso   1.000  Cu
  Cu20     1.0000 0.70532  0.16999  0.45919  Biso   1.000  Cu
  Cu21     1.0000 0.04081  0.29468  0.66999  Biso   1.000  Cu
  Cu22     1.0000 0.95919  0.79468  0.83001  Biso   1.000  Cu
  Cu23     1.0000 0.54081  0.20532  0.33001  Biso   1.000  Cu
  Cu24     1.0000 0.45919  0.70532  0.16999  Biso   1.000  Cu
  O25      1.0000 0.72550  0.97450  0.28390  Biso   1.000  O
  O26      1.0000 0.77450  0.02550  0.78390  Biso   1.000  O
  O27      1.0000 0.27450  0.47450  0.21610  Biso   1.000  O
  O28      1.0000 0.22550  0.52550  0.71610  Biso   1.000  O
  O29      1.0000 0.28390  0.72550  0.97450  Biso   1.000  O
  O30      1.0000 0.78390  0.77450  0.02550  Biso   1.000  O
  O31      1.0000 0.21610  0.27450  0.47450  Biso   1.000  O
  O32      1.0000 0.71610  0.22550  0.52550  Biso   1.000  O
  O33      1.0000 0.97450  0.28390  0.72550  Biso   1.000  O
  O34      1.0000 0.02550  0.78390  0.77450  Biso   1.000  O
  O35      1.0000 0.47450  0.21610  0.27450  Biso   1.000  O
  O36      1.0000 0.52550  0.71610  0.22550  Biso   1.000  O
  O37      1.0000 0.90310  0.89530  0.43390  Biso   1.000  O
  O38      1.0000 0.59690  0.10470  0.93390  Biso   1.000  O
  O39      1.0000 0.09690  0.39530  0.06610  Biso   1.000  O
  O40      1.0000 0.40310  0.60470  0.56610  Biso   1.000  O
  O41      1.0000 0.43390  0.90310  0.89530  Biso   1.000  O
  O42      1.0000 0.93390  0.59690  0.10470  Biso   1.000  O
  O43      1.0000 0.06610  0.09690  0.39530  Biso   1.000  O
  O44      1.0000 0.56610  0.40310  0.60470  Biso   1.000  O
  O45      1.0000 0.89530  0.43390  0.90310  Biso   1.000  O
  O46      1.0000 0.10470  0.93390  0.59690  Biso   1.000  O
  O47      1.0000 0.39530  0.06610  0.09690  Biso   1.000  O
  O48      1.0000 0.60470  0.56610  0.40310  Biso   1.000  O
  H61      1.0000 0.90820  0.92070  0.46100  Biso   1.000  H
  H62      1.0000 0.59180  0.07930  0.96100  Biso   1.000  H
  H63      1.0000 0.09180  0.42070  0.03900  Biso   1.000  H
  H64      1.0000 0.40820  0.57930  0.53900  Biso   1.000  H
  H65      1.0000 0.46100  0.90820  0.92070  Biso   1.000  H
  H66      1.0000 0.96100  0.59180  0.07930  Biso   1.000  H
  H67      1.0000 0.03900  0.09180  0.42070  Biso   1.000  H
  H68      1.0000 0.53900  0.40820  0.57930  Biso   1.000  H
  H69      1.0000 0.92070  0.46100  0.90820  Biso   1.000  H
  H70      1.0000 0.07930  0.96100  0.59180  Biso   1.000  H
  H71      1.0000 0.42070  0.03900  0.09180  Biso   1.000  H
  H72      1.0000 0.57930  0.53900  0.40820  Biso   1.000  H
  N25      1.0000 0.68140  0.11450  0.39630  Biso   1.000  N
  N26      1.0000 0.81860  0.88550  0.89630  Biso   1.000  N
  N27      1.0000 0.31860  0.61450  0.10370  Biso   1.000  N
  N28      1.0000 0.18140  0.38550  0.60370  Biso   1.000  N
  N29      1.0000 0.39630  0.68140  0.11450  Biso   1.000  N
  N30      1.0000 0.89630  0.81860  0.88550  Biso   1.000  N
  N31      1.0000 0.10370  0.31860  0.61450  Biso   1.000  N
  N32      1.0000 0.60370  0.18140  0.38550  Biso   1.000  N
  N33      1.0000 0.11450  0.39630  0.68140  Biso   1.000  N
  N34      1.0000 0.88550  0.89630  0.81860  Biso   1.000  N
  N35      1.0000 0.61450  0.10370  0.31860  Biso   1.000  N
  N36      1.0000 0.38550  0.60370  0.18140  Biso   1.000  N
  N37      1.0000 0.70670  0.06410  0.37000  Biso   1.000  N
  N38      1.0000 0.79330  0.93590  0.87000  Biso   1.000  N
  N39      1.0000 0.29330  0.56410  0.13000  Biso   1.000  N
  N40      1.0000 0.20670  0.43590  0.63000  Biso   1.000  N
  N41      1.0000 0.37000  0.70670  0.06410  Biso   1.000  N
  N42      1.0000 0.87000  0.79330  0.93590  Biso   1.000  N
  N43      1.0000 0.13000  0.29330  0.56410  Biso   1.000  N
  N44      1.0000 0.63000  0.20670  0.43590  Biso   1.000  N
  N45      1.0000 0.06410  0.37000  0.70670  Biso   1.000  N
  N46      1.0000 0.93590  0.87000  0.79330  Biso   1.000  N
  N47      1.0000 0.56410  0.13000  0.29330  Biso   1.000  N
  N48      1.0000 0.43590  0.63000  0.20670  Biso   1.000  N
  C89      1.0000 0.63370  0.13370  0.36630  Biso   1.000  C
  C90      1.0000 0.86630  0.86630  0.86630  Biso   1.000  C
  C91      1.0000 0.36630  0.63370  0.13370  Biso   1.000  C
  C92      1.0000 0.13370  0.36630  0.63370  Biso   1.000  C
  C93      1.0000 0.75040  0.03800  0.39720  Biso   1.000  C
  C94      1.0000 0.74960  0.96200  0.89720  Biso   1.000  C
  C95      1.0000 0.24960  0.53800  0.10280  Biso   1.000  C
  C96      1.0000 0.25040  0.46200  0.60280  Biso   1.000  C
  C97      1.0000 0.39720  0.75040  0.03800  Biso   1.000  C
  C98      1.0000 0.89720  0.74960  0.96200  Biso   1.000  C
  C99      1.0000 0.10280  0.24960  0.53800  Biso   1.000  C
  C100     1.0000 0.60280  0.25040  0.46200  Biso   1.000  C
  C101     1.0000 0.03800  0.39720  0.75040  Biso   1.000  C
  C102     1.0000 0.96200  0.89720  0.74960  Biso   1.000  C
  C103     1.0000 0.53800  0.10280  0.24960  Biso   1.000  C
  C104     1.0000 0.46200  0.60280  0.25040  Biso   1.000  C
  H73      1.0000 0.76320  0.05410  0.43430  Biso   1.000  H
  H74      1.0000 0.73680  0.94590  0.93430  Biso   1.000  H
  H75      1.0000 0.23680  0.55410  0.06570  Biso   1.000  H
  H76      1.0000 0.26320  0.44590  0.56570  Biso   1.000  H
  H77      1.0000 0.43430  0.76320  0.05410  Biso   1.000  H
  H78      1.0000 0.93430  0.73680  0.94590  Biso   1.000  H
  H79      1.0000 0.06570  0.23680  0.55410  Biso   1.000  H
  H80      1.0000 0.56570  0.26320  0.44590  Biso   1.000  H
  H81      1.0000 0.05410  0.43430  0.76320  Biso   1.000  H
  H82      1.0000 0.94590  0.93430  0.73680  Biso   1.000  H
  H83      1.0000 0.55410  0.06570  0.23680  Biso   1.000  H
  H84      1.0000 0.44590  0.56570  0.26320  Biso   1.000  H
  C105     1.0000 0.78090  0.98620  0.37490  Biso   1.000  C
  C106     1.0000 0.71910  0.01380  0.87490  Biso   1.000  C
  C107     1.0000 0.21910  0.48620  0.12510  Biso   1.000  C
  C108     1.0000 0.28090  0.51380  0.62510  Biso   1.000  C
  C109     1.0000 0.37490  0.78090  0.98620  Biso   1.000  C
  C110     1.0000 0.87490  0.71910  0.01380  Biso   1.000  C
  C111     1.0000 0.12510  0.21910  0.48620  Biso   1.000  C
  C112     1.0000 0.62510  0.28090  0.51380  Biso   1.000  C
  C113     1.0000 0.98620  0.37490  0.78090  Biso   1.000  C
  C114     1.0000 0.01380  0.87490  0.71910  Biso   1.000  C
  C115     1.0000 0.48620  0.12510  0.21910  Biso   1.000  C
  C116     1.0000 0.51380  0.62510  0.28090  Biso   1.000  C
  C117     1.0000 0.76790  0.95720  0.32020  Biso   1.000  C
  C118     1.0000 0.73210  0.04280  0.82020  Biso   1.000  C
  C119     1.0000 0.23210  0.45720  0.17980  Biso   1.000  C
  C120     1.0000 0.26790  0.54280  0.67980  Biso   1.000  C
  C121     1.0000 0.32020  0.76790  0.95720  Biso   1.000  C
  C122     1.0000 0.82020  0.73210  0.04280  Biso   1.000  C
  C123     1.0000 0.17980  0.23210  0.45720  Biso   1.000  C
  C124     1.0000 0.67980  0.26790  0.54280  Biso   1.000  C
  C125     1.0000 0.95720  0.32020  0.76790  Biso   1.000  C
  C126     1.0000 0.04280  0.82020  0.73210  Biso   1.000  C
  C127     1.0000 0.45720  0.17980  0.23210  Biso   1.000  C
  C128     1.0000 0.54280  0.67980  0.26790  Biso   1.000  C
  C129     1.0000 0.80190  0.90620  0.30570  Biso   1.000  C
  C130     1.0000 0.69810  0.09380  0.80570  Biso   1.000  C
  C131     1.0000 0.19810  0.40620  0.19430  Biso   1.000  C
  C132     1.0000 0.30190  0.59380  0.69430  Biso   1.000  C
  C133     1.0000 0.30570  0.80190  0.90620  Biso   1.000  C
  C134     1.0000 0.80570  0.69810  0.09380  Biso   1.000  C
  C135     1.0000 0.19430  0.19810  0.40620  Biso   1.000  C
  C136     1.0000 0.69430  0.30190  0.59380  Biso   1.000  C
  C137     1.0000 0.90620  0.30570  0.80190  Biso   1.000  C
  C138     1.0000 0.09380  0.80570  0.69810  Biso   1.000  C
  C139     1.0000 0.40620  0.19430  0.19810  Biso   1.000  C
  C140     1.0000 0.59380  0.69430  0.30190  Biso   1.000  C
  H85      1.0000 0.79320  0.88530  0.26980  Biso   1.000  H
  H86      1.0000 0.70680  0.11470  0.76980  Biso   1.000  H
  H87      1.0000 0.20680  0.38530  0.23020  Biso   1.000  H
  H88      1.0000 0.29320  0.61470  0.73020  Biso   1.000  H
  H89      1.0000 0.26980  0.79320  0.88530  Biso   1.000  H
  H90      1.0000 0.76980  0.70680  0.11470  Biso   1.000  H
  H91      1.0000 0.23020  0.20680  0.38530  Biso   1.000  H
  H92      1.0000 0.73020  0.29320  0.61470  Biso   1.000  H
  H93      1.0000 0.88530  0.26980  0.79320  Biso   1.000  H
  H94      1.0000 0.11470  0.76980  0.70680  Biso   1.000  H
  H95      1.0000 0.38530  0.23020  0.20680  Biso   1.000  H
  H96      1.0000 0.61470  0.73020  0.29320  Biso   1.000  H
  C141     1.0000 0.84780  0.88550  0.34210  Biso   1.000  C
  C142     1.0000 0.65220  0.11450  0.84210  Biso   1.000  C
  C143     1.0000 0.15220  0.38550  0.15790  Biso   1.000  C
  C144     1.0000 0.34780  0.61450  0.65790  Biso   1.000  C
  C145     1.0000 0.34210  0.84780  0.88550  Biso   1.000  C
  C146     1.0000 0.84210  0.65220  0.11450  Biso   1.000  C
  C147     1.0000 0.15790  0.15220  0.38550  Biso   1.000  C
  C148     1.0000 0.65790  0.34780  0.61450  Biso   1.000  C
  C149     1.0000 0.88550  0.34210  0.84780  Biso   1.000  C
  C150     1.0000 0.11450  0.84210  0.65220  Biso   1.000  C
  C151     1.0000 0.38550  0.15790  0.15220  Biso   1.000  C
  C152     1.0000 0.61450  0.65790  0.34780  Biso   1.000  C
  H97      1.0000 0.86980  0.85100  0.33100  Biso   1.000  H
  H98      1.0000 0.63020  0.14900  0.83100  Biso   1.000  H
  H99      1.0000 0.13020  0.35100  0.16900  Biso   1.000  H
  H100     1.0000 0.36980  0.64900  0.66900  Biso   1.000  H
  H101     1.0000 0.33100  0.86980  0.85100  Biso   1.000  H
  H102     1.0000 0.83100  0.63020  0.14900  Biso   1.000  H
  H103     1.0000 0.16900  0.13020  0.35100  Biso   1.000  H
  H104     1.0000 0.66900  0.36980  0.64900  Biso   1.000  H
  H105     1.0000 0.85100  0.33100  0.86980  Biso   1.000  H
  H106     1.0000 0.14900  0.83100  0.63020  Biso   1.000  H
  H107     1.0000 0.35100  0.16900  0.13020  Biso   1.000  H
  H108     1.0000 0.64900  0.66900  0.36980  Biso   1.000  H
  C153     1.0000 0.86140  0.91540  0.39480  Biso   1.000  C
  C154     1.0000 0.63860  0.08460  0.89480  Biso   1.000  C
  C155     1.0000 0.13860  0.41540  0.10520  Biso   1.000  C
  C156     1.0000 0.36140  0.58460  0.60520  Biso   1.000  C
  C157     1.0000 0.39480  0.86140  0.91540  Biso   1.000  C
  C158     1.0000 0.89480  0.63860  0.08460  Biso   1.000  C
  C159     1.0000 0.10520  0.13860  0.41540  Biso   1.000  C
  C160     1.0000 0.60520  0.36140  0.58460  Biso   1.000  C
  C161     1.0000 0.91540  0.39480  0.86140  Biso   1.000  C
  C162     1.0000 0.08460  0.89480  0.63860  Biso   1.000  C
  C163     1.0000 0.41540  0.10520  0.13860  Biso   1.000  C
  C164     1.0000 0.58460  0.60520  0.36140  Biso   1.000  C
  C165     1.0000 0.82920  0.96590  0.41110  Biso   1.000  C
  C166     1.0000 0.67080  0.03410  0.91110  Biso   1.000  C
  C167     1.0000 0.17080  0.46590  0.08890  Biso   1.000  C
  C168     1.0000 0.32920  0.53410  0.58890  Biso   1.000  C
  C169     1.0000 0.41110  0.82920  0.96590  Biso   1.000  C
  C170     1.0000 0.91110  0.67080  0.03410  Biso   1.000  C
  C171     1.0000 0.08890  0.17080  0.46590  Biso   1.000  C
  C172     1.0000 0.58890  0.32920  0.53410  Biso   1.000  C
  C173     1.0000 0.96590  0.41110  0.82920  Biso   1.000  C
  C174     1.0000 0.03410  0.91110  0.67080  Biso   1.000  C
  C175     1.0000 0.46590  0.08890  0.17080  Biso   1.000  C
  C176     1.0000 0.53410  0.58890  0.32920  Biso   1.000  C
  H109     1.0000 0.83950  0.98710  0.44640  Biso   1.000  H
  H110     1.0000 0.66050  0.01290  0.94640  Biso   1.000  H
  H111     1.0000 0.16050  0.48710  0.05360  Biso   1.000  H
  H112     1.0000 0.33950  0.51290  0.55360  Biso   1.000  H
  H113     1.0000 0.44640  0.83950  0.98710  Biso   1.000  H
  H114     1.0000 0.94640  0.66050  0.01290  Biso   1.000  H
  H115     1.0000 0.05360  0.16050  0.48710  Biso   1.000  H
  H116     1.0000 0.55360  0.33950  0.51290  Biso   1.000  H
  H117     1.0000 0.98710  0.44640  0.83950  Biso   1.000  H
  H118     1.0000 0.01290  0.94640  0.66050  Biso   1.000  H
  H119     1.0000 0.48710  0.05360  0.16050  Biso   1.000  H
  H120     1.0000 0.51290  0.55360  0.33950  Biso   1.000  H
  O49      1.0000 0.65090  0.03110  0.20500  Biso   1.000  O
  O50      1.0000 0.84910  0.96890  0.70500  Biso   1.000  O
  O51      1.0000 0.34910  0.53110  0.29500  Biso   1.000  O
  O52      1.0000 0.15090  0.46890  0.79500  Biso   1.000  O
  O53      1.0000 0.20500  0.65090  0.03110  Biso   1.000  O
  O54      1.0000 0.70500  0.84910  0.96890  Biso   1.000  O
  O55      1.0000 0.29500  0.34910  0.53110  Biso   1.000  O
  O56      1.0000 0.79500  0.15090  0.46890  Biso   1.000  O
  O57      1.0000 0.03110  0.20500  0.65090  Biso   1.000  O
  O58      1.0000 0.96890  0.70500  0.84910  Biso   1.000  O
  O59      1.0000 0.53110  0.29500  0.34910  Biso   1.000  O
  O60      1.0000 0.46890  0.79500  0.15090  Biso   1.000  O
  C177     1.0000 0.67740  0.05820  0.17570  Biso   1.000  C
  C178     1.0000 0.82260  0.94180  0.67570  Biso   1.000  C
  C179     1.0000 0.32260  0.55820  0.32430  Biso   1.000  C
  C180     1.0000 0.17740  0.44180  0.82430  Biso   1.000  C
  C181     1.0000 0.17570  0.67740  0.05820  Biso   1.000  C
  C182     1.0000 0.67570  0.82260  0.94180  Biso   1.000  C
  C183     1.0000 0.32430  0.32260  0.55820  Biso   1.000  C
  C184     1.0000 0.82430  0.17740  0.44180  Biso   1.000  C
  C185     1.0000 0.05820  0.17570  0.67740  Biso   1.000  C
  C186     1.0000 0.94180  0.67570  0.82260  Biso   1.000  C
  C187     1.0000 0.55820  0.32430  0.32260  Biso   1.000  C
  C188     1.0000 0.44180  0.82430  0.17740  Biso   1.000  C
  H121     1.0000 0.67550  0.05420  0.13350  Biso   1.000  H
  H122     1.0000 0.82450  0.94580  0.63350  Biso   1.000  H
  H123     1.0000 0.32450  0.55420  0.36650  Biso   1.000  H
  H124     1.0000 0.17550  0.44580  0.86650  Biso   1.000  H
  H125     1.0000 0.13350  0.67550  0.05420  Biso   1.000  H
  H126     1.0000 0.63350  0.82450  0.94580  Biso   1.000  H
  H127     1.0000 0.36650  0.32450  0.55420  Biso   1.000  H
  H128     1.0000 0.86650  0.17550  0.44580  Biso   1.000  H
  H129     1.0000 0.05420  0.13350  0.67550  Biso   1.000  H
  H130     1.0000 0.94580  0.63350  0.82450  Biso   1.000  H
  H131     1.0000 0.55420  0.36650  0.32450  Biso   1.000  H
  H132     1.0000 0.44580  0.86650  0.17550  Biso   1.000  H
  O61      1.0000 0.70970  0.09390  0.19930  Biso   1.000  O
  O62      1.0000 0.79030  0.90610  0.69930  Biso   1.000  O
  O63      1.0000 0.29030  0.59390  0.30070  Biso   1.000  O
  O64      1.0000 0.20970  0.40610  0.80070  Biso   1.000  O
  O65      1.0000 0.19930  0.70970  0.09390  Biso   1.000  O
  O66      1.0000 0.69930  0.79030  0.90610  Biso   1.000  O
  O67      1.0000 0.30070  0.29030  0.59390  Biso   1.000  O
  O68      1.0000 0.80070  0.20970  0.40610  Biso   1.000  O
  O69      1.0000 0.09390  0.19930  0.70970  Biso   1.000  O
  O70      1.0000 0.90610  0.69930  0.79030  Biso   1.000  O
  O71      1.0000 0.59390  0.30070  0.29030  Biso   1.000  O
  O72      1.0000 0.40610  0.80070  0.20970  Biso   1.000  O
  H133     1.0000 0.70490  0.08720  0.18990  Biso   1.000  H
  H134     1.0000 0.79510  0.91280  0.68990  Biso   1.000  H
  H135     1.0000 0.29510  0.58720  0.31010  Biso   1.000  H
  H136     1.0000 0.20490  0.41280  0.81010  Biso   1.000  H
  H137     1.0000 0.18990  0.70490  0.08720  Biso   1.000  H
  H138     1.0000 0.68990  0.79510  0.91280  Biso   1.000  H
  H139     1.0000 0.31010  0.29510  0.58720  Biso   1.000  H
  H140     1.0000 0.81010  0.20490  0.41280  Biso   1.000  H
  H141     1.0000 0.08720  0.18990  0.70490  Biso   1.000  H
  H142     1.0000 0.91280  0.68990  0.79510  Biso   1.000  H
  H143     1.0000 0.58720  0.31010  0.29510  Biso   1.000  H
  H144     1.0000 0.41280  0.81010  0.20490  Biso   1.000  H
  N49      1.0000 0.66870  0.04780  0.11760  Biso   1.000  N
  N50      1.0000 0.83130  0.95220  0.61760  Biso   1.000  N
  N51      1.0000 0.33130  0.54780  0.38240  Biso   1.000  N
  N52      1.0000 0.16870  0.45220  0.88240  Biso   1.000  N
  N53      1.0000 0.11760  0.66870  0.04780  Biso   1.000  N
  N54      1.0000 0.61760  0.83130  0.95220  Biso   1.000  N
  N55      1.0000 0.38240  0.33130  0.54780  Biso   1.000  N
  N56      1.0000 0.88240  0.16870  0.45220  Biso   1.000  N
  N57      1.0000 0.04780  0.11760  0.66870  Biso   1.000  N
  N58      1.0000 0.95220  0.61760  0.83130  Biso   1.000  N
  N59      1.0000 0.54780  0.38240  0.33130  Biso   1.000  N
  N60      1.0000 0.45220  0.88240  0.16870  Biso   1.000  N
  C189     1.0000 0.63300  0.99500  0.10100  Biso   1.000  C
  C190     1.0000 0.86700  0.00500  0.60100  Biso   1.000  C
  C191     1.0000 0.36700  0.49500  0.39900  Biso   1.000  C
  C192     1.0000 0.13300  0.50500  0.89900  Biso   1.000  C
  C193     1.0000 0.10100  0.63300  0.99500  Biso   1.000  C
  C194     1.0000 0.60100  0.86700  0.00500  Biso   1.000  C
  C195     1.0000 0.39900  0.36700  0.49500  Biso   1.000  C
  C196     1.0000 0.89900  0.13300  0.50500  Biso   1.000  C
  C197     1.0000 0.99500  0.10100  0.63300  Biso   1.000  C
  C198     1.0000 0.00500  0.60100  0.86700  Biso   1.000  C
  C199     1.0000 0.49500  0.39900  0.36700  Biso   1.000  C
  C200     1.0000 0.50500  0.89900  0.13300  Biso   1.000  C
  H145     1.0000 0.63180  0.99120  0.05710  Biso   1.000  H
  H146     1.0000 0.86820  0.00880  0.55710  Biso   1.000  H
  H147     1.0000 0.36820  0.49120  0.44290  Biso   1.000  H
  H148     1.0000 0.13180  0.50880  0.94290  Biso   1.000  H
  H149     1.0000 0.05710  0.63180  0.99120  Biso   1.000  H
  H150     1.0000 0.55710  0.86820  0.00880  Biso   1.000  H
  H151     1.0000 0.44290  0.36820  0.49120  Biso   1.000  H
  H152     1.0000 0.94290  0.13180  0.50880  Biso   1.000  H
  H153     1.0000 0.99120  0.05710  0.63180  Biso   1.000  H
  H154     1.0000 0.00880  0.55710  0.86820  Biso   1.000  H
  H155     1.0000 0.49120  0.44290  0.36820  Biso   1.000  H
  H156     1.0000 0.50880  0.94290  0.13180  Biso   1.000  H
  H157     1.0000 0.59240  0.99880  0.11630  Biso   1.000  H
  H158     1.0000 0.90760  0.00120  0.61630  Biso   1.000  H
  H159     1.0000 0.40760  0.49880  0.38370  Biso   1.000  H
  H160     1.0000 0.09240  0.50120  0.88370  Biso   1.000  H
  H161     1.0000 0.11630  0.59240  0.99880  Biso   1.000  H
  H162     1.0000 0.61630  0.90760  0.00120  Biso   1.000  H
  H163     1.0000 0.38370  0.40760  0.49880  Biso   1.000  H
  H164     1.0000 0.88370  0.09240  0.50120  Biso   1.000  H
  H165     1.0000 0.99880  0.11630  0.59240  Biso   1.000  H
  H166     1.0000 0.00120  0.61630  0.90760  Biso   1.000  H
  H167     1.0000 0.49880  0.38370  0.40760  Biso   1.000  H
  H168     1.0000 0.50120  0.88370  0.09240  Biso   1.000  H
  H169     1.0000 0.65160  0.95880  0.11760  Biso   1.000  H
  H170     1.0000 0.84840  0.04120  0.61760  Biso   1.000  H
  H171     1.0000 0.34840  0.45880  0.38240  Biso   1.000  H
  H172     1.0000 0.15160  0.54120  0.88240  Biso   1.000  H
  H173     1.0000 0.11760  0.65160  0.95880  Biso   1.000  H
  H174     1.0000 0.61760  0.84840  0.04120  Biso   1.000  H
  H175     1.0000 0.38240  0.34840  0.45880  Biso   1.000  H
  H176     1.0000 0.88240  0.15160  0.54120  Biso   1.000  H
  H177     1.0000 0.95880  0.11760  0.65160  Biso   1.000  H
  H178     1.0000 0.04120  0.61760  0.84840  Biso   1.000  H
  H179     1.0000 0.45880  0.38240  0.34840  Biso   1.000  H
  H180     1.0000 0.54120  0.88240  0.15160  Biso   1.000  H
  C201     1.0000 0.70000  0.07800  0.07700  Biso   1.000  C
  C202     1.0000 0.80000  0.92200  0.57700  Biso   1.000  C
  C203     1.0000 0.30000  0.57800  0.42300  Biso   1.000  C
  C204     1.0000 0.20000  0.42200  0.92300  Biso   1.000  C
  C205     1.0000 0.07700  0.70000  0.07800  Biso   1.000  C
  C206     1.0000 0.57700  0.80000  0.92200  Biso   1.000  C
  C207     1.0000 0.42300  0.30000  0.57800  Biso   1.000  C
  C208     1.0000 0.92300  0.20000  0.42200  Biso   1.000  C
  C209     1.0000 0.07800  0.07700  0.70000  Biso   1.000  C
  C210     1.0000 0.92200  0.57700  0.80000  Biso   1.000  C
  C211     1.0000 0.57800  0.42300  0.30000  Biso   1.000  C
  C212     1.0000 0.42200  0.92300  0.20000  Biso   1.000  C
  H181     1.0000 0.68900  0.06430  0.03700  Biso   1.000  H
  H182     1.0000 0.81100  0.93570  0.53700  Biso   1.000  H
  H183     1.0000 0.31100  0.56430  0.46300  Biso   1.000  H
  H184     1.0000 0.18900  0.43570  0.96300  Biso   1.000  H
  H185     1.0000 0.03700  0.68900  0.06430  Biso   1.000  H
  H186     1.0000 0.53700  0.81100  0.93570  Biso   1.000  H
  H187     1.0000 0.46300  0.31100  0.56430  Biso   1.000  H
  H188     1.0000 0.96300  0.18900  0.43570  Biso   1.000  H
  H189     1.0000 0.06430  0.03700  0.68900  Biso   1.000  H
  H190     1.0000 0.93570  0.53700  0.81100  Biso   1.000  H
  H191     1.0000 0.56430  0.46300  0.31100  Biso   1.000  H
  H192     1.0000 0.43570  0.96300  0.18900  Biso   1.000  H
  H193     1.0000 0.74260  0.07180  0.08370  Biso   1.000  H
  H194     1.0000 0.75740  0.92820  0.58370  Biso   1.000  H
  H195     1.0000 0.25740  0.57180  0.41630  Biso   1.000  H
  H196     1.0000 0.24260  0.42820  0.91630  Biso   1.000  H
  H197     1.0000 0.08370  0.74260  0.07180  Biso   1.000  H
  H198     1.0000 0.58370  0.75740  0.92820  Biso   1.000  H
  H199     1.0000 0.41630  0.25740  0.57180  Biso   1.000  H
  H200     1.0000 0.91630  0.24260  0.42820  Biso   1.000  H
  H201     1.0000 0.07180  0.08370  0.74260  Biso   1.000  H
  H202     1.0000 0.92820  0.58370  0.75740  Biso   1.000  H
  H203     1.0000 0.57180  0.41630  0.25740  Biso   1.000  H
  H204     1.0000 0.42820  0.91630  0.24260  Biso   1.000  H
  H205     1.0000 0.69070  0.12080  0.08070  Biso   1.000  H
  H206     1.0000 0.80930  0.87920  0.58070  Biso   1.000  H
  H207     1.0000 0.30930  0.62080  0.41930  Biso   1.000  H
  H208     1.0000 0.19070  0.37920  0.91930  Biso   1.000  H
  H209     1.0000 0.08070  0.69070  0.12080  Biso   1.000  H
  H210     1.0000 0.58070  0.80930  0.87920  Biso   1.000  H
  H211     1.0000 0.41930  0.30930  0.62080  Biso   1.000  H
  H212     1.0000 0.91930  0.19070  0.37920  Biso   1.000  H
  H213     1.0000 0.12080  0.08070  0.69070  Biso   1.000  H
  H214     1.0000 0.87920  0.58070  0.80930  Biso   1.000  H
  H215     1.0000 0.62080  0.41930  0.30930  Biso   1.000  H
  H216     1.0000 0.37920  0.91930  0.19070  Biso   1.000  H
  O73      1.0000 0.64080  0.02210  0.21500  Biso   1.000  O
  O74      1.0000 0.85920  0.97790  0.71500  Biso   1.000  O
  O75      1.0000 0.35920  0.52210  0.28500  Biso   1.000  O
  O76      1.0000 0.14080  0.47790  0.78500  Biso   1.000  O
  O77      1.0000 0.21500  0.64080  0.02210  Biso   1.000  O
  O78      1.0000 0.71500  0.85920  0.97790  Biso   1.000  O
  O79      1.0000 0.28500  0.35920  0.52210  Biso   1.000  O
  O80      1.0000 0.78500  0.14080  0.47790  Biso   1.000  O
  O81      1.0000 0.02210  0.21500  0.64080  Biso   1.000  O
  O82      1.0000 0.97790  0.71500  0.85920  Biso   1.000  O
  O83      1.0000 0.52210  0.28500  0.35920  Biso   1.000  O
  O84      1.0000 0.47790  0.78500  0.14080  Biso   1.000  O
  O85      1.0000 0.75700  0.74300  0.25700  Biso   1.000  O
  O86      1.0000 0.74300  0.25700  0.75700  Biso   1.000  O
  O87      1.0000 0.24300  0.24300  0.24300  Biso   1.000  O
  O88      1.0000 0.25700  0.75700  0.74300  Biso   1.000  O
  O89      1.0000 0.72550  0.22550  0.27450  Biso   1.000  O
  O90      1.0000 0.77450  0.77450  0.77450  Biso   1.000  O
  O91      1.0000 0.27450  0.72550  0.22550  Biso   1.000  O
  O92      1.0000 0.22550  0.27450  0.72550  Biso   1.000  O
  O93      1.0000 0.71100  0.84400  0.43700  Biso   1.000  O
  O94      1.0000 0.78900  0.15600  0.93700  Biso   1.000  O
  O95      1.0000 0.28900  0.34400  0.06300  Biso   1.000  O
  O96      1.0000 0.21100  0.65600  0.56300  Biso   1.000  O
  O97      1.0000 0.43700  0.71100  0.84400  Biso   1.000  O
  O98      1.0000 0.93700  0.78900  0.15600  Biso   1.000  O
  O99      1.0000 0.06300  0.28900  0.34400  Biso   1.000  O
  O100     1.0000 0.56300  0.21100  0.65600  Biso   1.000  O
  O101     1.0000 0.84400  0.43700  0.71100  Biso   1.000  O
  O102     1.0000 0.15600  0.93700  0.78900  Biso   1.000  O
  O103     1.0000 0.34400  0.06300  0.28900  Biso   1.000  O
  O104     1.0000 0.65600  0.56300  0.21100  Biso   1.000  O
  O105     1.0000 0.39210  0.71230  0.34500  Biso   1.000  O
  O106     1.0000 0.10790  0.28770  0.84500  Biso   1.000  O
  O107     1.0000 0.60790  0.21230  0.15500  Biso   1.000  O
  O108     1.0000 0.89210  0.78770  0.65500  Biso   1.000  O
  O109     1.0000 0.34500  0.39210  0.71230  Biso   1.000  O
  O110     1.0000 0.84500  0.10790  0.28770  Biso   1.000  O
  O111     1.0000 0.15500  0.60790  0.21230  Biso   1.000  O
  O112     1.0000 0.65500  0.89210  0.78770  Biso   1.000  O
  O113     1.0000 0.71230  0.34500  0.39210  Biso   1.000  O
  O114     1.0000 0.28770  0.84500  0.10790  Biso   1.000  O
  O115     1.0000 0.21230  0.15500  0.60790  Biso   1.000  O
  O116     1.0000 0.78770  0.65500  0.89210  Biso   1.000  O
  O117     1.0000 0.32540  0.84810  0.31090  Biso   1.000  O
  O118     1.0000 0.17460  0.15190  0.81090  Biso   1.000  O
  O119     1.0000 0.67460  0.34810  0.18910  Biso   1.000  O
  O120     1.0000 0.82540  0.65190  0.68910  Biso   1.000  O
  O121     1.0000 0.31090  0.32540  0.84810  Biso   1.000  O
  O122     1.0000 0.81090  0.17460  0.15190  Biso   1.000  O
  O123     1.0000 0.18910  0.67460  0.34810  Biso   1.000  O
  O124     1.0000 0.68910  0.82540  0.65190  Biso   1.000  O
  O125     1.0000 0.84810  0.31090  0.32540  Biso   1.000  O
  O126     1.0000 0.15190  0.81090  0.17460  Biso   1.000  O
  O127     1.0000 0.34810  0.18910  0.67460  Biso   1.000  O
  O128     1.0000 0.65190  0.68910  0.82540  Biso   1.000  O
  O129     1.0000 0.97000  0.80800  0.37900  Biso   1.000  O
  O130     1.0000 0.53000  0.19200  0.87900  Biso   1.000  O
  O131     1.0000 0.03000  0.30800  0.12100  Biso   1.000  O
  O132     1.0000 0.47000  0.69200  0.62100  Biso   1.000  O
  O133     1.0000 0.37900  0.97000  0.80800  Biso   1.000  O
  O134     1.0000 0.87900  0.53000  0.19200  Biso   1.000  O
  O135     1.0000 0.12100  0.03000  0.30800  Biso   1.000  O
  O136     1.0000 0.62100  0.47000  0.69200  Biso   1.000  O
  O137     1.0000 0.80800  0.37900  0.97000  Biso   1.000  O
  O138     1.0000 0.19200  0.87900  0.53000  Biso   1.000  O
  O139     1.0000 0.30800  0.12100  0.03000  Biso   1.000  O
  O140     1.0000 0.69200  0.62100  0.47000  Biso   1.000  O
  O141     1.0000 0.68400  0.84300  0.38700  Biso   1.000  O
  O142     1.0000 0.81600  0.15700  0.88700  Biso   1.000  O
  O143     1.0000 0.31600  0.34300  0.11300  Biso   1.000  O
  O144     1.0000 0.18400  0.65700  0.61300  Biso   1.000  O
  O145     1.0000 0.38700  0.68400  0.84300  Biso   1.000  O
  O146     1.0000 0.88700  0.81600  0.15700  Biso   1.000  O
  O147     1.0000 0.11300  0.31600  0.34300  Biso   1.000  O
  O148     1.0000 0.61300  0.18400  0.65700  Biso   1.000  O
  O149     1.0000 0.84300  0.38700  0.68400  Biso   1.000  O
  O150     1.0000 0.15700  0.88700  0.81600  Biso   1.000  O
  O151     1.0000 0.34300  0.11300  0.31600  Biso   1.000  O
  O152     1.0000 0.65700  0.61300  0.18400  Biso   1.000  O
  O153     1.0000 0.65500  0.82500  0.43900  Biso   1.000  O
  O154     1.0000 0.84500  0.17500  0.93900  Biso   1.000  O
  O155     1.0000 0.34500  0.32500  0.06100  Biso   1.000  O
  O156     1.0000 0.15500  0.67500  0.56100  Biso   1.000  O
  O157     1.0000 0.43900  0.65500  0.82500  Biso   1.000  O
  O158     1.0000 0.93900  0.84500  0.17500  Biso   1.000  O
  O159     1.0000 0.06100  0.34500  0.32500  Biso   1.000  O
  O160     1.0000 0.56100  0.15500  0.67500  Biso   1.000  O
  O161     1.0000 0.82500  0.43900  0.65500  Biso   1.000  O
  O162     1.0000 0.17500  0.93900  0.84500  Biso   1.000  O
  O163     1.0000 0.32500  0.06100  0.34500  Biso   1.000  O
  O164     1.0000 0.67500  0.56100  0.15500  Biso   1.000  O
  O165     1.0000 0.69100  0.83340  0.34100  Biso   1.000  O
  O166     1.0000 0.80900  0.16660  0.84100  Biso   1.000  O
  O167     1.0000 0.30900  0.33340  0.15900  Biso   1.000  O
  O168     1.0000 0.19100  0.66660  0.65900  Biso   1.000  O
  O169     1.0000 0.34100  0.69100  0.83340  Biso   1.000  O
  O170     1.0000 0.84100  0.80900  0.16660  Biso   1.000  O
  O171     1.0000 0.15900  0.30900  0.33340  Biso   1.000  O
  O172     1.0000 0.65900  0.19100  0.66660  Biso   1.000  O
  O173     1.0000 0.83340  0.34100  0.69100  Biso   1.000  O
  O174     1.0000 0.16660  0.84100  0.80900  Biso   1.000  O
  O175     1.0000 0.33340  0.15900  0.30900  Biso   1.000  O
  O176     1.0000 0.66660  0.65900  0.19100  Biso   1.000  O
