data_image0
_cell_length_a       46.744
_cell_length_b       46.744
_cell_length_c       46.744
_cell_angle_alpha    90
_cell_angle_beta     90
_cell_angle_gamma    90

_symmetry_space_group_name_H-M    "P 1"
_symmetry_int_tables_number       1

loop_
  _symmetry_equiv_pos_as_xyz
  'x, y, z'

loop_
  _atom_site_label
  _atom_site_occupancy
  _atom_site_fract_x
  _atom_site_fract_y
  _atom_site_fract_z
  _atom_site_thermal_displace_type
  _atom_site_B_iso_or_equiv
  _atom_site_type_symbol
  Cu1      1.0000 0.50000  0.00000  0.22173  Biso   1.000  Cu
  Cu2      1.0000 0.50000  0.00000  0.77827  Biso   1.000  Cu
  Cu3      1.0000 0.22173  0.50000  0.00000  Biso   1.000  Cu
  Cu4      1.0000 0.77827  0.50000  0.00000  Biso   1.000  Cu
  Cu5      1.0000 0.00000  0.22173  0.50000  Biso   1.000  Cu
  Cu6      1.0000 0.00000  0.77827  0.50000  Biso   1.000  Cu
  Cu7      1.0000 0.00000  0.50000  0.77827  Biso   1.000  Cu
  Cu8      1.0000 0.00000  0.50000  0.22173  Biso   1.000  Cu
  Cu9      1.0000 0.50000  0.22173  0.00000  Biso   1.000  Cu
  Cu10     1.0000 0.50000  0.77827  0.00000  Biso   1.000  Cu
  Cu11     1.0000 0.22173  0.00000  0.50000  Biso   1.000  Cu
  Cu12     1.0000 0.77827  0.00000  0.50000  Biso   1.000  Cu
  Cu13     1.0000 0.00000  0.50000  0.72173  Biso   1.000  Cu
  Cu14     1.0000 0.00000  0.50000  0.27827  Biso   1.000  Cu
  Cu15     1.0000 0.72173  0.00000  0.50000  Biso   1.000  Cu
  Cu16     1.0000 0.27827  0.00000  0.50000  Biso   1.000  Cu
  Cu17     1.0000 0.50000  0.72173  0.00000  Biso   1.000  Cu
  Cu18     1.0000 0.50000  0.27827  0.00000  Biso   1.000  Cu
  Cu19     1.0000 0.50000  0.00000  0.27827  Biso   1.000  Cu
  Cu20     1.0000 0.50000  0.00000  0.72173  Biso   1.000  Cu
  Cu21     1.0000 0.00000  0.72173  0.50000  Biso   1.000  Cu
  Cu22     1.0000 0.00000  0.27827  0.50000  Biso   1.000  Cu
  Cu23     1.0000 0.72173  0.50000  0.00000  Biso   1.000  Cu
  Cu24     1.0000 0.27827  0.50000  0.00000  Biso   1.000  Cu
  O1       1.0000 0.47056  0.02941  0.22568  Biso   1.000  O
  O2       1.0000 0.52944  0.97059  0.22568  Biso   1.000  O
  O3       1.0000 0.52944  0.02941  0.77432  Biso   1.000  O
  O4       1.0000 0.47056  0.97059  0.77432  Biso   1.000  O
  O5       1.0000 0.22568  0.47056  0.02941  Biso   1.000  O
  O6       1.0000 0.22568  0.52944  0.97059  Biso   1.000  O
  O7       1.0000 0.77432  0.52944  0.02941  Biso   1.000  O
  O8       1.0000 0.77432  0.47056  0.97059  Biso   1.000  O
  O9       1.0000 0.02941  0.22568  0.47056  Biso   1.000  O
  O10      1.0000 0.97059  0.22568  0.52944  Biso   1.000  O
  O11      1.0000 0.02941  0.77432  0.52944  Biso   1.000  O
  O12      1.0000 0.97059  0.77432  0.47056  Biso   1.000  O
  O13      1.0000 0.02941  0.47056  0.77432  Biso   1.000  O
  O14      1.0000 0.97059  0.52944  0.77432  Biso   1.000  O
  O15      1.0000 0.02941  0.52944  0.22568  Biso   1.000  O
  O16      1.0000 0.97059  0.47056  0.22568  Biso   1.000  O
  O17      1.0000 0.47056  0.22568  0.97059  Biso   1.000  O
  O18      1.0000 0.52944  0.22568  0.02941  Biso   1.000  O
  O19      1.0000 0.52944  0.77432  0.97059  Biso   1.000  O
  O20      1.0000 0.47056  0.77432  0.02941  Biso   1.000  O
  O21      1.0000 0.22568  0.02941  0.52944  Biso   1.000  O
  O22      1.0000 0.22568  0.97059  0.47056  Biso   1.000  O
  O23      1.0000 0.77432  0.02941  0.47056  Biso   1.000  O
  O24      1.0000 0.77432  0.97059  0.52944  Biso   1.000  O
  O25      1.0000 0.97056  0.52941  0.72568  Biso   1.000  O
  O26      1.0000 0.02944  0.47059  0.72568  Biso   1.000  O
  O27      1.0000 0.02944  0.52941  0.27432  Biso   1.000  O
  O28      1.0000 0.97056  0.47059  0.27432  Biso   1.000  O
  O29      1.0000 0.72568  0.97056  0.52941  Biso   1.000  O
  O30      1.0000 0.72568  0.02944  0.47059  Biso   1.000  O
  O31      1.0000 0.27432  0.02944  0.52941  Biso   1.000  O
  O32      1.0000 0.27432  0.97056  0.47059  Biso   1.000  O
  O33      1.0000 0.52941  0.72568  0.97056  Biso   1.000  O
  O34      1.0000 0.47059  0.72568  0.02944  Biso   1.000  O
  O35      1.0000 0.52941  0.27432  0.02944  Biso   1.000  O
  O36      1.0000 0.47059  0.27432  0.97056  Biso   1.000  O
  O37      1.0000 0.52941  0.97056  0.27432  Biso   1.000  O
  O38      1.0000 0.47059  0.02944  0.27432  Biso   1.000  O
  O39      1.0000 0.52941  0.02944  0.72568  Biso   1.000  O
  O40      1.0000 0.47059  0.97056  0.72568  Biso   1.000  O
  O41      1.0000 0.97056  0.72568  0.47059  Biso   1.000  O
  O42      1.0000 0.02944  0.72568  0.52941  Biso   1.000  O
  O43      1.0000 0.02944  0.27432  0.47059  Biso   1.000  O
  O44      1.0000 0.97056  0.27432  0.52941  Biso   1.000  O
  O45      1.0000 0.72568  0.52941  0.02944  Biso   1.000  O
  O46      1.0000 0.72568  0.47059  0.97056  Biso   1.000  O
  O47      1.0000 0.27432  0.52941  0.97056  Biso   1.000  O
  O48      1.0000 0.27432  0.47059  0.02944  Biso   1.000  O
  O49      1.0000 0.52944  0.97059  0.77432  Biso   1.000  O
  O50      1.0000 0.47056  0.02941  0.77432  Biso   1.000  O
  O51      1.0000 0.47056  0.97059  0.22568  Biso   1.000  O
  O52      1.0000 0.52944  0.02941  0.22568  Biso   1.000  O
  O53      1.0000 0.77432  0.52944  0.97059  Biso   1.000  O
  O54      1.0000 0.77432  0.47056  0.02941  Biso   1.000  O
  O55      1.0000 0.22568  0.47056  0.97059  Biso   1.000  O
  O56      1.0000 0.22568  0.52944  0.02941  Biso   1.000  O
  O57      1.0000 0.97059  0.77432  0.52944  Biso   1.000  O
  O58      1.0000 0.02941  0.77432  0.47056  Biso   1.000  O
  O59      1.0000 0.97059  0.22568  0.47056  Biso   1.000  O
  O60      1.0000 0.02941  0.22568  0.52944  Biso   1.000  O
  O61      1.0000 0.97059  0.52944  0.22568  Biso   1.000  O
  O62      1.0000 0.02941  0.47056  0.22568  Biso   1.000  O
  O63      1.0000 0.97059  0.47056  0.77432  Biso   1.000  O
  O64      1.0000 0.02941  0.52944  0.77432  Biso   1.000  O
  O65      1.0000 0.52944  0.77432  0.02941  Biso   1.000  O
  O66      1.0000 0.47056  0.77432  0.97059  Biso   1.000  O
  O67      1.0000 0.47056  0.22568  0.02941  Biso   1.000  O
  O68      1.0000 0.52944  0.22568  0.97059  Biso   1.000  O
  O69      1.0000 0.77432  0.97059  0.47056  Biso   1.000  O
  O70      1.0000 0.77432  0.02941  0.52944  Biso   1.000  O
  O71      1.0000 0.22568  0.97059  0.52944  Biso   1.000  O
  O72      1.0000 0.22568  0.02941  0.47056  Biso   1.000  O
  O73      1.0000 0.02944  0.47059  0.27432  Biso   1.000  O
  O74      1.0000 0.97056  0.52941  0.27432  Biso   1.000  O
  O75      1.0000 0.97056  0.47059  0.72568  Biso   1.000  O
  O76      1.0000 0.02944  0.52941  0.72568  Biso   1.000  O
  O77      1.0000 0.27432  0.02944  0.47059  Biso   1.000  O
  O78      1.0000 0.27432  0.97056  0.52941  Biso   1.000  O
  O79      1.0000 0.72568  0.97056  0.47059  Biso   1.000  O
  O80      1.0000 0.72568  0.02944  0.52941  Biso   1.000  O
  O81      1.0000 0.47059  0.27432  0.02944  Biso   1.000  O
  O82      1.0000 0.52941  0.27432  0.97056  Biso   1.000  O
  O83      1.0000 0.47059  0.72568  0.97056  Biso   1.000  O
  O84      1.0000 0.52941  0.72568  0.02944  Biso   1.000  O
  O85      1.0000 0.47059  0.02944  0.72568  Biso   1.000  O
  O86      1.0000 0.52941  0.97056  0.72568  Biso   1.000  O
  O87      1.0000 0.47059  0.97056  0.27432  Biso   1.000  O
  O88      1.0000 0.52941  0.02944  0.27432  Biso   1.000  O
  O89      1.0000 0.02944  0.27432  0.52941  Biso   1.000  O
  O90      1.0000 0.97056  0.27432  0.47059  Biso   1.000  O
  O91      1.0000 0.97056  0.72568  0.52941  Biso   1.000  O
  O92      1.0000 0.02944  0.72568  0.47059  Biso   1.000  O
  O93      1.0000 0.27432  0.47059  0.97056  Biso   1.000  O
  O94      1.0000 0.27432  0.52941  0.02944  Biso   1.000  O
  O95      1.0000 0.72568  0.47059  0.02944  Biso   1.000  O
  O96      1.0000 0.72568  0.52941  0.97056  Biso   1.000  O
  O97      1.0000 0.50000  0.00000  0.17459  Biso   1.000  O
  O98      1.0000 0.50000  0.00000  0.82541  Biso   1.000  O
  O99      1.0000 0.17459  0.50000  0.00000  Biso   1.000  O
  O100     1.0000 0.82541  0.50000  0.00000  Biso   1.000  O
  O101     1.0000 0.00000  0.17459  0.50000  Biso   1.000  O
  O102     1.0000 0.00000  0.82541  0.50000  Biso   1.000  O
  O103     1.0000 0.00000  0.50000  0.82541  Biso   1.000  O
  O104     1.0000 0.00000  0.50000  0.17459  Biso   1.000  O
  O105     1.0000 0.50000  0.17459  0.00000  Biso   1.000  O
  O106     1.0000 0.50000  0.82541  0.00000  Biso   1.000  O
  O107     1.0000 0.17459  0.00000  0.50000  Biso   1.000  O
  O108     1.0000 0.82541  0.00000  0.50000  Biso   1.000  O
  O109     1.0000 0.00000  0.50000  0.67459  Biso   1.000  O
  O110     1.0000 0.00000  0.50000  0.32541  Biso   1.000  O
  O111     1.0000 0.67459  0.00000  0.50000  Biso   1.000  O
  O112     1.0000 0.32541  0.00000  0.50000  Biso   1.000  O
  O113     1.0000 0.50000  0.67459  0.00000  Biso   1.000  O
  O114     1.0000 0.50000  0.32541  0.00000  Biso   1.000  O
  O115     1.0000 0.50000  0.00000  0.32541  Biso   1.000  O
  O116     1.0000 0.50000  0.00000  0.67459  Biso   1.000  O
  O117     1.0000 0.00000  0.67459  0.50000  Biso   1.000  O
  O118     1.0000 0.00000  0.32541  0.50000  Biso   1.000  O
  O119     1.0000 0.67459  0.50000  0.00000  Biso   1.000  O
  O120     1.0000 0.32541  0.50000  0.00000  Biso   1.000  O
  C1       1.0000 0.46205  0.03795  0.25000  Biso   1.000  C
  C2       1.0000 0.53795  0.96205  0.25000  Biso   1.000  C
  C3       1.0000 0.53795  0.03795  0.75000  Biso   1.000  C
  C4       1.0000 0.46205  0.96205  0.75000  Biso   1.000  C
  C5       1.0000 0.25000  0.46205  0.03795  Biso   1.000  C
  C6       1.0000 0.25000  0.53795  0.96205  Biso   1.000  C
  C7       1.0000 0.75000  0.53795  0.03795  Biso   1.000  C
  C8       1.0000 0.75000  0.46205  0.96205  Biso   1.000  C
  C9       1.0000 0.03795  0.25000  0.46205  Biso   1.000  C
  C10      1.0000 0.96205  0.25000  0.53795  Biso   1.000  C
  C11      1.0000 0.03795  0.75000  0.53795  Biso   1.000  C
  C12      1.0000 0.96205  0.75000  0.46205  Biso   1.000  C
  C13      1.0000 0.03795  0.46205  0.75000  Biso   1.000  C
  C14      1.0000 0.96205  0.53795  0.75000  Biso   1.000  C
  C15      1.0000 0.03795  0.53795  0.25000  Biso   1.000  C
  C16      1.0000 0.96205  0.46205  0.25000  Biso   1.000  C
  C17      1.0000 0.46205  0.25000  0.96205  Biso   1.000  C
  C18      1.0000 0.53795  0.25000  0.03795  Biso   1.000  C
  C19      1.0000 0.53795  0.75000  0.96205  Biso   1.000  C
  C20      1.0000 0.46205  0.75000  0.03795  Biso   1.000  C
  C21      1.0000 0.25000  0.03795  0.53795  Biso   1.000  C
  C22      1.0000 0.25000  0.96205  0.46205  Biso   1.000  C
  C23      1.0000 0.75000  0.03795  0.46205  Biso   1.000  C
  C24      1.0000 0.75000  0.96205  0.53795  Biso   1.000  C
  C25      1.0000 0.53795  0.96205  0.75000  Biso   1.000  C
  C26      1.0000 0.46205  0.03795  0.75000  Biso   1.000  C
  C27      1.0000 0.46205  0.96205  0.25000  Biso   1.000  C
  C28      1.0000 0.53795  0.03795  0.25000  Biso   1.000  C
  C29      1.0000 0.75000  0.53795  0.96205  Biso   1.000  C
  C30      1.0000 0.75000  0.46205  0.03795  Biso   1.000  C
  C31      1.0000 0.25000  0.46205  0.96205  Biso   1.000  C
  C32      1.0000 0.25000  0.53795  0.03795  Biso   1.000  C
  C33      1.0000 0.96205  0.75000  0.53795  Biso   1.000  C
  C34      1.0000 0.03795  0.75000  0.46205  Biso   1.000  C
  C35      1.0000 0.96205  0.25000  0.46205  Biso   1.000  C
  C36      1.0000 0.03795  0.25000  0.53795  Biso   1.000  C
  C37      1.0000 0.96205  0.53795  0.25000  Biso   1.000  C
  C38      1.0000 0.03795  0.46205  0.25000  Biso   1.000  C
  C39      1.0000 0.96205  0.46205  0.75000  Biso   1.000  C
  C40      1.0000 0.03795  0.53795  0.75000  Biso   1.000  C
  C41      1.0000 0.53795  0.75000  0.03795  Biso   1.000  C
  C42      1.0000 0.46205  0.75000  0.96205  Biso   1.000  C
  C43      1.0000 0.46205  0.25000  0.03795  Biso   1.000  C
  C44      1.0000 0.53795  0.25000  0.96205  Biso   1.000  C
  C45      1.0000 0.75000  0.96205  0.46205  Biso   1.000  C
  C46      1.0000 0.75000  0.03795  0.53795  Biso   1.000  C
  C47      1.0000 0.25000  0.96205  0.53795  Biso   1.000  C
  C48      1.0000 0.25000  0.03795  0.46205  Biso   1.000  C
  C49      1.0000 0.43948  0.06052  0.25000  Biso   1.000  C
  C50      1.0000 0.56052  0.93948  0.25000  Biso   1.000  C
  C51      1.0000 0.56052  0.06052  0.75000  Biso   1.000  C
  C52      1.0000 0.43948  0.93948  0.75000  Biso   1.000  C
  C53      1.0000 0.25000  0.43948  0.06052  Biso   1.000  C
  C54      1.0000 0.25000  0.56052  0.93948  Biso   1.000  C
  C55      1.0000 0.75000  0.56052  0.06052  Biso   1.000  C
  C56      1.0000 0.75000  0.43948  0.93948  Biso   1.000  C
  C57      1.0000 0.06052  0.25000  0.43948  Biso   1.000  C
  C58      1.0000 0.93948  0.25000  0.56052  Biso   1.000  C
  C59      1.0000 0.06052  0.75000  0.56052  Biso   1.000  C
  C60      1.0000 0.93948  0.75000  0.43948  Biso   1.000  C
  C61      1.0000 0.06052  0.43948  0.75000  Biso   1.000  C
  C62      1.0000 0.93948  0.56052  0.75000  Biso   1.000  C
  C63      1.0000 0.06052  0.56052  0.25000  Biso   1.000  C
  C64      1.0000 0.93948  0.43948  0.25000  Biso   1.000  C
  C65      1.0000 0.43948  0.25000  0.93948  Biso   1.000  C
  C66      1.0000 0.56052  0.25000  0.06052  Biso   1.000  C
  C67      1.0000 0.56052  0.75000  0.93948  Biso   1.000  C
  C68      1.0000 0.43948  0.75000  0.06052  Biso   1.000  C
  C69      1.0000 0.25000  0.06052  0.56052  Biso   1.000  C
  C70      1.0000 0.25000  0.93948  0.43948  Biso   1.000  C
  C71      1.0000 0.75000  0.06052  0.43948  Biso   1.000  C
  C72      1.0000 0.75000  0.93948  0.56052  Biso   1.000  C
  C73      1.0000 0.56052  0.93948  0.75000  Biso   1.000  C
  C74      1.0000 0.43948  0.06052  0.75000  Biso   1.000  C
  C75      1.0000 0.43948  0.93948  0.25000  Biso   1.000  C
  C76      1.0000 0.56052  0.06052  0.25000  Biso   1.000  C
  C77      1.0000 0.75000  0.56052  0.93948  Biso   1.000  C
  C78      1.0000 0.75000  0.43948  0.06052  Biso   1.000  C
  C79      1.0000 0.25000  0.43948  0.93948  Biso   1.000  C
  C80      1.0000 0.25000  0.56052  0.06052  Biso   1.000  C
  C81      1.0000 0.93948  0.75000  0.56052  Biso   1.000  C
  C82      1.0000 0.06052  0.75000  0.43948  Biso   1.000  C
  C83      1.0000 0.93948  0.25000  0.43948  Biso   1.000  C
  C84      1.0000 0.06052  0.25000  0.56052  Biso   1.000  C
  C85      1.0000 0.93948  0.56052  0.25000  Biso   1.000  C
  C86      1.0000 0.06052  0.43948  0.25000  Biso   1.000  C
  C87      1.0000 0.93948  0.43948  0.75000  Biso   1.000  C
  C88      1.0000 0.06052  0.56052  0.75000  Biso   1.000  C
  C89      1.0000 0.56052  0.75000  0.06052  Biso   1.000  C
  C90      1.0000 0.43948  0.75000  0.93948  Biso   1.000  C
  C91      1.0000 0.43948  0.25000  0.06052  Biso   1.000  C
  C92      1.0000 0.56052  0.25000  0.93948  Biso   1.000  C
  C93      1.0000 0.75000  0.93948  0.43948  Biso   1.000  C
  C94      1.0000 0.75000  0.06052  0.56052  Biso   1.000  C
  C95      1.0000 0.25000  0.93948  0.56052  Biso   1.000  C
  C96      1.0000 0.25000  0.06052  0.43948  Biso   1.000  C
  C97      1.0000 0.42768  0.06995  0.22476  Biso   1.000  C
  C98      1.0000 0.57232  0.93005  0.22476  Biso   1.000  C
  C99      1.0000 0.57232  0.06995  0.77524  Biso   1.000  C
  C100     1.0000 0.42768  0.93005  0.77524  Biso   1.000  C
  C101     1.0000 0.22476  0.42768  0.06995  Biso   1.000  C
  C102     1.0000 0.22476  0.57232  0.93005  Biso   1.000  C
  C103     1.0000 0.77524  0.57232  0.06995  Biso   1.000  C
  C104     1.0000 0.77524  0.42768  0.93005  Biso   1.000  C
  C105     1.0000 0.06995  0.22476  0.42768  Biso   1.000  C
  C106     1.0000 0.93005  0.22476  0.57232  Biso   1.000  C
  C107     1.0000 0.06995  0.77524  0.57232  Biso   1.000  C
  C108     1.0000 0.93005  0.77524  0.42768  Biso   1.000  C
  C109     1.0000 0.06995  0.42768  0.77524  Biso   1.000  C
  C110     1.0000 0.93005  0.57232  0.77524  Biso   1.000  C
  C111     1.0000 0.06995  0.57232  0.22476  Biso   1.000  C
  C112     1.0000 0.93005  0.42768  0.22476  Biso   1.000  C
  C113     1.0000 0.42768  0.22476  0.93005  Biso   1.000  C
  C114     1.0000 0.57232  0.22476  0.06995  Biso   1.000  C
  C115     1.0000 0.57232  0.77524  0.93005  Biso   1.000  C
  C116     1.0000 0.42768  0.77524  0.06995  Biso   1.000  C
  C117     1.0000 0.22476  0.06995  0.57232  Biso   1.000  C
  C118     1.0000 0.22476  0.93005  0.42768  Biso   1.000  C
  C119     1.0000 0.77524  0.06995  0.42768  Biso   1.000  C
  C120     1.0000 0.77524  0.93005  0.57232  Biso   1.000  C
  C121     1.0000 0.92768  0.56995  0.72476  Biso   1.000  C
  C122     1.0000 0.07232  0.43005  0.72476  Biso   1.000  C
  C123     1.0000 0.07232  0.56995  0.27524  Biso   1.000  C
  C124     1.0000 0.92768  0.43005  0.27524  Biso   1.000  C
  C125     1.0000 0.72476  0.92768  0.56995  Biso   1.000  C
  C126     1.0000 0.72476  0.07232  0.43005  Biso   1.000  C
  C127     1.0000 0.27524  0.07232  0.56995  Biso   1.000  C
  C128     1.0000 0.27524  0.92768  0.43005  Biso   1.000  C
  C129     1.0000 0.56995  0.72476  0.92768  Biso   1.000  C
  C130     1.0000 0.43005  0.72476  0.07232  Biso   1.000  C
  C131     1.0000 0.56995  0.27524  0.07232  Biso   1.000  C
  C132     1.0000 0.43005  0.27524  0.92768  Biso   1.000  C
  C133     1.0000 0.56995  0.92768  0.27524  Biso   1.000  C
  C134     1.0000 0.43005  0.07232  0.27524  Biso   1.000  C
  C135     1.0000 0.56995  0.07232  0.72476  Biso   1.000  C
  C136     1.0000 0.43005  0.92768  0.72476  Biso   1.000  C
  C137     1.0000 0.92768  0.72476  0.43005  Biso   1.000  C
  C138     1.0000 0.07232  0.72476  0.56995  Biso   1.000  C
  C139     1.0000 0.07232  0.27524  0.43005  Biso   1.000  C
  C140     1.0000 0.92768  0.27524  0.56995  Biso   1.000  C
  C141     1.0000 0.72476  0.56995  0.07232  Biso   1.000  C
  C142     1.0000 0.72476  0.43005  0.92768  Biso   1.000  C
  C143     1.0000 0.27524  0.56995  0.92768  Biso   1.000  C
  C144     1.0000 0.27524  0.43005  0.07232  Biso   1.000  C
  C145     1.0000 0.57232  0.93005  0.77524  Biso   1.000  C
  C146     1.0000 0.42768  0.06995  0.77524  Biso   1.000  C
  C147     1.0000 0.42768  0.93005  0.22476  Biso   1.000  C
  C148     1.0000 0.57232  0.06995  0.22476  Biso   1.000  C
  C149     1.0000 0.77524  0.57232  0.93005  Biso   1.000  C
  C150     1.0000 0.77524  0.42768  0.06995  Biso   1.000  C
  C151     1.0000 0.22476  0.42768  0.93005  Biso   1.000  C
  C152     1.0000 0.22476  0.57232  0.06995  Biso   1.000  C
  C153     1.0000 0.93005  0.77524  0.57232  Biso   1.000  C
  C154     1.0000 0.06995  0.77524  0.42768  Biso   1.000  C
  C155     1.0000 0.93005  0.22476  0.42768  Biso   1.000  C
  C156     1.0000 0.06995  0.22476  0.57232  Biso   1.000  C
  C157     1.0000 0.93005  0.57232  0.22476  Biso   1.000  C
  C158     1.0000 0.06995  0.42768  0.22476  Biso   1.000  C
  C159     1.0000 0.93005  0.42768  0.77524  Biso   1.000  C
  C160     1.0000 0.06995  0.57232  0.77524  Biso   1.000  C
  C161     1.0000 0.57232  0.77524  0.06995  Biso   1.000  C
  C162     1.0000 0.42768  0.77524  0.93005  Biso   1.000  C
  C163     1.0000 0.42768  0.22476  0.06995  Biso   1.000  C
  C164     1.0000 0.57232  0.22476  0.93005  Biso   1.000  C
  C165     1.0000 0.77524  0.93005  0.42768  Biso   1.000  C
  C166     1.0000 0.77524  0.06995  0.57232  Biso   1.000  C
  C167     1.0000 0.22476  0.93005  0.57232  Biso   1.000  C
  C168     1.0000 0.22476  0.06995  0.42768  Biso   1.000  C
  C169     1.0000 0.07232  0.43005  0.27524  Biso   1.000  C
  C170     1.0000 0.92768  0.56995  0.27524  Biso   1.000  C
  C171     1.0000 0.92768  0.43005  0.72476  Biso   1.000  C
  C172     1.0000 0.07232  0.56995  0.72476  Biso   1.000  C
  C173     1.0000 0.27524  0.07232  0.43005  Biso   1.000  C
  C174     1.0000 0.27524  0.92768  0.56995  Biso   1.000  C
  C175     1.0000 0.72476  0.92768  0.43005  Biso   1.000  C
  C176     1.0000 0.72476  0.07232  0.56995  Biso   1.000  C
  C177     1.0000 0.43005  0.27524  0.07232  Biso   1.000  C
  C178     1.0000 0.56995  0.27524  0.92768  Biso   1.000  C
  C179     1.0000 0.43005  0.72476  0.92768  Biso   1.000  C
  C180     1.0000 0.56995  0.72476  0.07232  Biso   1.000  C
  C181     1.0000 0.43005  0.07232  0.72476  Biso   1.000  C
  C182     1.0000 0.56995  0.92768  0.72476  Biso   1.000  C
  C183     1.0000 0.43005  0.92768  0.27524  Biso   1.000  C
  C184     1.0000 0.56995  0.07232  0.27524  Biso   1.000  C
  C185     1.0000 0.07232  0.27524  0.56995  Biso   1.000  C
  C186     1.0000 0.92768  0.27524  0.43005  Biso   1.000  C
  C187     1.0000 0.92768  0.72476  0.56995  Biso   1.000  C
  C188     1.0000 0.07232  0.72476  0.43005  Biso   1.000  C
  C189     1.0000 0.27524  0.43005  0.92768  Biso   1.000  C
  C190     1.0000 0.27524  0.56995  0.07232  Biso   1.000  C
  C191     1.0000 0.72476  0.43005  0.07232  Biso   1.000  C
  C192     1.0000 0.72476  0.56995  0.92768  Biso   1.000  C
  H1       1.0000 0.43420  0.06240  0.20760  Biso   1.000  H
  H2       1.0000 0.56580  0.93760  0.20760  Biso   1.000  H
  H3       1.0000 0.56580  0.06240  0.79240  Biso   1.000  H
  H4       1.0000 0.43420  0.93760  0.79240  Biso   1.000  H
  H5       1.0000 0.20760  0.43420  0.06240  Biso   1.000  H
  H6       1.0000 0.20760  0.56580  0.93760  Biso   1.000  H
  H7       1.0000 0.79240  0.56580  0.06240  Biso   1.000  H
  H8       1.0000 0.79240  0.43420  0.93760  Biso   1.000  H
  H9       1.0000 0.06240  0.20760  0.43420  Biso   1.000  H
  H10      1.0000 0.93760  0.20760  0.56580  Biso   1.000  H
  H11      1.0000 0.06240  0.79240  0.56580  Biso   1.000  H
  H12      1.0000 0.93760  0.79240  0.43420  Biso   1.000  H
  H13      1.0000 0.06240  0.43420  0.79240  Biso   1.000  H
  H14      1.0000 0.93760  0.56580  0.79240  Biso   1.000  H
  H15      1.0000 0.06240  0.56580  0.20760  Biso   1.000  H
  H16      1.0000 0.93760  0.43420  0.20760  Biso   1.000  H
  H17      1.0000 0.43420  0.20760  0.93760  Biso   1.000  H
  H18      1.0000 0.56580  0.20760  0.06240  Biso   1.000  H
  H19      1.0000 0.56580  0.79240  0.93760  Biso   1.000  H
  H20      1.0000 0.43420  0.79240  0.06240  Biso   1.000  H
  H21      1.0000 0.20760  0.06240  0.56580  Biso   1.000  H
  H22      1.0000 0.20760  0.93760  0.43420  Biso   1.000  H
  H23      1.0000 0.79240  0.06240  0.43420  Biso   1.000  H
  H24      1.0000 0.79240  0.93760  0.56580  Biso   1.000  H
  H25      1.0000 0.93420  0.56240  0.70760  Biso   1.000  H
  H26      1.0000 0.06580  0.43760  0.70760  Biso   1.000  H
  H27      1.0000 0.06580  0.56240  0.29240  Biso   1.000  H
  H28      1.0000 0.93420  0.43760  0.29240  Biso   1.000  H
  H29      1.0000 0.70760  0.93420  0.56240  Biso   1.000  H
  H30      1.0000 0.70760  0.06580  0.43760  Biso   1.000  H
  H31      1.0000 0.29240  0.06580  0.56240  Biso   1.000  H
  H32      1.0000 0.29240  0.93420  0.43760  Biso   1.000  H
  H33      1.0000 0.56240  0.70760  0.93420  Biso   1.000  H
  H34      1.0000 0.43760  0.70760  0.06580  Biso   1.000  H
  H35      1.0000 0.56240  0.29240  0.06580  Biso   1.000  H
  H36      1.0000 0.43760  0.29240  0.93420  Biso   1.000  H
  H37      1.0000 0.56240  0.93420  0.29240  Biso   1.000  H
  H38      1.0000 0.43760  0.06580  0.29240  Biso   1.000  H
  H39      1.0000 0.56240  0.06580  0.70760  Biso   1.000  H
  H40      1.0000 0.43760  0.93420  0.70760  Biso   1.000  H
  H41      1.0000 0.93420  0.70760  0.43760  Biso   1.000  H
  H42      1.0000 0.06580  0.70760  0.56240  Biso   1.000  H
  H43      1.0000 0.06580  0.29240  0.43760  Biso   1.000  H
  H44      1.0000 0.93420  0.29240  0.56240  Biso   1.000  H
  H45      1.0000 0.70760  0.56240  0.06580  Biso   1.000  H
  H46      1.0000 0.70760  0.43760  0.93420  Biso   1.000  H
  H47      1.0000 0.29240  0.56240  0.93420  Biso   1.000  H
  H48      1.0000 0.29240  0.43760  0.06580  Biso   1.000  H
  H49      1.0000 0.56580  0.93760  0.79240  Biso   1.000  H
  H50      1.0000 0.43420  0.06240  0.79240  Biso   1.000  H
  H51      1.0000 0.43420  0.93760  0.20760  Biso   1.000  H
  H52      1.0000 0.56580  0.06240  0.20760  Biso   1.000  H
  H53      1.0000 0.79240  0.56580  0.93760  Biso   1.000  H
  H54      1.0000 0.79240  0.43420  0.06240  Biso   1.000  H
  H55      1.0000 0.20760  0.43420  0.93760  Biso   1.000  H
  H56      1.0000 0.20760  0.56580  0.06240  Biso   1.000  H
  H57      1.0000 0.93760  0.79240  0.56580  Biso   1.000  H
  H58      1.0000 0.06240  0.79240  0.43420  Biso   1.000  H
  H59      1.0000 0.93760  0.20760  0.43420  Biso   1.000  H
  H60      1.0000 0.06240  0.20760  0.56580  Biso   1.000  H
  H61      1.0000 0.93760  0.56580  0.20760  Biso   1.000  H
  H62      1.0000 0.06240  0.43420  0.20760  Biso   1.000  H
  H63      1.0000 0.93760  0.43420  0.79240  Biso   1.000  H
  H64      1.0000 0.06240  0.56580  0.79240  Biso   1.000  H
  H65      1.0000 0.56580  0.79240  0.06240  Biso   1.000  H
  H66      1.0000 0.43420  0.79240  0.93760  Biso   1.000  H
  H67      1.0000 0.43420  0.20760  0.06240  Biso   1.000  H
  H68      1.0000 0.56580  0.20760  0.93760  Biso   1.000  H
  H69      1.0000 0.79240  0.93760  0.43420  Biso   1.000  H
  H70      1.0000 0.79240  0.06240  0.56580  Biso   1.000  H
  H71      1.0000 0.20760  0.93760  0.56580  Biso   1.000  H
  H72      1.0000 0.20760  0.06240  0.43420  Biso   1.000  H
  H73      1.0000 0.06580  0.43760  0.29240  Biso   1.000  H
  H74      1.0000 0.93420  0.56240  0.29240  Biso   1.000  H
  H75      1.0000 0.93420  0.43760  0.70760  Biso   1.000  H
  H76      1.0000 0.06580  0.56240  0.70760  Biso   1.000  H
  H77      1.0000 0.29240  0.06580  0.43760  Biso   1.000  H
  H78      1.0000 0.29240  0.93420  0.56240  Biso   1.000  H
  H79      1.0000 0.70760  0.93420  0.43760  Biso   1.000  H
  H80      1.0000 0.70760  0.06580  0.56240  Biso   1.000  H
  H81      1.0000 0.43760  0.29240  0.06580  Biso   1.000  H
  H82      1.0000 0.56240  0.29240  0.93420  Biso   1.000  H
  H83      1.0000 0.43760  0.70760  0.93420  Biso   1.000  H
  H84      1.0000 0.56240  0.70760  0.06580  Biso   1.000  H
  H85      1.0000 0.43760  0.06580  0.70760  Biso   1.000  H
  H86      1.0000 0.56240  0.93420  0.70760  Biso   1.000  H
  H87      1.0000 0.43760  0.93420  0.29240  Biso   1.000  H
  H88      1.0000 0.56240  0.06580  0.29240  Biso   1.000  H
  H89      1.0000 0.06580  0.29240  0.56240  Biso   1.000  H
  H90      1.0000 0.93420  0.29240  0.43760  Biso   1.000  H
  H91      1.0000 0.93420  0.70760  0.56240  Biso   1.000  H
  H92      1.0000 0.06580  0.70760  0.43760  Biso   1.000  H
  H93      1.0000 0.29240  0.43760  0.93420  Biso   1.000  H
  H94      1.0000 0.29240  0.56240  0.06580  Biso   1.000  H
  H95      1.0000 0.70760  0.43760  0.06580  Biso   1.000  H
  H96      1.0000 0.70760  0.56240  0.93420  Biso   1.000  H
  C193     1.0000 0.40633  0.09031  0.22433  Biso   1.000  C
  C194     1.0000 0.59367  0.90969  0.22433  Biso   1.000  C
  C195     1.0000 0.59367  0.09031  0.77567  Biso   1.000  C
  C196     1.0000 0.40633  0.90969  0.77567  Biso   1.000  C
  C197     1.0000 0.22433  0.40633  0.09031  Biso   1.000  C
  C198     1.0000 0.22433  0.59367  0.90969  Biso   1.000  C
  C199     1.0000 0.77567  0.59367  0.09031  Biso   1.000  C
  C200     1.0000 0.77567  0.40633  0.90969  Biso   1.000  C
  C201     1.0000 0.09031  0.22433  0.40633  Biso   1.000  C
  C202     1.0000 0.90969  0.22433  0.59367  Biso   1.000  C
  C203     1.0000 0.09031  0.77567  0.59367  Biso   1.000  C
  C204     1.0000 0.90969  0.77567  0.40633  Biso   1.000  C
  C205     1.0000 0.09031  0.40633  0.77567  Biso   1.000  C
  C206     1.0000 0.90969  0.59367  0.77567  Biso   1.000  C
  C207     1.0000 0.09031  0.59367  0.22433  Biso   1.000  C
  C208     1.0000 0.90969  0.40633  0.22433  Biso   1.000  C
  C209     1.0000 0.40633  0.22433  0.90969  Biso   1.000  C
  C210     1.0000 0.59367  0.22433  0.09031  Biso   1.000  C
  C211     1.0000 0.59367  0.77567  0.90969  Biso   1.000  C
  C212     1.0000 0.40633  0.77567  0.09031  Biso   1.000  C
  C213     1.0000 0.22433  0.09031  0.59367  Biso   1.000  C
  C214     1.0000 0.22433  0.90969  0.40633  Biso   1.000  C
  C215     1.0000 0.77567  0.09031  0.40633  Biso   1.000  C
  C216     1.0000 0.77567  0.90969  0.59367  Biso   1.000  C
  C217     1.0000 0.90633  0.59031  0.72433  Biso   1.000  C
  C218     1.0000 0.09367  0.40969  0.72433  Biso   1.000  C
  C219     1.0000 0.09367  0.59031  0.27567  Biso   1.000  C
  C220     1.0000 0.90633  0.40969  0.27567  Biso   1.000  C
  C221     1.0000 0.72433  0.90633  0.59031  Biso   1.000  C
  C222     1.0000 0.72433  0.09367  0.40969  Biso   1.000  C
  C223     1.0000 0.27567  0.09367  0.59031  Biso   1.000  C
  C224     1.0000 0.27567  0.90633  0.40969  Biso   1.000  C
  C225     1.0000 0.59031  0.72433  0.90633  Biso   1.000  C
  C226     1.0000 0.40969  0.72433  0.09367  Biso   1.000  C
  C227     1.0000 0.59031  0.27567  0.09367  Biso   1.000  C
  C228     1.0000 0.40969  0.27567  0.90633  Biso   1.000  C
  C229     1.0000 0.59031  0.90633  0.27567  Biso   1.000  C
  C230     1.0000 0.40969  0.09367  0.27567  Biso   1.000  C
  C231     1.0000 0.59031  0.09367  0.72433  Biso   1.000  C
  C232     1.0000 0.40969  0.90633  0.72433  Biso   1.000  C
  C233     1.0000 0.90633  0.72433  0.40969  Biso   1.000  C
  C234     1.0000 0.09367  0.72433  0.59031  Biso   1.000  C
  C235     1.0000 0.09367  0.27567  0.40969  Biso   1.000  C
  C236     1.0000 0.90633  0.27567  0.59031  Biso   1.000  C
  C237     1.0000 0.72433  0.59031  0.09367  Biso   1.000  C
  C238     1.0000 0.72433  0.40969  0.90633  Biso   1.000  C
  C239     1.0000 0.27567  0.59031  0.90633  Biso   1.000  C
  C240     1.0000 0.27567  0.40969  0.09367  Biso   1.000  C
  C241     1.0000 0.59367  0.90969  0.77567  Biso   1.000  C
  C242     1.0000 0.40633  0.09031  0.77567  Biso   1.000  C
  C243     1.0000 0.40633  0.90969  0.22433  Biso   1.000  C
  C244     1.0000 0.59367  0.09031  0.22433  Biso   1.000  C
  C245     1.0000 0.77567  0.59367  0.90969  Biso   1.000  C
  C246     1.0000 0.77567  0.40633  0.09031  Biso   1.000  C
  C247     1.0000 0.22433  0.40633  0.90969  Biso   1.000  C
  C248     1.0000 0.22433  0.59367  0.09031  Biso   1.000  C
  C249     1.0000 0.90969  0.77567  0.59367  Biso   1.000  C
  C250     1.0000 0.09031  0.77567  0.40633  Biso   1.000  C
  C251     1.0000 0.90969  0.22433  0.40633  Biso   1.000  C
  C252     1.0000 0.09031  0.22433  0.59367  Biso   1.000  C
  C253     1.0000 0.90969  0.59367  0.22433  Biso   1.000  C
  C254     1.0000 0.09031  0.40633  0.22433  Biso   1.000  C
  C255     1.0000 0.90969  0.40633  0.77567  Biso   1.000  C
  C256     1.0000 0.09031  0.59367  0.77567  Biso   1.000  C
  C257     1.0000 0.59367  0.77567  0.09031  Biso   1.000  C
  C258     1.0000 0.40633  0.77567  0.90969  Biso   1.000  C
  C259     1.0000 0.40633  0.22433  0.09031  Biso   1.000  C
  C260     1.0000 0.59367  0.22433  0.90969  Biso   1.000  C
  C261     1.0000 0.77567  0.90969  0.40633  Biso   1.000  C
  C262     1.0000 0.77567  0.09031  0.59367  Biso   1.000  C
  C263     1.0000 0.22433  0.90969  0.59367  Biso   1.000  C
  C264     1.0000 0.22433  0.09031  0.40633  Biso   1.000  C
  C265     1.0000 0.09367  0.40969  0.27567  Biso   1.000  C
  C266     1.0000 0.90633  0.59031  0.27567  Biso   1.000  C
  C267     1.0000 0.90633  0.40969  0.72433  Biso   1.000  C
  C268     1.0000 0.09367  0.59031  0.72433  Biso   1.000  C
  C269     1.0000 0.27567  0.09367  0.40969  Biso   1.000  C
  C270     1.0000 0.27567  0.90633  0.59031  Biso   1.000  C
  C271     1.0000 0.72433  0.90633  0.40969  Biso   1.000  C
  C272     1.0000 0.72433  0.09367  0.59031  Biso   1.000  C
  C273     1.0000 0.40969  0.27567  0.09367  Biso   1.000  C
  C274     1.0000 0.59031  0.27567  0.90633  Biso   1.000  C
  C275     1.0000 0.40969  0.72433  0.90633  Biso   1.000  C
  C276     1.0000 0.59031  0.72433  0.09367  Biso   1.000  C
  C277     1.0000 0.40969  0.09367  0.72433  Biso   1.000  C
  C278     1.0000 0.59031  0.90633  0.72433  Biso   1.000  C
  C279     1.0000 0.40969  0.90633  0.27567  Biso   1.000  C
  C280     1.0000 0.59031  0.09367  0.27567  Biso   1.000  C
  C281     1.0000 0.09367  0.27567  0.59031  Biso   1.000  C
  C282     1.0000 0.90633  0.27567  0.40969  Biso   1.000  C
  C283     1.0000 0.90633  0.72433  0.59031  Biso   1.000  C
  C284     1.0000 0.09367  0.72433  0.40969  Biso   1.000  C
  C285     1.0000 0.27567  0.40969  0.90633  Biso   1.000  C
  C286     1.0000 0.27567  0.59031  0.09367  Biso   1.000  C
  C287     1.0000 0.72433  0.40969  0.09367  Biso   1.000  C
  C288     1.0000 0.72433  0.59031  0.90633  Biso   1.000  C
  H97      1.0000 0.39790  0.09590  0.20720  Biso   1.000  H
  H98      1.0000 0.60210  0.90410  0.20720  Biso   1.000  H
  H99      1.0000 0.60210  0.09590  0.79280  Biso   1.000  H
  H100     1.0000 0.39790  0.90410  0.79280  Biso   1.000  H
  H101     1.0000 0.20720  0.39790  0.09590  Biso   1.000  H
  H102     1.0000 0.20720  0.60210  0.90410  Biso   1.000  H
  H103     1.0000 0.79280  0.60210  0.09590  Biso   1.000  H
  H104     1.0000 0.79280  0.39790  0.90410  Biso   1.000  H
  H105     1.0000 0.09590  0.20720  0.39790  Biso   1.000  H
  H106     1.0000 0.90410  0.20720  0.60210  Biso   1.000  H
  H107     1.0000 0.09590  0.79280  0.60210  Biso   1.000  H
  H108     1.0000 0.90410  0.79280  0.39790  Biso   1.000  H
  H109     1.0000 0.09590  0.39790  0.79280  Biso   1.000  H
  H110     1.0000 0.90410  0.60210  0.79280  Biso   1.000  H
  H111     1.0000 0.09590  0.60210  0.20720  Biso   1.000  H
  H112     1.0000 0.90410  0.39790  0.20720  Biso   1.000  H
  H113     1.0000 0.39790  0.20720  0.90410  Biso   1.000  H
  H114     1.0000 0.60210  0.20720  0.09590  Biso   1.000  H
  H115     1.0000 0.60210  0.79280  0.90410  Biso   1.000  H
  H116     1.0000 0.39790  0.79280  0.09590  Biso   1.000  H
  H117     1.0000 0.20720  0.09590  0.60210  Biso   1.000  H
  H118     1.0000 0.20720  0.90410  0.39790  Biso   1.000  H
  H119     1.0000 0.79280  0.09590  0.39790  Biso   1.000  H
  H120     1.0000 0.79280  0.90410  0.60210  Biso   1.000  H
  H121     1.0000 0.89790  0.59590  0.70720  Biso   1.000  H
  H122     1.0000 0.10210  0.40410  0.70720  Biso   1.000  H
  H123     1.0000 0.10210  0.59590  0.29280  Biso   1.000  H
  H124     1.0000 0.89790  0.40410  0.29280  Biso   1.000  H
  H125     1.0000 0.70720  0.89790  0.59590  Biso   1.000  H
  H126     1.0000 0.70720  0.10210  0.40410  Biso   1.000  H
  H127     1.0000 0.29280  0.10210  0.59590  Biso   1.000  H
  H128     1.0000 0.29280  0.89790  0.40410  Biso   1.000  H
  H129     1.0000 0.59590  0.70720  0.89790  Biso   1.000  H
  H130     1.0000 0.40410  0.70720  0.10210  Biso   1.000  H
  H131     1.0000 0.59590  0.29280  0.10210  Biso   1.000  H
  H132     1.0000 0.40410  0.29280  0.89790  Biso   1.000  H
  H133     1.0000 0.59590  0.89790  0.29280  Biso   1.000  H
  H134     1.0000 0.40410  0.10210  0.29280  Biso   1.000  H
  H135     1.0000 0.59590  0.10210  0.70720  Biso   1.000  H
  H136     1.0000 0.40410  0.89790  0.70720  Biso   1.000  H
  H137     1.0000 0.89790  0.70720  0.40410  Biso   1.000  H
  H138     1.0000 0.10210  0.70720  0.59590  Biso   1.000  H
  H139     1.0000 0.10210  0.29280  0.40410  Biso   1.000  H
  H140     1.0000 0.89790  0.29280  0.59590  Biso   1.000  H
  H141     1.0000 0.70720  0.59590  0.10210  Biso   1.000  H
  H142     1.0000 0.70720  0.40410  0.89790  Biso   1.000  H
  H143     1.0000 0.29280  0.59590  0.89790  Biso   1.000  H
  H144     1.0000 0.29280  0.40410  0.10210  Biso   1.000  H
  H145     1.0000 0.60210  0.90410  0.79280  Biso   1.000  H
  H146     1.0000 0.39790  0.09590  0.79280  Biso   1.000  H
  H147     1.0000 0.39790  0.90410  0.20720  Biso   1.000  H
  H148     1.0000 0.60210  0.09590  0.20720  Biso   1.000  H
  H149     1.0000 0.79280  0.60210  0.90410  Biso   1.000  H
  H150     1.0000 0.79280  0.39790  0.09590  Biso   1.000  H
  H151     1.0000 0.20720  0.39790  0.90410  Biso   1.000  H
  H152     1.0000 0.20720  0.60210  0.09590  Biso   1.000  H
  H153     1.0000 0.90410  0.79280  0.60210  Biso   1.000  H
  H154     1.0000 0.09590  0.79280  0.39790  Biso   1.000  H
  H155     1.0000 0.90410  0.20720  0.39790  Biso   1.000  H
  H156     1.0000 0.09590  0.20720  0.60210  Biso   1.000  H
  H157     1.0000 0.90410  0.60210  0.20720  Biso   1.000  H
  H158     1.0000 0.09590  0.39790  0.20720  Biso   1.000  H
  H159     1.0000 0.90410  0.39790  0.79280  Biso   1.000  H
  H160     1.0000 0.09590  0.60210  0.79280  Biso   1.000  H
  H161     1.0000 0.60210  0.79280  0.09590  Biso   1.000  H
  H162     1.0000 0.39790  0.79280  0.90410  Biso   1.000  H
  H163     1.0000 0.39790  0.20720  0.09590  Biso   1.000  H
  H164     1.0000 0.60210  0.20720  0.90410  Biso   1.000  H
  H165     1.0000 0.79280  0.90410  0.39790  Biso   1.000  H
  H166     1.0000 0.79280  0.09590  0.60210  Biso   1.000  H
  H167     1.0000 0.20720  0.90410  0.60210  Biso   1.000  H
  H168     1.0000 0.20720  0.09590  0.39790  Biso   1.000  H
  H169     1.0000 0.10210  0.40410  0.29280  Biso   1.000  H
  H170     1.0000 0.89790  0.59590  0.29280  Biso   1.000  H
  H171     1.0000 0.89790  0.40410  0.70720  Biso   1.000  H
  H172     1.0000 0.10210  0.59590  0.70720  Biso   1.000  H
  H173     1.0000 0.29280  0.10210  0.40410  Biso   1.000  H
  H174     1.0000 0.29280  0.89790  0.59590  Biso   1.000  H
  H175     1.0000 0.70720  0.89790  0.40410  Biso   1.000  H
  H176     1.0000 0.70720  0.10210  0.59590  Biso   1.000  H
  H177     1.0000 0.40410  0.29280  0.10210  Biso   1.000  H
  H178     1.0000 0.59590  0.29280  0.89790  Biso   1.000  H
  H179     1.0000 0.40410  0.70720  0.89790  Biso   1.000  H
  H180     1.0000 0.59590  0.70720  0.10210  Biso   1.000  H
  H181     1.0000 0.40410  0.10210  0.70720  Biso   1.000  H
  H182     1.0000 0.59590  0.89790  0.70720  Biso   1.000  H
  H183     1.0000 0.40410  0.89790  0.29280  Biso   1.000  H
  H184     1.0000 0.59590  0.10210  0.29280  Biso   1.000  H
  H185     1.0000 0.10210  0.29280  0.59590  Biso   1.000  H
  H186     1.0000 0.89790  0.29280  0.40410  Biso   1.000  H
  H187     1.0000 0.89790  0.70720  0.59590  Biso   1.000  H
  H188     1.0000 0.10210  0.70720  0.40410  Biso   1.000  H
  H189     1.0000 0.29280  0.40410  0.89790  Biso   1.000  H
  H190     1.0000 0.29280  0.59590  0.10210  Biso   1.000  H
  H191     1.0000 0.70720  0.40410  0.10210  Biso   1.000  H
  H192     1.0000 0.70720  0.59590  0.89790  Biso   1.000  H
  C289     1.0000 0.39778  0.10222  0.25000  Biso   1.000  C
  C290     1.0000 0.60222  0.89778  0.25000  Biso   1.000  C
  C291     1.0000 0.60222  0.10222  0.75000  Biso   1.000  C
  C292     1.0000 0.39778  0.89778  0.75000  Biso   1.000  C
  C293     1.0000 0.25000  0.39778  0.10222  Biso   1.000  C
  C294     1.0000 0.25000  0.60222  0.89778  Biso   1.000  C
  C295     1.0000 0.75000  0.60222  0.10222  Biso   1.000  C
  C296     1.0000 0.75000  0.39778  0.89778  Biso   1.000  C
  C297     1.0000 0.10222  0.25000  0.39778  Biso   1.000  C
  C298     1.0000 0.89778  0.25000  0.60222  Biso   1.000  C
  C299     1.0000 0.10222  0.75000  0.60222  Biso   1.000  C
  C300     1.0000 0.89778  0.75000  0.39778  Biso   1.000  C
  C301     1.0000 0.10222  0.39778  0.75000  Biso   1.000  C
  C302     1.0000 0.89778  0.60222  0.75000  Biso   1.000  C
  C303     1.0000 0.10222  0.60222  0.25000  Biso   1.000  C
  C304     1.0000 0.89778  0.39778  0.25000  Biso   1.000  C
  C305     1.0000 0.39778  0.25000  0.89778  Biso   1.000  C
  C306     1.0000 0.60222  0.25000  0.10222  Biso   1.000  C
  C307     1.0000 0.60222  0.75000  0.89778  Biso   1.000  C
  C308     1.0000 0.39778  0.75000  0.10222  Biso   1.000  C
  C309     1.0000 0.25000  0.10222  0.60222  Biso   1.000  C
  C310     1.0000 0.25000  0.89778  0.39778  Biso   1.000  C
  C311     1.0000 0.75000  0.10222  0.39778  Biso   1.000  C
  C312     1.0000 0.75000  0.89778  0.60222  Biso   1.000  C
  C313     1.0000 0.60222  0.89778  0.75000  Biso   1.000  C
  C314     1.0000 0.39778  0.10222  0.75000  Biso   1.000  C
  C315     1.0000 0.39778  0.89778  0.25000  Biso   1.000  C
  C316     1.0000 0.60222  0.10222  0.25000  Biso   1.000  C
  C317     1.0000 0.75000  0.60222  0.89778  Biso   1.000  C
  C318     1.0000 0.75000  0.39778  0.10222  Biso   1.000  C
  C319     1.0000 0.25000  0.39778  0.89778  Biso   1.000  C
  C320     1.0000 0.25000  0.60222  0.10222  Biso   1.000  C
  C321     1.0000 0.89778  0.75000  0.60222  Biso   1.000  C
  C322     1.0000 0.10222  0.75000  0.39778  Biso   1.000  C
  C323     1.0000 0.89778  0.25000  0.39778  Biso   1.000  C
  C324     1.0000 0.10222  0.25000  0.60222  Biso   1.000  C
  C325     1.0000 0.89778  0.60222  0.25000  Biso   1.000  C
  C326     1.0000 0.10222  0.39778  0.25000  Biso   1.000  C
  C327     1.0000 0.89778  0.39778  0.75000  Biso   1.000  C
  C328     1.0000 0.10222  0.60222  0.75000  Biso   1.000  C
  C329     1.0000 0.60222  0.75000  0.10222  Biso   1.000  C
  C330     1.0000 0.39778  0.75000  0.89778  Biso   1.000  C
  C331     1.0000 0.39778  0.25000  0.10222  Biso   1.000  C
  C332     1.0000 0.60222  0.25000  0.89778  Biso   1.000  C
  C333     1.0000 0.75000  0.89778  0.39778  Biso   1.000  C
  C334     1.0000 0.75000  0.10222  0.60222  Biso   1.000  C
  C335     1.0000 0.25000  0.89778  0.60222  Biso   1.000  C
  C336     1.0000 0.25000  0.10222  0.39778  Biso   1.000  C
  C337     1.0000 0.37563  0.12437  0.25000  Biso   1.000  C
  C338     1.0000 0.62437  0.87563  0.25000  Biso   1.000  C
  C339     1.0000 0.62437  0.12437  0.75000  Biso   1.000  C
  C340     1.0000 0.37563  0.87563  0.75000  Biso   1.000  C
  C341     1.0000 0.25000  0.37563  0.12437  Biso   1.000  C
  C342     1.0000 0.25000  0.62437  0.87563  Biso   1.000  C
  C343     1.0000 0.75000  0.62437  0.12437  Biso   1.000  C
  C344     1.0000 0.75000  0.37563  0.87563  Biso   1.000  C
  C345     1.0000 0.12437  0.25000  0.37563  Biso   1.000  C
  C346     1.0000 0.87563  0.25000  0.62437  Biso   1.000  C
  C347     1.0000 0.12437  0.75000  0.62437  Biso   1.000  C
  C348     1.0000 0.87563  0.75000  0.37563  Biso   1.000  C
  C349     1.0000 0.12437  0.37563  0.75000  Biso   1.000  C
  C350     1.0000 0.87563  0.62437  0.75000  Biso   1.000  C
  C351     1.0000 0.12437  0.62437  0.25000  Biso   1.000  C
  C352     1.0000 0.87563  0.37563  0.25000  Biso   1.000  C
  C353     1.0000 0.37563  0.25000  0.87563  Biso   1.000  C
  C354     1.0000 0.62437  0.25000  0.12437  Biso   1.000  C
  C355     1.0000 0.62437  0.75000  0.87563  Biso   1.000  C
  C356     1.0000 0.37563  0.75000  0.12437  Biso   1.000  C
  C357     1.0000 0.25000  0.12437  0.62437  Biso   1.000  C
  C358     1.0000 0.25000  0.87563  0.37563  Biso   1.000  C
  C359     1.0000 0.75000  0.12437  0.37563  Biso   1.000  C
  C360     1.0000 0.75000  0.87563  0.62437  Biso   1.000  C
  C361     1.0000 0.62437  0.87563  0.75000  Biso   1.000  C
  C362     1.0000 0.37563  0.12437  0.75000  Biso   1.000  C
  C363     1.0000 0.37563  0.87563  0.25000  Biso   1.000  C
  C364     1.0000 0.62437  0.12437  0.25000  Biso   1.000  C
  C365     1.0000 0.75000  0.62437  0.87563  Biso   1.000  C
  C366     1.0000 0.75000  0.37563  0.12437  Biso   1.000  C
  C367     1.0000 0.25000  0.37563  0.87563  Biso   1.000  C
  C368     1.0000 0.25000  0.62437  0.12437  Biso   1.000  C
  C369     1.0000 0.87563  0.75000  0.62437  Biso   1.000  C
  C370     1.0000 0.12437  0.75000  0.37563  Biso   1.000  C
  C371     1.0000 0.87563  0.25000  0.37563  Biso   1.000  C
  C372     1.0000 0.12437  0.25000  0.62437  Biso   1.000  C
  C373     1.0000 0.87563  0.62437  0.25000  Biso   1.000  C
  C374     1.0000 0.12437  0.37563  0.25000  Biso   1.000  C
  C375     1.0000 0.87563  0.37563  0.75000  Biso   1.000  C
  C376     1.0000 0.12437  0.62437  0.75000  Biso   1.000  C
  C377     1.0000 0.62437  0.75000  0.12437  Biso   1.000  C
  C378     1.0000 0.37563  0.75000  0.87563  Biso   1.000  C
  C379     1.0000 0.37563  0.25000  0.12437  Biso   1.000  C
  C380     1.0000 0.62437  0.25000  0.87563  Biso   1.000  C
  C381     1.0000 0.75000  0.87563  0.37563  Biso   1.000  C
  C382     1.0000 0.75000  0.12437  0.62437  Biso   1.000  C
  C383     1.0000 0.25000  0.87563  0.62437  Biso   1.000  C
  C384     1.0000 0.25000  0.12437  0.37563  Biso   1.000  C
  C385     1.0000 0.35752  0.14248  0.25000  Biso   1.000  C
  C386     1.0000 0.64248  0.85752  0.25000  Biso   1.000  C
  C387     1.0000 0.64248  0.14248  0.75000  Biso   1.000  C
  C388     1.0000 0.35752  0.85752  0.75000  Biso   1.000  C
  C389     1.0000 0.25000  0.35752  0.14248  Biso   1.000  C
  C390     1.0000 0.25000  0.64248  0.85752  Biso   1.000  C
  C391     1.0000 0.75000  0.64248  0.14248  Biso   1.000  C
  C392     1.0000 0.75000  0.35752  0.85752  Biso   1.000  C
  C393     1.0000 0.14248  0.25000  0.35752  Biso   1.000  C
  C394     1.0000 0.85752  0.25000  0.64248  Biso   1.000  C
  C395     1.0000 0.14248  0.75000  0.64248  Biso   1.000  C
  C396     1.0000 0.85752  0.75000  0.35752  Biso   1.000  C
  C397     1.0000 0.14248  0.35752  0.75000  Biso   1.000  C
  C398     1.0000 0.85752  0.64248  0.75000  Biso   1.000  C
  C399     1.0000 0.14248  0.64248  0.25000  Biso   1.000  C
  C400     1.0000 0.85752  0.35752  0.25000  Biso   1.000  C
  C401     1.0000 0.35752  0.25000  0.85752  Biso   1.000  C
  C402     1.0000 0.64248  0.25000  0.14248  Biso   1.000  C
  C403     1.0000 0.64248  0.75000  0.85752  Biso   1.000  C
  C404     1.0000 0.35752  0.75000  0.14248  Biso   1.000  C
  C405     1.0000 0.25000  0.14248  0.64248  Biso   1.000  C
  C406     1.0000 0.25000  0.85752  0.35752  Biso   1.000  C
  C407     1.0000 0.75000  0.14248  0.35752  Biso   1.000  C
  C408     1.0000 0.75000  0.85752  0.64248  Biso   1.000  C
  C409     1.0000 0.64248  0.85752  0.75000  Biso   1.000  C
  C410     1.0000 0.35752  0.14248  0.75000  Biso   1.000  C
  C411     1.0000 0.35752  0.85752  0.25000  Biso   1.000  C
  C412     1.0000 0.64248  0.14248  0.25000  Biso   1.000  C
  C413     1.0000 0.75000  0.64248  0.85752  Biso   1.000  C
  C414     1.0000 0.75000  0.35752  0.14248  Biso   1.000  C
  C415     1.0000 0.25000  0.35752  0.85752  Biso   1.000  C
  C416     1.0000 0.25000  0.64248  0.14248  Biso   1.000  C
  C417     1.0000 0.85752  0.75000  0.64248  Biso   1.000  C
  C418     1.0000 0.14248  0.75000  0.35752  Biso   1.000  C
  C419     1.0000 0.85752  0.25000  0.35752  Biso   1.000  C
  C420     1.0000 0.14248  0.25000  0.64248  Biso   1.000  C
  C421     1.0000 0.85752  0.64248  0.25000  Biso   1.000  C
  C422     1.0000 0.14248  0.35752  0.25000  Biso   1.000  C
  C423     1.0000 0.85752  0.35752  0.75000  Biso   1.000  C
  C424     1.0000 0.14248  0.64248  0.75000  Biso   1.000  C
  C425     1.0000 0.64248  0.75000  0.14248  Biso   1.000  C
  C426     1.0000 0.35752  0.75000  0.85752  Biso   1.000  C
  C427     1.0000 0.35752  0.25000  0.14248  Biso   1.000  C
  C428     1.0000 0.64248  0.25000  0.85752  Biso   1.000  C
  C429     1.0000 0.75000  0.85752  0.35752  Biso   1.000  C
  C430     1.0000 0.75000  0.14248  0.64248  Biso   1.000  C
  C431     1.0000 0.25000  0.85752  0.64248  Biso   1.000  C
  C432     1.0000 0.25000  0.14248  0.35752  Biso   1.000  C
  C433     1.0000 0.33606  0.16394  0.25000  Biso   1.000  C
  C434     1.0000 0.66394  0.83606  0.25000  Biso   1.000  C
  C435     1.0000 0.66394  0.16394  0.75000  Biso   1.000  C
  C436     1.0000 0.33606  0.83606  0.75000  Biso   1.000  C
  C437     1.0000 0.25000  0.33606  0.16394  Biso   1.000  C
  C438     1.0000 0.25000  0.66394  0.83606  Biso   1.000  C
  C439     1.0000 0.75000  0.66394  0.16394  Biso   1.000  C
  C440     1.0000 0.75000  0.33606  0.83606  Biso   1.000  C
  C441     1.0000 0.16394  0.25000  0.33606  Biso   1.000  C
  C442     1.0000 0.83606  0.25000  0.66394  Biso   1.000  C
  C443     1.0000 0.16394  0.75000  0.66394  Biso   1.000  C
  C444     1.0000 0.83606  0.75000  0.33606  Biso   1.000  C
  C445     1.0000 0.16394  0.33606  0.75000  Biso   1.000  C
  C446     1.0000 0.83606  0.66394  0.75000  Biso   1.000  C
  C447     1.0000 0.16394  0.66394  0.25000  Biso   1.000  C
  C448     1.0000 0.83606  0.33606  0.25000  Biso   1.000  C
  C449     1.0000 0.33606  0.25000  0.83606  Biso   1.000  C
  C450     1.0000 0.66394  0.25000  0.16394  Biso   1.000  C
  C451     1.0000 0.66394  0.75000  0.83606  Biso   1.000  C
  C452     1.0000 0.33606  0.75000  0.16394  Biso   1.000  C
  C453     1.0000 0.25000  0.16394  0.66394  Biso   1.000  C
  C454     1.0000 0.25000  0.83606  0.33606  Biso   1.000  C
  C455     1.0000 0.75000  0.16394  0.33606  Biso   1.000  C
  C456     1.0000 0.75000  0.83606  0.66394  Biso   1.000  C
  C457     1.0000 0.66394  0.83606  0.75000  Biso   1.000  C
  C458     1.0000 0.33606  0.16394  0.75000  Biso   1.000  C
  C459     1.0000 0.33606  0.83606  0.25000  Biso   1.000  C
  C460     1.0000 0.66394  0.16394  0.25000  Biso   1.000  C
  C461     1.0000 0.75000  0.66394  0.83606  Biso   1.000  C
  C462     1.0000 0.75000  0.33606  0.16394  Biso   1.000  C
  C463     1.0000 0.25000  0.33606  0.83606  Biso   1.000  C
  C464     1.0000 0.25000  0.66394  0.16394  Biso   1.000  C
  C465     1.0000 0.83606  0.75000  0.66394  Biso   1.000  C
  C466     1.0000 0.16394  0.75000  0.33606  Biso   1.000  C
  C467     1.0000 0.83606  0.25000  0.33606  Biso   1.000  C
  C468     1.0000 0.16394  0.25000  0.66394  Biso   1.000  C
  C469     1.0000 0.83606  0.66394  0.25000  Biso   1.000  C
  C470     1.0000 0.16394  0.33606  0.25000  Biso   1.000  C
  C471     1.0000 0.83606  0.33606  0.75000  Biso   1.000  C
  C472     1.0000 0.16394  0.66394  0.75000  Biso   1.000  C
  C473     1.0000 0.66394  0.75000  0.16394  Biso   1.000  C
  C474     1.0000 0.33606  0.75000  0.83606  Biso   1.000  C
  C475     1.0000 0.33606  0.25000  0.16394  Biso   1.000  C
  C476     1.0000 0.66394  0.25000  0.83606  Biso   1.000  C
  C477     1.0000 0.75000  0.83606  0.33606  Biso   1.000  C
  C478     1.0000 0.75000  0.16394  0.66394  Biso   1.000  C
  C479     1.0000 0.25000  0.83606  0.66394  Biso   1.000  C
  C480     1.0000 0.25000  0.16394  0.33606  Biso   1.000  C
  C481     1.0000 0.31172  0.15987  0.23580  Biso   1.000  C
  C482     1.0000 0.68828  0.84013  0.23580  Biso   1.000  C
  C483     1.0000 0.68828  0.15987  0.76420  Biso   1.000  C
  C484     1.0000 0.31172  0.84013  0.76420  Biso   1.000  C
  C485     1.0000 0.23580  0.31172  0.15987  Biso   1.000  C
  C486     1.0000 0.23580  0.68828  0.84013  Biso   1.000  C
  C487     1.0000 0.76420  0.68828  0.15987  Biso   1.000  C
  C488     1.0000 0.76420  0.31172  0.84013  Biso   1.000  C
  C489     1.0000 0.15987  0.23580  0.31172  Biso   1.000  C
  C490     1.0000 0.84013  0.23580  0.68828  Biso   1.000  C
  C491     1.0000 0.15987  0.76420  0.68828  Biso   1.000  C
  C492     1.0000 0.84013  0.76420  0.31172  Biso   1.000  C
  C493     1.0000 0.15987  0.31172  0.76420  Biso   1.000  C
  C494     1.0000 0.84013  0.68828  0.76420  Biso   1.000  C
  C495     1.0000 0.15987  0.68828  0.23580  Biso   1.000  C
  C496     1.0000 0.84013  0.31172  0.23580  Biso   1.000  C
  C497     1.0000 0.31172  0.23580  0.84013  Biso   1.000  C
  C498     1.0000 0.68828  0.23580  0.15987  Biso   1.000  C
  C499     1.0000 0.68828  0.76420  0.84013  Biso   1.000  C
  C500     1.0000 0.31172  0.76420  0.15987  Biso   1.000  C
  C501     1.0000 0.23580  0.15987  0.68828  Biso   1.000  C
  C502     1.0000 0.23580  0.84013  0.31172  Biso   1.000  C
  C503     1.0000 0.76420  0.15987  0.31172  Biso   1.000  C
  C504     1.0000 0.76420  0.84013  0.68828  Biso   1.000  C
  C505     1.0000 0.81172  0.65987  0.73580  Biso   1.000  C
  C506     1.0000 0.18828  0.34013  0.73580  Biso   1.000  C
  C507     1.0000 0.18828  0.65987  0.26420  Biso   1.000  C
  C508     1.0000 0.81172  0.34013  0.26420  Biso   1.000  C
  C509     1.0000 0.73580  0.81172  0.65987  Biso   1.000  C
  C510     1.0000 0.73580  0.18828  0.34013  Biso   1.000  C
  C511     1.0000 0.26420  0.18828  0.65987  Biso   1.000  C
  C512     1.0000 0.26420  0.81172  0.34013  Biso   1.000  C
  C513     1.0000 0.65987  0.73580  0.81172  Biso   1.000  C
  C514     1.0000 0.34013  0.73580  0.18828  Biso   1.000  C
  C515     1.0000 0.65987  0.26420  0.18828  Biso   1.000  C
  C516     1.0000 0.34013  0.26420  0.81172  Biso   1.000  C
  C517     1.0000 0.65987  0.81172  0.26420  Biso   1.000  C
  C518     1.0000 0.34013  0.18828  0.26420  Biso   1.000  C
  C519     1.0000 0.65987  0.18828  0.73580  Biso   1.000  C
  C520     1.0000 0.34013  0.81172  0.73580  Biso   1.000  C
  C521     1.0000 0.81172  0.73580  0.34013  Biso   1.000  C
  C522     1.0000 0.18828  0.73580  0.65987  Biso   1.000  C
  C523     1.0000 0.18828  0.26420  0.34013  Biso   1.000  C
  C524     1.0000 0.81172  0.26420  0.65987  Biso   1.000  C
  C525     1.0000 0.73580  0.65987  0.18828  Biso   1.000  C
  C526     1.0000 0.73580  0.34013  0.81172  Biso   1.000  C
  C527     1.0000 0.26420  0.65987  0.81172  Biso   1.000  C
  C528     1.0000 0.26420  0.34013  0.18828  Biso   1.000  C
  C529     1.0000 0.68828  0.84013  0.76420  Biso   1.000  C
  C530     1.0000 0.31172  0.15987  0.76420  Biso   1.000  C
  C531     1.0000 0.31172  0.84013  0.23580  Biso   1.000  C
  C532     1.0000 0.68828  0.15987  0.23580  Biso   1.000  C
  C533     1.0000 0.76420  0.68828  0.84013  Biso   1.000  C
  C534     1.0000 0.76420  0.31172  0.15987  Biso   1.000  C
  C535     1.0000 0.23580  0.31172  0.84013  Biso   1.000  C
  C536     1.0000 0.23580  0.68828  0.15987  Biso   1.000  C
  C537     1.0000 0.84013  0.76420  0.68828  Biso   1.000  C
  C538     1.0000 0.15987  0.76420  0.31172  Biso   1.000  C
  C539     1.0000 0.84013  0.23580  0.31172  Biso   1.000  C
  C540     1.0000 0.15987  0.23580  0.68828  Biso   1.000  C
  C541     1.0000 0.84013  0.68828  0.23580  Biso   1.000  C
  C542     1.0000 0.15987  0.31172  0.23580  Biso   1.000  C
  C543     1.0000 0.84013  0.31172  0.76420  Biso   1.000  C
  C544     1.0000 0.15987  0.68828  0.76420  Biso   1.000  C
  C545     1.0000 0.68828  0.76420  0.15987  Biso   1.000  C
  C546     1.0000 0.31172  0.76420  0.84013  Biso   1.000  C
  C547     1.0000 0.31172  0.23580  0.15987  Biso   1.000  C
  C548     1.0000 0.68828  0.23580  0.84013  Biso   1.000  C
  C549     1.0000 0.76420  0.84013  0.31172  Biso   1.000  C
  C550     1.0000 0.76420  0.15987  0.68828  Biso   1.000  C
  C551     1.0000 0.23580  0.84013  0.68828  Biso   1.000  C
  C552     1.0000 0.23580  0.15987  0.31172  Biso   1.000  C
  C553     1.0000 0.18828  0.34013  0.26420  Biso   1.000  C
  C554     1.0000 0.81172  0.65987  0.26420  Biso   1.000  C
  C555     1.0000 0.81172  0.34013  0.73580  Biso   1.000  C
  C556     1.0000 0.18828  0.65987  0.73580  Biso   1.000  C
  C557     1.0000 0.26420  0.18828  0.34013  Biso   1.000  C
  C558     1.0000 0.26420  0.81172  0.65987  Biso   1.000  C
  C559     1.0000 0.73580  0.81172  0.34013  Biso   1.000  C
  C560     1.0000 0.73580  0.18828  0.65987  Biso   1.000  C
  C561     1.0000 0.34013  0.26420  0.18828  Biso   1.000  C
  C562     1.0000 0.65987  0.26420  0.81172  Biso   1.000  C
  C563     1.0000 0.34013  0.73580  0.81172  Biso   1.000  C
  C564     1.0000 0.65987  0.73580  0.18828  Biso   1.000  C
  C565     1.0000 0.34013  0.18828  0.73580  Biso   1.000  C
  C566     1.0000 0.65987  0.81172  0.73580  Biso   1.000  C
  C567     1.0000 0.34013  0.81172  0.26420  Biso   1.000  C
  C568     1.0000 0.65987  0.18828  0.26420  Biso   1.000  C
  C569     1.0000 0.18828  0.26420  0.65987  Biso   1.000  C
  C570     1.0000 0.81172  0.26420  0.34013  Biso   1.000  C
  C571     1.0000 0.81172  0.73580  0.65987  Biso   1.000  C
  C572     1.0000 0.18828  0.73580  0.34013  Biso   1.000  C
  C573     1.0000 0.26420  0.34013  0.81172  Biso   1.000  C
  C574     1.0000 0.26420  0.65987  0.18828  Biso   1.000  C
  C575     1.0000 0.73580  0.34013  0.18828  Biso   1.000  C
  C576     1.0000 0.73580  0.65987  0.81172  Biso   1.000  C
  H193     1.0000 0.30840  0.14310  0.22560  Biso   1.000  H
  H194     1.0000 0.69160  0.85690  0.22560  Biso   1.000  H
  H195     1.0000 0.69160  0.14310  0.77440  Biso   1.000  H
  H196     1.0000 0.30840  0.85690  0.77440  Biso   1.000  H
  H197     1.0000 0.22560  0.30840  0.14310  Biso   1.000  H
  H198     1.0000 0.22560  0.69160  0.85690  Biso   1.000  H
  H199     1.0000 0.77440  0.69160  0.14310  Biso   1.000  H
  H200     1.0000 0.77440  0.30840  0.85690  Biso   1.000  H
  H201     1.0000 0.14310  0.22560  0.30840  Biso   1.000  H
  H202     1.0000 0.85690  0.22560  0.69160  Biso   1.000  H
  H203     1.0000 0.14310  0.77440  0.69160  Biso   1.000  H
  H204     1.0000 0.85690  0.77440  0.30840  Biso   1.000  H
  H205     1.0000 0.14310  0.30840  0.77440  Biso   1.000  H
  H206     1.0000 0.85690  0.69160  0.77440  Biso   1.000  H
  H207     1.0000 0.14310  0.69160  0.22560  Biso   1.000  H
  H208     1.0000 0.85690  0.30840  0.22560  Biso   1.000  H
  H209     1.0000 0.30840  0.22560  0.85690  Biso   1.000  H
  H210     1.0000 0.69160  0.22560  0.14310  Biso   1.000  H
  H211     1.0000 0.69160  0.77440  0.85690  Biso   1.000  H
  H212     1.0000 0.30840  0.77440  0.14310  Biso   1.000  H
  H213     1.0000 0.22560  0.14310  0.69160  Biso   1.000  H
  H214     1.0000 0.22560  0.85690  0.30840  Biso   1.000  H
  H215     1.0000 0.77440  0.14310  0.30840  Biso   1.000  H
  H216     1.0000 0.77440  0.85690  0.69160  Biso   1.000  H
  H217     1.0000 0.80840  0.64310  0.72560  Biso   1.000  H
  H218     1.0000 0.19160  0.35690  0.72560  Biso   1.000  H
  H219     1.0000 0.19160  0.64310  0.27440  Biso   1.000  H
  H220     1.0000 0.80840  0.35690  0.27440  Biso   1.000  H
  H221     1.0000 0.72560  0.80840  0.64310  Biso   1.000  H
  H222     1.0000 0.72560  0.19160  0.35690  Biso   1.000  H
  H223     1.0000 0.27440  0.19160  0.64310  Biso   1.000  H
  H224     1.0000 0.27440  0.80840  0.35690  Biso   1.000  H
  H225     1.0000 0.64310  0.72560  0.80840  Biso   1.000  H
  H226     1.0000 0.35690  0.72560  0.19160  Biso   1.000  H
  H227     1.0000 0.64310  0.27440  0.19160  Biso   1.000  H
  H228     1.0000 0.35690  0.27440  0.80840  Biso   1.000  H
  H229     1.0000 0.64310  0.80840  0.27440  Biso   1.000  H
  H230     1.0000 0.35690  0.19160  0.27440  Biso   1.000  H
  H231     1.0000 0.64310  0.19160  0.72560  Biso   1.000  H
  H232     1.0000 0.35690  0.80840  0.72560  Biso   1.000  H
  H233     1.0000 0.80840  0.72560  0.35690  Biso   1.000  H
  H234     1.0000 0.19160  0.72560  0.64310  Biso   1.000  H
  H235     1.0000 0.19160  0.27440  0.35690  Biso   1.000  H
  H236     1.0000 0.80840  0.27440  0.64310  Biso   1.000  H
  H237     1.0000 0.72560  0.64310  0.19160  Biso   1.000  H
  H238     1.0000 0.72560  0.35690  0.80840  Biso   1.000  H
  H239     1.0000 0.27440  0.64310  0.80840  Biso   1.000  H
  H240     1.0000 0.27440  0.35690  0.19160  Biso   1.000  H
  H241     1.0000 0.69160  0.85690  0.77440  Biso   1.000  H
  H242     1.0000 0.30840  0.14310  0.77440  Biso   1.000  H
  H243     1.0000 0.30840  0.85690  0.22560  Biso   1.000  H
  H244     1.0000 0.69160  0.14310  0.22560  Biso   1.000  H
  H245     1.0000 0.77440  0.69160  0.85690  Biso   1.000  H
  H246     1.0000 0.77440  0.30840  0.14310  Biso   1.000  H
  H247     1.0000 0.22560  0.30840  0.85690  Biso   1.000  H
  H248     1.0000 0.22560  0.69160  0.14310  Biso   1.000  H
  H249     1.0000 0.85690  0.77440  0.69160  Biso   1.000  H
  H250     1.0000 0.14310  0.77440  0.30840  Biso   1.000  H
  H251     1.0000 0.85690  0.22560  0.30840  Biso   1.000  H
  H252     1.0000 0.14310  0.22560  0.69160  Biso   1.000  H
  H253     1.0000 0.85690  0.69160  0.22560  Biso   1.000  H
  H254     1.0000 0.14310  0.30840  0.22560  Biso   1.000  H
  H255     1.0000 0.85690  0.30840  0.77440  Biso   1.000  H
  H256     1.0000 0.14310  0.69160  0.77440  Biso   1.000  H
  H257     1.0000 0.69160  0.77440  0.14310  Biso   1.000  H
  H258     1.0000 0.30840  0.77440  0.85690  Biso   1.000  H
  H259     1.0000 0.30840  0.22560  0.14310  Biso   1.000  H
  H260     1.0000 0.69160  0.22560  0.85690  Biso   1.000  H
  H261     1.0000 0.77440  0.85690  0.30840  Biso   1.000  H
  H262     1.0000 0.77440  0.14310  0.69160  Biso   1.000  H
  H263     1.0000 0.22560  0.85690  0.69160  Biso   1.000  H
  H264     1.0000 0.22560  0.14310  0.30840  Biso   1.000  H
  H265     1.0000 0.19160  0.35690  0.27440  Biso   1.000  H
  H266     1.0000 0.80840  0.64310  0.27440  Biso   1.000  H
  H267     1.0000 0.80840  0.35690  0.72560  Biso   1.000  H
  H268     1.0000 0.19160  0.64310  0.72560  Biso   1.000  H
  H269     1.0000 0.27440  0.19160  0.35690  Biso   1.000  H
  H270     1.0000 0.27440  0.80840  0.64310  Biso   1.000  H
  H271     1.0000 0.72560  0.80840  0.35690  Biso   1.000  H
  H272     1.0000 0.72560  0.19160  0.64310  Biso   1.000  H
  H273     1.0000 0.35690  0.27440  0.19160  Biso   1.000  H
  H274     1.0000 0.64310  0.27440  0.80840  Biso   1.000  H
  H275     1.0000 0.35690  0.72560  0.80840  Biso   1.000  H
  H276     1.0000 0.64310  0.72560  0.19160  Biso   1.000  H
  H277     1.0000 0.35690  0.19160  0.72560  Biso   1.000  H
  H278     1.0000 0.64310  0.80840  0.72560  Biso   1.000  H
  H279     1.0000 0.35690  0.80840  0.27440  Biso   1.000  H
  H280     1.0000 0.64310  0.19160  0.27440  Biso   1.000  H
  H281     1.0000 0.19160  0.27440  0.64310  Biso   1.000  H
  H282     1.0000 0.80840  0.27440  0.35690  Biso   1.000  H
  H283     1.0000 0.80840  0.72560  0.64310  Biso   1.000  H
  H284     1.0000 0.19160  0.72560  0.35690  Biso   1.000  H
  H285     1.0000 0.27440  0.35690  0.80840  Biso   1.000  H
  H286     1.0000 0.27440  0.64310  0.19160  Biso   1.000  H
  H287     1.0000 0.72560  0.35690  0.19160  Biso   1.000  H
  H288     1.0000 0.72560  0.64310  0.80840  Biso   1.000  H
  C577     1.0000 0.29029  0.18271  0.23674  Biso   1.000  C
  C578     1.0000 0.70971  0.81729  0.23674  Biso   1.000  C
  C579     1.0000 0.70971  0.18271  0.76326  Biso   1.000  C
  C580     1.0000 0.29029  0.81729  0.76326  Biso   1.000  C
  C581     1.0000 0.23674  0.29029  0.18271  Biso   1.000  C
  C582     1.0000 0.23674  0.70971  0.81729  Biso   1.000  C
  C583     1.0000 0.76326  0.70971  0.18271  Biso   1.000  C
  C584     1.0000 0.76326  0.29029  0.81729  Biso   1.000  C
  C585     1.0000 0.18271  0.23674  0.29029  Biso   1.000  C
  C586     1.0000 0.81729  0.23674  0.70971  Biso   1.000  C
  C587     1.0000 0.18271  0.76326  0.70971  Biso   1.000  C
  C588     1.0000 0.81729  0.76326  0.29029  Biso   1.000  C
  C589     1.0000 0.18271  0.29029  0.76326  Biso   1.000  C
  C590     1.0000 0.81729  0.70971  0.76326  Biso   1.000  C
  C591     1.0000 0.18271  0.70971  0.23674  Biso   1.000  C
  C592     1.0000 0.81729  0.29029  0.23674  Biso   1.000  C
  C593     1.0000 0.29029  0.23674  0.81729  Biso   1.000  C
  C594     1.0000 0.70971  0.23674  0.18271  Biso   1.000  C
  C595     1.0000 0.70971  0.76326  0.81729  Biso   1.000  C
  C596     1.0000 0.29029  0.76326  0.18271  Biso   1.000  C
  C597     1.0000 0.23674  0.18271  0.70971  Biso   1.000  C
  C598     1.0000 0.23674  0.81729  0.29029  Biso   1.000  C
  C599     1.0000 0.76326  0.18271  0.29029  Biso   1.000  C
  C600     1.0000 0.76326  0.81729  0.70971  Biso   1.000  C
  C601     1.0000 0.79029  0.68271  0.73674  Biso   1.000  C
  C602     1.0000 0.20971  0.31729  0.73674  Biso   1.000  C
  C603     1.0000 0.20971  0.68271  0.26326  Biso   1.000  C
  C604     1.0000 0.79029  0.31729  0.26326  Biso   1.000  C
  C605     1.0000 0.73674  0.79029  0.68271  Biso   1.000  C
  C606     1.0000 0.73674  0.20971  0.31729  Biso   1.000  C
  C607     1.0000 0.26326  0.20971  0.68271  Biso   1.000  C
  C608     1.0000 0.26326  0.79029  0.31729  Biso   1.000  C
  C609     1.0000 0.68271  0.73674  0.79029  Biso   1.000  C
  C610     1.0000 0.31729  0.73674  0.20971  Biso   1.000  C
  C611     1.0000 0.68271  0.26326  0.20971  Biso   1.000  C
  C612     1.0000 0.31729  0.26326  0.79029  Biso   1.000  C
  C613     1.0000 0.68271  0.79029  0.26326  Biso   1.000  C
  C614     1.0000 0.31729  0.20971  0.26326  Biso   1.000  C
  C615     1.0000 0.68271  0.20971  0.73674  Biso   1.000  C
  C616     1.0000 0.31729  0.79029  0.73674  Biso   1.000  C
  C617     1.0000 0.79029  0.73674  0.31729  Biso   1.000  C
  C618     1.0000 0.20971  0.73674  0.68271  Biso   1.000  C
  C619     1.0000 0.20971  0.26326  0.31729  Biso   1.000  C
  C620     1.0000 0.79029  0.26326  0.68271  Biso   1.000  C
  C621     1.0000 0.73674  0.68271  0.20971  Biso   1.000  C
  C622     1.0000 0.73674  0.31729  0.79029  Biso   1.000  C
  C623     1.0000 0.26326  0.68271  0.79029  Biso   1.000  C
  C624     1.0000 0.26326  0.31729  0.20971  Biso   1.000  C
  C625     1.0000 0.70971  0.81729  0.76326  Biso   1.000  C
  C626     1.0000 0.29029  0.18271  0.76326  Biso   1.000  C
  C627     1.0000 0.29029  0.81729  0.23674  Biso   1.000  C
  C628     1.0000 0.70971  0.18271  0.23674  Biso   1.000  C
  C629     1.0000 0.76326  0.70971  0.81729  Biso   1.000  C
  C630     1.0000 0.76326  0.29029  0.18271  Biso   1.000  C
  C631     1.0000 0.23674  0.29029  0.81729  Biso   1.000  C
  C632     1.0000 0.23674  0.70971  0.18271  Biso   1.000  C
  C633     1.0000 0.81729  0.76326  0.70971  Biso   1.000  C
  C634     1.0000 0.18271  0.76326  0.29029  Biso   1.000  C
  C635     1.0000 0.81729  0.23674  0.29029  Biso   1.000  C
  C636     1.0000 0.18271  0.23674  0.70971  Biso   1.000  C
  C637     1.0000 0.81729  0.70971  0.23674  Biso   1.000  C
  C638     1.0000 0.18271  0.29029  0.23674  Biso   1.000  C
  C639     1.0000 0.81729  0.29029  0.76326  Biso   1.000  C
  C640     1.0000 0.18271  0.70971  0.76326  Biso   1.000  C
  C641     1.0000 0.70971  0.76326  0.18271  Biso   1.000  C
  C642     1.0000 0.29029  0.76326  0.81729  Biso   1.000  C
  C643     1.0000 0.29029  0.23674  0.18271  Biso   1.000  C
  C644     1.0000 0.70971  0.23674  0.81729  Biso   1.000  C
  C645     1.0000 0.76326  0.81729  0.29029  Biso   1.000  C
  C646     1.0000 0.76326  0.18271  0.70971  Biso   1.000  C
  C647     1.0000 0.23674  0.81729  0.70971  Biso   1.000  C
  C648     1.0000 0.23674  0.18271  0.29029  Biso   1.000  C
  C649     1.0000 0.20971  0.31729  0.26326  Biso   1.000  C
  C650     1.0000 0.79029  0.68271  0.26326  Biso   1.000  C
  C651     1.0000 0.79029  0.31729  0.73674  Biso   1.000  C
  C652     1.0000 0.20971  0.68271  0.73674  Biso   1.000  C
  C653     1.0000 0.26326  0.20971  0.31729  Biso   1.000  C
  C654     1.0000 0.26326  0.79029  0.68271  Biso   1.000  C
  C655     1.0000 0.73674  0.79029  0.31729  Biso   1.000  C
  C656     1.0000 0.73674  0.20971  0.68271  Biso   1.000  C
  C657     1.0000 0.31729  0.26326  0.20971  Biso   1.000  C
  C658     1.0000 0.68271  0.26326  0.79029  Biso   1.000  C
  C659     1.0000 0.31729  0.73674  0.79029  Biso   1.000  C
  C660     1.0000 0.68271  0.73674  0.20971  Biso   1.000  C
  C661     1.0000 0.31729  0.20971  0.73674  Biso   1.000  C
  C662     1.0000 0.68271  0.79029  0.73674  Biso   1.000  C
  C663     1.0000 0.31729  0.79029  0.26326  Biso   1.000  C
  C664     1.0000 0.68271  0.20971  0.26326  Biso   1.000  C
  C665     1.0000 0.20971  0.26326  0.68271  Biso   1.000  C
  C666     1.0000 0.79029  0.26326  0.31729  Biso   1.000  C
  C667     1.0000 0.79029  0.73674  0.68271  Biso   1.000  C
  C668     1.0000 0.20971  0.73674  0.31729  Biso   1.000  C
  C669     1.0000 0.26326  0.31729  0.79029  Biso   1.000  C
  C670     1.0000 0.26326  0.68271  0.20971  Biso   1.000  C
  C671     1.0000 0.73674  0.31729  0.20971  Biso   1.000  C
  C672     1.0000 0.73674  0.68271  0.79029  Biso   1.000  C
  H289     1.0000 0.27320  0.17980  0.22700  Biso   1.000  H
  H290     1.0000 0.72680  0.82020  0.22700  Biso   1.000  H
  H291     1.0000 0.72680  0.17980  0.77300  Biso   1.000  H
  H292     1.0000 0.27320  0.82020  0.77300  Biso   1.000  H
  H293     1.0000 0.22700  0.27320  0.17980  Biso   1.000  H
  H294     1.0000 0.22700  0.72680  0.82020  Biso   1.000  H
  H295     1.0000 0.77300  0.72680  0.17980  Biso   1.000  H
  H296     1.0000 0.77300  0.27320  0.82020  Biso   1.000  H
  H297     1.0000 0.17980  0.22700  0.27320  Biso   1.000  H
  H298     1.0000 0.82020  0.22700  0.72680  Biso   1.000  H
  H299     1.0000 0.17980  0.77300  0.72680  Biso   1.000  H
  H300     1.0000 0.82020  0.77300  0.27320  Biso   1.000  H
  H301     1.0000 0.17980  0.27320  0.77300  Biso   1.000  H
  H302     1.0000 0.82020  0.72680  0.77300  Biso   1.000  H
  H303     1.0000 0.17980  0.72680  0.22700  Biso   1.000  H
  H304     1.0000 0.82020  0.27320  0.22700  Biso   1.000  H
  H305     1.0000 0.27320  0.22700  0.82020  Biso   1.000  H
  H306     1.0000 0.72680  0.22700  0.17980  Biso   1.000  H
  H307     1.0000 0.72680  0.77300  0.82020  Biso   1.000  H
  H308     1.0000 0.27320  0.77300  0.17980  Biso   1.000  H
  H309     1.0000 0.22700  0.17980  0.72680  Biso   1.000  H
  H310     1.0000 0.22700  0.82020  0.27320  Biso   1.000  H
  H311     1.0000 0.77300  0.17980  0.27320  Biso   1.000  H
  H312     1.0000 0.77300  0.82020  0.72680  Biso   1.000  H
  H313     1.0000 0.77320  0.67980  0.72700  Biso   1.000  H
  H314     1.0000 0.22680  0.32020  0.72700  Biso   1.000  H
  H315     1.0000 0.22680  0.67980  0.27300  Biso   1.000  H
  H316     1.0000 0.77320  0.32020  0.27300  Biso   1.000  H
  H317     1.0000 0.72700  0.77320  0.67980  Biso   1.000  H
  H318     1.0000 0.72700  0.22680  0.32020  Biso   1.000  H
  H319     1.0000 0.27300  0.22680  0.67980  Biso   1.000  H
  H320     1.0000 0.27300  0.77320  0.32020  Biso   1.000  H
  H321     1.0000 0.67980  0.72700  0.77320  Biso   1.000  H
  H322     1.0000 0.32020  0.72700  0.22680  Biso   1.000  H
  H323     1.0000 0.67980  0.27300  0.22680  Biso   1.000  H
  H324     1.0000 0.32020  0.27300  0.77320  Biso   1.000  H
  H325     1.0000 0.67980  0.77320  0.27300  Biso   1.000  H
  H326     1.0000 0.32020  0.22680  0.27300  Biso   1.000  H
  H327     1.0000 0.67980  0.22680  0.72700  Biso   1.000  H
  H328     1.0000 0.32020  0.77320  0.72700  Biso   1.000  H
  H329     1.0000 0.77320  0.72700  0.32020  Biso   1.000  H
  H330     1.0000 0.22680  0.72700  0.67980  Biso   1.000  H
  H331     1.0000 0.22680  0.27300  0.32020  Biso   1.000  H
  H332     1.0000 0.77320  0.27300  0.67980  Biso   1.000  H
  H333     1.0000 0.72700  0.67980  0.22680  Biso   1.000  H
  H334     1.0000 0.72700  0.32020  0.77320  Biso   1.000  H
  H335     1.0000 0.27300  0.67980  0.77320  Biso   1.000  H
  H336     1.0000 0.27300  0.32020  0.22680  Biso   1.000  H
  H337     1.0000 0.72680  0.82020  0.77300  Biso   1.000  H
  H338     1.0000 0.27320  0.17980  0.77300  Biso   1.000  H
  H339     1.0000 0.27320  0.82020  0.22700  Biso   1.000  H
  H340     1.0000 0.72680  0.17980  0.22700  Biso   1.000  H
  H341     1.0000 0.77300  0.72680  0.82020  Biso   1.000  H
  H342     1.0000 0.77300  0.27320  0.17980  Biso   1.000  H
  H343     1.0000 0.22700  0.27320  0.82020  Biso   1.000  H
  H344     1.0000 0.22700  0.72680  0.17980  Biso   1.000  H
  H345     1.0000 0.82020  0.77300  0.72680  Biso   1.000  H
  H346     1.0000 0.17980  0.77300  0.27320  Biso   1.000  H
  H347     1.0000 0.82020  0.22700  0.27320  Biso   1.000  H
  H348     1.0000 0.17980  0.22700  0.72680  Biso   1.000  H
  H349     1.0000 0.82020  0.72680  0.22700  Biso   1.000  H
  H350     1.0000 0.17980  0.27320  0.22700  Biso   1.000  H
  H351     1.0000 0.82020  0.27320  0.77300  Biso   1.000  H
  H352     1.0000 0.17980  0.72680  0.77300  Biso   1.000  H
  H353     1.0000 0.72680  0.77300  0.17980  Biso   1.000  H
  H354     1.0000 0.27320  0.77300  0.82020  Biso   1.000  H
  H355     1.0000 0.27320  0.22700  0.17980  Biso   1.000  H
  H356     1.0000 0.72680  0.22700  0.82020  Biso   1.000  H
  H357     1.0000 0.77300  0.82020  0.27320  Biso   1.000  H
  H358     1.0000 0.77300  0.17980  0.72680  Biso   1.000  H
  H359     1.0000 0.22700  0.82020  0.72680  Biso   1.000  H
  H360     1.0000 0.22700  0.17980  0.27320  Biso   1.000  H
  H361     1.0000 0.22680  0.32020  0.27300  Biso   1.000  H
  H362     1.0000 0.77320  0.67980  0.27300  Biso   1.000  H
  H363     1.0000 0.77320  0.32020  0.72700  Biso   1.000  H
  H364     1.0000 0.22680  0.67980  0.72700  Biso   1.000  H
  H365     1.0000 0.27300  0.22680  0.32020  Biso   1.000  H
  H366     1.0000 0.27300  0.77320  0.67980  Biso   1.000  H
  H367     1.0000 0.72700  0.77320  0.32020  Biso   1.000  H
  H368     1.0000 0.72700  0.22680  0.67980  Biso   1.000  H
  H369     1.0000 0.32020  0.27300  0.22680  Biso   1.000  H
  H370     1.0000 0.67980  0.27300  0.77320  Biso   1.000  H
  H371     1.0000 0.32020  0.72700  0.77320  Biso   1.000  H
  H372     1.0000 0.67980  0.72700  0.22680  Biso   1.000  H
  H373     1.0000 0.32020  0.22680  0.72700  Biso   1.000  H
  H374     1.0000 0.67980  0.77320  0.72700  Biso   1.000  H
  H375     1.0000 0.32020  0.77320  0.27300  Biso   1.000  H
  H376     1.0000 0.67980  0.22680  0.27300  Biso   1.000  H
  H377     1.0000 0.22680  0.27300  0.67980  Biso   1.000  H
  H378     1.0000 0.77320  0.27300  0.32020  Biso   1.000  H
  H379     1.0000 0.77320  0.72700  0.67980  Biso   1.000  H
  H380     1.0000 0.22680  0.72700  0.32020  Biso   1.000  H
  H381     1.0000 0.27300  0.32020  0.77320  Biso   1.000  H
  H382     1.0000 0.27300  0.67980  0.22680  Biso   1.000  H
  H383     1.0000 0.72700  0.32020  0.22680  Biso   1.000  H
  H384     1.0000 0.72700  0.67980  0.77320  Biso   1.000  H
  C673     1.0000 0.29353  0.20647  0.25000  Biso   1.000  C
  C674     1.0000 0.70647  0.79353  0.25000  Biso   1.000  C
  C675     1.0000 0.70647  0.20647  0.75000  Biso   1.000  C
  C676     1.0000 0.29353  0.79353  0.75000  Biso   1.000  C
  C677     1.0000 0.25000  0.29353  0.20647  Biso   1.000  C
  C678     1.0000 0.25000  0.70647  0.79353  Biso   1.000  C
  C679     1.0000 0.75000  0.70647  0.20647  Biso   1.000  C
  C680     1.0000 0.75000  0.29353  0.79353  Biso   1.000  C
  C681     1.0000 0.20647  0.25000  0.29353  Biso   1.000  C
  C682     1.0000 0.79353  0.25000  0.70647  Biso   1.000  C
  C683     1.0000 0.20647  0.75000  0.70647  Biso   1.000  C
  C684     1.0000 0.79353  0.75000  0.29353  Biso   1.000  C
  C685     1.0000 0.20647  0.29353  0.75000  Biso   1.000  C
  C686     1.0000 0.79353  0.70647  0.75000  Biso   1.000  C
  C687     1.0000 0.20647  0.70647  0.25000  Biso   1.000  C
  C688     1.0000 0.79353  0.29353  0.25000  Biso   1.000  C
  C689     1.0000 0.29353  0.25000  0.79353  Biso   1.000  C
  C690     1.0000 0.70647  0.25000  0.20647  Biso   1.000  C
  C691     1.0000 0.70647  0.75000  0.79353  Biso   1.000  C
  C692     1.0000 0.29353  0.75000  0.20647  Biso   1.000  C
  C693     1.0000 0.25000  0.20647  0.70647  Biso   1.000  C
  C694     1.0000 0.25000  0.79353  0.29353  Biso   1.000  C
  C695     1.0000 0.75000  0.20647  0.29353  Biso   1.000  C
  C696     1.0000 0.75000  0.79353  0.70647  Biso   1.000  C
  C697     1.0000 0.70647  0.79353  0.75000  Biso   1.000  C
  C698     1.0000 0.29353  0.20647  0.75000  Biso   1.000  C
  C699     1.0000 0.29353  0.79353  0.25000  Biso   1.000  C
  C700     1.0000 0.70647  0.20647  0.25000  Biso   1.000  C
  C701     1.0000 0.75000  0.70647  0.79353  Biso   1.000  C
  C702     1.0000 0.75000  0.29353  0.20647  Biso   1.000  C
  C703     1.0000 0.25000  0.29353  0.79353  Biso   1.000  C
  C704     1.0000 0.25000  0.70647  0.20647  Biso   1.000  C
  C705     1.0000 0.79353  0.75000  0.70647  Biso   1.000  C
  C706     1.0000 0.20647  0.75000  0.29353  Biso   1.000  C
  C707     1.0000 0.79353  0.25000  0.29353  Biso   1.000  C
  C708     1.0000 0.20647  0.25000  0.70647  Biso   1.000  C
  C709     1.0000 0.79353  0.70647  0.25000  Biso   1.000  C
  C710     1.0000 0.20647  0.29353  0.25000  Biso   1.000  C
  C711     1.0000 0.79353  0.29353  0.75000  Biso   1.000  C
  C712     1.0000 0.20647  0.70647  0.75000  Biso   1.000  C
  C713     1.0000 0.70647  0.75000  0.20647  Biso   1.000  C
  C714     1.0000 0.29353  0.75000  0.79353  Biso   1.000  C
  C715     1.0000 0.29353  0.25000  0.20647  Biso   1.000  C
  C716     1.0000 0.70647  0.25000  0.79353  Biso   1.000  C
  C717     1.0000 0.75000  0.79353  0.29353  Biso   1.000  C
  C718     1.0000 0.75000  0.20647  0.70647  Biso   1.000  C
  C719     1.0000 0.25000  0.79353  0.70647  Biso   1.000  C
  C720     1.0000 0.25000  0.20647  0.29353  Biso   1.000  C
  C721     1.0000 0.27114  0.22886  0.25000  Biso   1.000  C
  C722     1.0000 0.72886  0.77114  0.25000  Biso   1.000  C
  C723     1.0000 0.72886  0.22886  0.75000  Biso   1.000  C
  C724     1.0000 0.27114  0.77114  0.75000  Biso   1.000  C
  C725     1.0000 0.25000  0.27114  0.22886  Biso   1.000  C
  C726     1.0000 0.25000  0.72886  0.77114  Biso   1.000  C
  C727     1.0000 0.75000  0.72886  0.22886  Biso   1.000  C
  C728     1.0000 0.75000  0.27114  0.77114  Biso   1.000  C
  C729     1.0000 0.22886  0.25000  0.27114  Biso   1.000  C
  C730     1.0000 0.77114  0.25000  0.72886  Biso   1.000  C
  C731     1.0000 0.22886  0.75000  0.72886  Biso   1.000  C
  C732     1.0000 0.77114  0.75000  0.27114  Biso   1.000  C
  C733     1.0000 0.22886  0.27114  0.75000  Biso   1.000  C
  C734     1.0000 0.77114  0.72886  0.75000  Biso   1.000  C
  C735     1.0000 0.22886  0.72886  0.25000  Biso   1.000  C
  C736     1.0000 0.77114  0.27114  0.25000  Biso   1.000  C
  C737     1.0000 0.27114  0.25000  0.77114  Biso   1.000  C
  C738     1.0000 0.72886  0.25000  0.22886  Biso   1.000  C
  C739     1.0000 0.72886  0.75000  0.77114  Biso   1.000  C
  C740     1.0000 0.27114  0.75000  0.22886  Biso   1.000  C
  C741     1.0000 0.25000  0.22886  0.72886  Biso   1.000  C
  C742     1.0000 0.25000  0.77114  0.27114  Biso   1.000  C
  C743     1.0000 0.75000  0.22886  0.27114  Biso   1.000  C
  C744     1.0000 0.75000  0.77114  0.72886  Biso   1.000  C
  C745     1.0000 0.72886  0.77114  0.75000  Biso   1.000  C
  C746     1.0000 0.27114  0.22886  0.75000  Biso   1.000  C
  C747     1.0000 0.27114  0.77114  0.25000  Biso   1.000  C
  C748     1.0000 0.72886  0.22886  0.25000  Biso   1.000  C
  C749     1.0000 0.75000  0.72886  0.77114  Biso   1.000  C
  C750     1.0000 0.75000  0.27114  0.22886  Biso   1.000  C
  C751     1.0000 0.25000  0.27114  0.77114  Biso   1.000  C
  C752     1.0000 0.25000  0.72886  0.22886  Biso   1.000  C
  C753     1.0000 0.77114  0.75000  0.72886  Biso   1.000  C
  C754     1.0000 0.22886  0.75000  0.27114  Biso   1.000  C
  C755     1.0000 0.77114  0.25000  0.27114  Biso   1.000  C
  C756     1.0000 0.22886  0.25000  0.72886  Biso   1.000  C
  C757     1.0000 0.77114  0.72886  0.25000  Biso   1.000  C
  C758     1.0000 0.22886  0.27114  0.25000  Biso   1.000  C
  C759     1.0000 0.77114  0.27114  0.75000  Biso   1.000  C
  C760     1.0000 0.22886  0.72886  0.75000  Biso   1.000  C
  C761     1.0000 0.72886  0.75000  0.22886  Biso   1.000  C
  C762     1.0000 0.27114  0.75000  0.77114  Biso   1.000  C
  C763     1.0000 0.27114  0.25000  0.22886  Biso   1.000  C
  C764     1.0000 0.72886  0.25000  0.77114  Biso   1.000  C
  C765     1.0000 0.75000  0.77114  0.27114  Biso   1.000  C
  C766     1.0000 0.75000  0.22886  0.72886  Biso   1.000  C
  C767     1.0000 0.25000  0.77114  0.72886  Biso   1.000  C
  C768     1.0000 0.25000  0.22886  0.27114  Biso   1.000  C
