data_image0
_cell_length_a       29.61
_cell_length_b       29.61
_cell_length_c       9.77
_cell_angle_alpha    90
_cell_angle_beta     90
_cell_angle_gamma    90

_symmetry_space_group_name_H-M    "P 1"
_symmetry_int_tables_number       1

loop_
  _symmetry_equiv_pos_as_xyz
  'x, y, z'

loop_
  _atom_site_label
  _atom_site_occupancy
  _atom_site_fract_x
  _atom_site_fract_y
  _atom_site_fract_z
  _atom_site_thermal_displace_type
  _atom_site_B_iso_or_equiv
  _atom_site_type_symbol
  Cu1      1.0000 0.54500  0.23503  0.53140  Biso   1.000  Cu
  Cu2      1.0000 0.45500  0.76497  0.53140  Biso   1.000  Cu
  Cu3      1.0000 0.23503  0.45500  0.46860  Biso   1.000  Cu
  Cu4      1.0000 0.76497  0.54500  0.46860  Biso   1.000  Cu
  Cu5      1.0000 0.04500  0.73503  0.03140  Biso   1.000  Cu
  Cu6      1.0000 0.95500  0.26497  0.03140  Biso   1.000  Cu
  Cu7      1.0000 0.73503  0.95500  0.96860  Biso   1.000  Cu
  Cu8      1.0000 0.26497  0.04500  0.96860  Biso   1.000  Cu
  Cu9      1.0000 0.56531  0.23069  0.03430  Biso   1.000  Cu
  Cu10     1.0000 0.43469  0.76931  0.03430  Biso   1.000  Cu
  Cu11     1.0000 0.23069  0.43469  0.96570  Biso   1.000  Cu
  Cu12     1.0000 0.76931  0.56531  0.96570  Biso   1.000  Cu
  Cu13     1.0000 0.06531  0.73069  0.53430  Biso   1.000  Cu
  Cu14     1.0000 0.93469  0.26931  0.53430  Biso   1.000  Cu
  Cu15     1.0000 0.73069  0.93469  0.46570  Biso   1.000  Cu
  Cu16     1.0000 0.26931  0.06531  0.46570  Biso   1.000  Cu
  P1       1.0000 0.62064  0.22875  0.75960  Biso   1.000  P
  P2       1.0000 0.37936  0.77125  0.75960  Biso   1.000  P
  P3       1.0000 0.22875  0.37936  0.24040  Biso   1.000  P
  P4       1.0000 0.77125  0.62064  0.24040  Biso   1.000  P
  P5       1.0000 0.12064  0.72875  0.25960  Biso   1.000  P
  P6       1.0000 0.87936  0.27125  0.25960  Biso   1.000  P
  P7       1.0000 0.72875  0.87936  0.74040  Biso   1.000  P
  P8       1.0000 0.27125  0.12064  0.74040  Biso   1.000  P
  P9       1.0000 0.49300  0.25806  0.25960  Biso   1.000  P
  P10      1.0000 0.50700  0.74194  0.25960  Biso   1.000  P
  P11      1.0000 0.25806  0.50700  0.74040  Biso   1.000  P
  P12      1.0000 0.74194  0.49300  0.74040  Biso   1.000  P
  P13      1.0000 0.99300  0.75806  0.75960  Biso   1.000  P
  P14      1.0000 0.00700  0.24194  0.75960  Biso   1.000  P
  P15      1.0000 0.75806  0.00700  0.24040  Biso   1.000  P
  P16      1.0000 0.24194  0.99300  0.24040  Biso   1.000  P
  P17      1.0000 0.58415  0.29813  0.28990  Biso   1.000  P
  P18      1.0000 0.41585  0.70187  0.28990  Biso   1.000  P
  P19      1.0000 0.29813  0.41585  0.71010  Biso   1.000  P
  P20      1.0000 0.70187  0.58415  0.71010  Biso   1.000  P
  P21      1.0000 0.08415  0.79813  0.78990  Biso   1.000  P
  P22      1.0000 0.91585  0.20187  0.78990  Biso   1.000  P
  P23      1.0000 0.79813  0.91585  0.21010  Biso   1.000  P
  P24      1.0000 0.20187  0.08415  0.21010  Biso   1.000  P
  P25      1.0000 0.55384  0.30291  0.79350  Biso   1.000  P
  P26      1.0000 0.44616  0.69709  0.79350  Biso   1.000  P
  P27      1.0000 0.30291  0.44616  0.20650  Biso   1.000  P
  P28      1.0000 0.69709  0.55384  0.20650  Biso   1.000  P
  P29      1.0000 0.05384  0.80291  0.29350  Biso   1.000  P
  P30      1.0000 0.94616  0.19709  0.29350  Biso   1.000  P
  P31      1.0000 0.80291  0.94616  0.70650  Biso   1.000  P
  P32      1.0000 0.19709  0.05384  0.70650  Biso   1.000  P
  O1       1.0000 0.52940  0.29520  0.66380  Biso   1.000  O
  O2       1.0000 0.47060  0.70480  0.66380  Biso   1.000  O
  O3       1.0000 0.29520  0.47060  0.33620  Biso   1.000  O
  O4       1.0000 0.70480  0.52940  0.33620  Biso   1.000  O
  O5       1.0000 0.02940  0.79520  0.16380  Biso   1.000  O
  O6       1.0000 0.97060  0.20480  0.16380  Biso   1.000  O
  O7       1.0000 0.79520  0.97060  0.83620  Biso   1.000  O
  O8       1.0000 0.20480  0.02940  0.83620  Biso   1.000  O
  O9       1.0000 0.60430  0.28190  0.15730  Biso   1.000  O
  O10      1.0000 0.39570  0.71810  0.15730  Biso   1.000  O
  O11      1.0000 0.28190  0.39570  0.84270  Biso   1.000  O
  O12      1.0000 0.71810  0.60430  0.84270  Biso   1.000  O
  O13      1.0000 0.10430  0.78190  0.65730  Biso   1.000  O
  O14      1.0000 0.89570  0.21810  0.65730  Biso   1.000  O
  O15      1.0000 0.78190  0.89570  0.34270  Biso   1.000  O
  O16      1.0000 0.21810  0.10430  0.34270  Biso   1.000  O
  O17      1.0000 0.49610  0.23810  0.39850  Biso   1.000  O
  O18      1.0000 0.50390  0.76190  0.39850  Biso   1.000  O
  O19      1.0000 0.23810  0.50390  0.60150  Biso   1.000  O
  O20      1.0000 0.76190  0.49610  0.60150  Biso   1.000  O
  O21      1.0000 0.99610  0.73810  0.89850  Biso   1.000  O
  O22      1.0000 0.00390  0.26190  0.89850  Biso   1.000  O
  O23      1.0000 0.73810  0.00390  0.10150  Biso   1.000  O
  O24      1.0000 0.26190  0.99610  0.10150  Biso   1.000  O
  O25      1.0000 0.51010  0.22960  0.14100  Biso   1.000  O
  O26      1.0000 0.48990  0.77040  0.14100  Biso   1.000  O
  O27      1.0000 0.22960  0.48990  0.85900  Biso   1.000  O
  O28      1.0000 0.77040  0.51010  0.85900  Biso   1.000  O
  O29      1.0000 0.01010  0.72960  0.64100  Biso   1.000  O
  O30      1.0000 0.98990  0.27040  0.64100  Biso   1.000  O
  O31      1.0000 0.72960  0.98990  0.35900  Biso   1.000  O
  O32      1.0000 0.27040  0.01010  0.35900  Biso   1.000  O
  O33      1.0000 0.58730  0.26700  0.41280  Biso   1.000  O
  O34      1.0000 0.41270  0.73300  0.41280  Biso   1.000  O
  O35      1.0000 0.26700  0.41270  0.58720  Biso   1.000  O
  O36      1.0000 0.73300  0.58730  0.58720  Biso   1.000  O
  O37      1.0000 0.08730  0.76700  0.91280  Biso   1.000  O
  O38      1.0000 0.91270  0.23300  0.91280  Biso   1.000  O
  O39      1.0000 0.76700  0.91270  0.08720  Biso   1.000  O
  O40      1.0000 0.23300  0.08730  0.08720  Biso   1.000  O
  O41      1.0000 0.53770  0.27720  0.91860  Biso   1.000  O
  O42      1.0000 0.46230  0.72280  0.91860  Biso   1.000  O
  O43      1.0000 0.27720  0.46230  0.08140  Biso   1.000  O
  O44      1.0000 0.72280  0.53770  0.08140  Biso   1.000  O
  O45      1.0000 0.03770  0.77720  0.41860  Biso   1.000  O
  O46      1.0000 0.96230  0.22280  0.41860  Biso   1.000  O
  O47      1.0000 0.77720  0.96230  0.58140  Biso   1.000  O
  O48      1.0000 0.22280  0.03770  0.58140  Biso   1.000  O
  O49      1.0000 0.59720  0.21100  0.63170  Biso   1.000  O
  O50      1.0000 0.40280  0.78900  0.63170  Biso   1.000  O
  O51      1.0000 0.21100  0.40280  0.36830  Biso   1.000  O
  O52      1.0000 0.78900  0.59720  0.36830  Biso   1.000  O
  O53      1.0000 0.09720  0.71100  0.13170  Biso   1.000  O
  O54      1.0000 0.90280  0.28900  0.13170  Biso   1.000  O
  O55      1.0000 0.71100  0.90280  0.86830  Biso   1.000  O
  O56      1.0000 0.28900  0.09720  0.86830  Biso   1.000  O
  O57      1.0000 0.60820  0.20870  0.89620  Biso   1.000  O
  O58      1.0000 0.39180  0.79130  0.89620  Biso   1.000  O
  O59      1.0000 0.20870  0.39180  0.10380  Biso   1.000  O
  O60      1.0000 0.79130  0.60820  0.10380  Biso   1.000  O
  O61      1.0000 0.10820  0.70870  0.39620  Biso   1.000  O
  O62      1.0000 0.89180  0.29130  0.39620  Biso   1.000  O
  O63      1.0000 0.70870  0.89180  0.60380  Biso   1.000  O
  O64      1.0000 0.29130  0.10820  0.60380  Biso   1.000  O
  N1       1.0000 0.50280  0.20060  0.65640  Biso   1.000  N
  N2       1.0000 0.49720  0.79940  0.65640  Biso   1.000  N
  N3       1.0000 0.20060  0.49720  0.34360  Biso   1.000  N
  N4       1.0000 0.79940  0.50280  0.34360  Biso   1.000  N
  N5       1.0000 0.00280  0.70060  0.15640  Biso   1.000  N
  N6       1.0000 0.99720  0.29940  0.15640  Biso   1.000  N
  N7       1.0000 0.70060  0.99720  0.84360  Biso   1.000  N
  N8       1.0000 0.29940  0.00280  0.84360  Biso   1.000  N
  N9       1.0000 0.31790  0.09170  0.34120  Biso   1.000  N
  N10      1.0000 0.68210  0.90830  0.34120  Biso   1.000  N
  N11      1.0000 0.09170  0.68210  0.65880  Biso   1.000  N
  N12      1.0000 0.90830  0.31790  0.65880  Biso   1.000  N
  N13      1.0000 0.81790  0.59170  0.84120  Biso   1.000  N
  N14      1.0000 0.18210  0.40830  0.84120  Biso   1.000  N
  N15      1.0000 0.59170  0.18210  0.15880  Biso   1.000  N
  N16      1.0000 0.40830  0.81790  0.15880  Biso   1.000  N
  C1       1.0000 0.52480  0.31100  0.26540  Biso   1.000  C
  C2       1.0000 0.47520  0.68900  0.26540  Biso   1.000  C
  C3       1.0000 0.31100  0.47520  0.73460  Biso   1.000  C
  C4       1.0000 0.68900  0.52480  0.73460  Biso   1.000  C
  C5       1.0000 0.02480  0.81100  0.76540  Biso   1.000  C
  C6       1.0000 0.97520  0.18900  0.76540  Biso   1.000  C
  C7       1.0000 0.81100  0.97520  0.23460  Biso   1.000  C
  C8       1.0000 0.18900  0.02480  0.23460  Biso   1.000  C
  H1       1.0000 0.52060  0.32750  0.18050  Biso   1.000  H
  H2       1.0000 0.47940  0.67250  0.18050  Biso   1.000  H
  H3       1.0000 0.32750  0.47940  0.81950  Biso   1.000  H
  H4       1.0000 0.67250  0.52060  0.81950  Biso   1.000  H
  H5       1.0000 0.02060  0.82750  0.68050  Biso   1.000  H
  H6       1.0000 0.97940  0.17250  0.68050  Biso   1.000  H
  H7       1.0000 0.82750  0.97940  0.31950  Biso   1.000  H
  H8       1.0000 0.17250  0.02060  0.31950  Biso   1.000  H
  H9       1.0000 0.51390  0.32960  0.34010  Biso   1.000  H
  H10      1.0000 0.48610  0.67040  0.34010  Biso   1.000  H
  H11      1.0000 0.32960  0.48610  0.65990  Biso   1.000  H
  H12      1.0000 0.67040  0.51390  0.65990  Biso   1.000  H
  H13      1.0000 0.01390  0.82960  0.84010  Biso   1.000  H
  H14      1.0000 0.98610  0.17040  0.84010  Biso   1.000  H
  H15      1.0000 0.82960  0.98610  0.15990  Biso   1.000  H
  H16      1.0000 0.17040  0.01390  0.15990  Biso   1.000  H
  C9       1.0000 0.61270  0.28870  0.76970  Biso   1.000  C
  C10      1.0000 0.38730  0.71130  0.76970  Biso   1.000  C
  C11      1.0000 0.28870  0.38730  0.23030  Biso   1.000  C
  C12      1.0000 0.71130  0.61270  0.23030  Biso   1.000  C
  C13      1.0000 0.11270  0.78870  0.26970  Biso   1.000  C
  C14      1.0000 0.88730  0.21130  0.26970  Biso   1.000  C
  C15      1.0000 0.78870  0.88730  0.73030  Biso   1.000  C
  C16      1.0000 0.21130  0.11270  0.73030  Biso   1.000  C
  H17      1.0000 0.62360  0.30270  0.68620  Biso   1.000  H
  H18      1.0000 0.37640  0.69730  0.68620  Biso   1.000  H
  H19      1.0000 0.30270  0.37640  0.31380  Biso   1.000  H
  H20      1.0000 0.69730  0.62360  0.31380  Biso   1.000  H
  H21      1.0000 0.12360  0.80270  0.18620  Biso   1.000  H
  H22      1.0000 0.87640  0.19730  0.18620  Biso   1.000  H
  H23      1.0000 0.80270  0.87640  0.81380  Biso   1.000  H
  H24      1.0000 0.19730  0.12360  0.81380  Biso   1.000  H
  H25      1.0000 0.63020  0.30060  0.84550  Biso   1.000  H
  H26      1.0000 0.36980  0.69940  0.84550  Biso   1.000  H
  H27      1.0000 0.30060  0.36980  0.15450  Biso   1.000  H
  H28      1.0000 0.69940  0.63020  0.15450  Biso   1.000  H
  H29      1.0000 0.13020  0.80060  0.34550  Biso   1.000  H
  H30      1.0000 0.86980  0.19940  0.34550  Biso   1.000  H
  H31      1.0000 0.80060  0.86980  0.65450  Biso   1.000  H
  H32      1.0000 0.19940  0.13020  0.65450  Biso   1.000  H
  C17      1.0000 0.43490  0.27040  0.22060  Biso   1.000  C
  C18      1.0000 0.56510  0.72960  0.22060  Biso   1.000  C
  C19      1.0000 0.27040  0.56510  0.77940  Biso   1.000  C
  C20      1.0000 0.72960  0.43490  0.77940  Biso   1.000  C
  C21      1.0000 0.93490  0.77040  0.72060  Biso   1.000  C
  C22      1.0000 0.06510  0.22960  0.72060  Biso   1.000  C
  C23      1.0000 0.77040  0.06510  0.27940  Biso   1.000  C
  C24      1.0000 0.22960  0.93490  0.27940  Biso   1.000  C
  C25      1.0000 0.40260  0.26940  0.32360  Biso   1.000  C
  C26      1.0000 0.59740  0.73060  0.32360  Biso   1.000  C
  C27      1.0000 0.26940  0.59740  0.67640  Biso   1.000  C
  C28      1.0000 0.73060  0.40260  0.67640  Biso   1.000  C
  C29      1.0000 0.90260  0.76940  0.82360  Biso   1.000  C
  C30      1.0000 0.09740  0.23060  0.82360  Biso   1.000  C
  C31      1.0000 0.76940  0.09740  0.17640  Biso   1.000  C
  C32      1.0000 0.23060  0.90260  0.17640  Biso   1.000  C
  H33      1.0000 0.41130  0.26510  0.41410  Biso   1.000  H
  H34      1.0000 0.58870  0.73490  0.41410  Biso   1.000  H
  H35      1.0000 0.26510  0.58870  0.58590  Biso   1.000  H
  H36      1.0000 0.73490  0.41130  0.58590  Biso   1.000  H
  H37      1.0000 0.91130  0.76510  0.91410  Biso   1.000  H
  H38      1.0000 0.08870  0.23490  0.91410  Biso   1.000  H
  H39      1.0000 0.76510  0.08870  0.08590  Biso   1.000  H
  H40      1.0000 0.23490  0.91130  0.08590  Biso   1.000  H
  C33      1.0000 0.35720  0.27470  0.29140  Biso   1.000  C
  C34      1.0000 0.64280  0.72530  0.29140  Biso   1.000  C
  C35      1.0000 0.27470  0.64280  0.70860  Biso   1.000  C
  C36      1.0000 0.72530  0.35720  0.70860  Biso   1.000  C
  C37      1.0000 0.85720  0.77470  0.79140  Biso   1.000  C
  C38      1.0000 0.14280  0.22530  0.79140  Biso   1.000  C
  C39      1.0000 0.77470  0.14280  0.20860  Biso   1.000  C
  C40      1.0000 0.22530  0.85720  0.20860  Biso   1.000  C
  H41      1.0000 0.33550  0.27400  0.36030  Biso   1.000  H
  H42      1.0000 0.66450  0.72600  0.36030  Biso   1.000  H
  H43      1.0000 0.27400  0.66450  0.63970  Biso   1.000  H
  H44      1.0000 0.72600  0.33550  0.63970  Biso   1.000  H
  H45      1.0000 0.83550  0.77400  0.86030  Biso   1.000  H
  H46      1.0000 0.16450  0.22600  0.86030  Biso   1.000  H
  H47      1.0000 0.77400  0.16450  0.13970  Biso   1.000  H
  H48      1.0000 0.22600  0.83550  0.13970  Biso   1.000  H
  C41      1.0000 0.34410  0.28110  0.15610  Biso   1.000  C
  C42      1.0000 0.65590  0.71890  0.15610  Biso   1.000  C
  C43      1.0000 0.28110  0.65590  0.84390  Biso   1.000  C
  C44      1.0000 0.71890  0.34410  0.84390  Biso   1.000  C
  C45      1.0000 0.84410  0.78110  0.65610  Biso   1.000  C
  C46      1.0000 0.15590  0.21890  0.65610  Biso   1.000  C
  C47      1.0000 0.78110  0.15590  0.34390  Biso   1.000  C
  C48      1.0000 0.21890  0.84410  0.34390  Biso   1.000  C
  H49      1.0000 0.31370  0.28460  0.13450  Biso   1.000  H
  H50      1.0000 0.68630  0.71540  0.13450  Biso   1.000  H
  H51      1.0000 0.28460  0.68630  0.86550  Biso   1.000  H
  H52      1.0000 0.71540  0.31370  0.86550  Biso   1.000  H
  H53      1.0000 0.81370  0.78460  0.63450  Biso   1.000  H
  H54      1.0000 0.18630  0.21540  0.63450  Biso   1.000  H
  H55      1.0000 0.78460  0.18630  0.36550  Biso   1.000  H
  H56      1.0000 0.21540  0.81370  0.36550  Biso   1.000  H
  C49      1.0000 0.37650  0.28210  0.05300  Biso   1.000  C
  C50      1.0000 0.62350  0.71790  0.05300  Biso   1.000  C
  C51      1.0000 0.28210  0.62350  0.94700  Biso   1.000  C
  C52      1.0000 0.71790  0.37650  0.94700  Biso   1.000  C
  C53      1.0000 0.87650  0.78210  0.55300  Biso   1.000  C
  C54      1.0000 0.12350  0.21790  0.55300  Biso   1.000  C
  C55      1.0000 0.78210  0.12350  0.44700  Biso   1.000  C
  C56      1.0000 0.21790  0.87650  0.44700  Biso   1.000  C
  H57      1.0000 0.36770  0.28630  0.96250  Biso   1.000  H
  H58      1.0000 0.63230  0.71370  0.96250  Biso   1.000  H
  H59      1.0000 0.28630  0.63230  0.03750  Biso   1.000  H
  H60      1.0000 0.71370  0.36770  0.03750  Biso   1.000  H
  H61      1.0000 0.86770  0.78630  0.46250  Biso   1.000  H
  H62      1.0000 0.13230  0.21370  0.46250  Biso   1.000  H
  H63      1.0000 0.78630  0.13230  0.53750  Biso   1.000  H
  H64      1.0000 0.21370  0.86770  0.53750  Biso   1.000  H
  C57      1.0000 0.42190  0.27670  0.08530  Biso   1.000  C
  C58      1.0000 0.57810  0.72330  0.08530  Biso   1.000  C
  C59      1.0000 0.27670  0.57810  0.91470  Biso   1.000  C
  C60      1.0000 0.72330  0.42190  0.91470  Biso   1.000  C
  C61      1.0000 0.92190  0.77670  0.58530  Biso   1.000  C
  C62      1.0000 0.07810  0.22330  0.58530  Biso   1.000  C
  C63      1.0000 0.77670  0.07810  0.41470  Biso   1.000  C
  C64      1.0000 0.22330  0.92190  0.41470  Biso   1.000  C
  H65      1.0000 0.44350  0.27740  0.01630  Biso   1.000  H
  H66      1.0000 0.55650  0.72260  0.01630  Biso   1.000  H
  H67      1.0000 0.27740  0.55650  0.98370  Biso   1.000  H
  H68      1.0000 0.72260  0.44350  0.98370  Biso   1.000  H
  H69      1.0000 0.94350  0.77740  0.51630  Biso   1.000  H
  H70      1.0000 0.05650  0.22260  0.51630  Biso   1.000  H
  H71      1.0000 0.77740  0.05650  0.48370  Biso   1.000  H
  H72      1.0000 0.22260  0.94350  0.48370  Biso   1.000  H
  C65      1.0000 0.61000  0.35090  0.34060  Biso   1.000  C
  C66      1.0000 0.39000  0.64910  0.34060  Biso   1.000  C
  C67      1.0000 0.35090  0.39000  0.65940  Biso   1.000  C
  C68      1.0000 0.64910  0.61000  0.65940  Biso   1.000  C
  C69      1.0000 0.11000  0.85090  0.84060  Biso   1.000  C
  C70      1.0000 0.89000  0.14910  0.84060  Biso   1.000  C
  C71      1.0000 0.85090  0.89000  0.15940  Biso   1.000  C
  C72      1.0000 0.14910  0.11000  0.15940  Biso   1.000  C
  C73      1.0000 0.60040  0.36970  0.46760  Biso   1.000  C
  C74      1.0000 0.39960  0.63030  0.46760  Biso   1.000  C
  C75      1.0000 0.36970  0.39960  0.53240  Biso   1.000  C
  C76      1.0000 0.63030  0.60040  0.53240  Biso   1.000  C
  C77      1.0000 0.10040  0.86970  0.96760  Biso   1.000  C
  C78      1.0000 0.89960  0.13030  0.96760  Biso   1.000  C
  C79      1.0000 0.86970  0.89960  0.03240  Biso   1.000  C
  C80      1.0000 0.13030  0.10040  0.03240  Biso   1.000  C
  H73      1.0000 0.58000  0.35550  0.52600  Biso   1.000  H
  H74      1.0000 0.42000  0.64450  0.52600  Biso   1.000  H
  H75      1.0000 0.35550  0.42000  0.47400  Biso   1.000  H
  H76      1.0000 0.64450  0.58000  0.47400  Biso   1.000  H
  H77      1.0000 0.08000  0.85550  0.02600  Biso   1.000  H
  H78      1.0000 0.92000  0.14450  0.02600  Biso   1.000  H
  H79      1.0000 0.85550  0.92000  0.97400  Biso   1.000  H
  H80      1.0000 0.14450  0.08000  0.97400  Biso   1.000  H
  C81      1.0000 0.62120  0.40970  0.50730  Biso   1.000  C
  C82      1.0000 0.37880  0.59030  0.50730  Biso   1.000  C
  C83      1.0000 0.40970  0.37880  0.49270  Biso   1.000  C
  C84      1.0000 0.59030  0.62120  0.49270  Biso   1.000  C
  C85      1.0000 0.12120  0.90970  0.00730  Biso   1.000  C
  C86      1.0000 0.87880  0.09030  0.00730  Biso   1.000  C
  C87      1.0000 0.90970  0.87880  0.99270  Biso   1.000  C
  C88      1.0000 0.09030  0.12120  0.99270  Biso   1.000  C
  H81      1.0000 0.61470  0.42230  0.59230  Biso   1.000  H
  H82      1.0000 0.38530  0.57770  0.59230  Biso   1.000  H
  H83      1.0000 0.42230  0.38530  0.40770  Biso   1.000  H
  H84      1.0000 0.57770  0.61470  0.40770  Biso   1.000  H
  H85      1.0000 0.11470  0.92230  0.09230  Biso   1.000  H
  H86      1.0000 0.88530  0.07770  0.09230  Biso   1.000  H
  H87      1.0000 0.92230  0.88530  0.90770  Biso   1.000  H
  H88      1.0000 0.07770  0.11470  0.90770  Biso   1.000  H
  C89      1.0000 0.65160  0.43090  0.42010  Biso   1.000  C
  C90      1.0000 0.34840  0.56910  0.42010  Biso   1.000  C
  C91      1.0000 0.43090  0.34840  0.57990  Biso   1.000  C
  C92      1.0000 0.56910  0.65160  0.57990  Biso   1.000  C
  C93      1.0000 0.15160  0.93090  0.92010  Biso   1.000  C
  C94      1.0000 0.84840  0.06910  0.92010  Biso   1.000  C
  C95      1.0000 0.93090  0.84840  0.07990  Biso   1.000  C
  C96      1.0000 0.06910  0.15160  0.07990  Biso   1.000  C
  H89      1.0000 0.66550  0.45760  0.44670  Biso   1.000  H
  H90      1.0000 0.33450  0.54240  0.44670  Biso   1.000  H
  H91      1.0000 0.45760  0.33450  0.55330  Biso   1.000  H
  H92      1.0000 0.54240  0.66550  0.55330  Biso   1.000  H
  H93      1.0000 0.16550  0.95760  0.94670  Biso   1.000  H
  H94      1.0000 0.83450  0.04240  0.94670  Biso   1.000  H
  H95      1.0000 0.95760  0.83450  0.05330  Biso   1.000  H
  H96      1.0000 0.04240  0.16550  0.05330  Biso   1.000  H
  C97      1.0000 0.66130  0.41200  0.29310  Biso   1.000  C
  C98      1.0000 0.33870  0.58800  0.29310  Biso   1.000  C
  C99      1.0000 0.41200  0.33870  0.70690  Biso   1.000  C
  C100     1.0000 0.58800  0.66130  0.70690  Biso   1.000  C
  C101     1.0000 0.16130  0.91200  0.79310  Biso   1.000  C
  C102     1.0000 0.83870  0.08800  0.79310  Biso   1.000  C
  C103     1.0000 0.91200  0.83870  0.20690  Biso   1.000  C
  C104     1.0000 0.08800  0.16130  0.20690  Biso   1.000  C
  H97      1.0000 0.68160  0.42620  0.23470  Biso   1.000  H
  H98      1.0000 0.31840  0.57380  0.23470  Biso   1.000  H
  H99      1.0000 0.42620  0.31840  0.76530  Biso   1.000  H
  H100     1.0000 0.57380  0.68160  0.76530  Biso   1.000  H
  H101     1.0000 0.18160  0.92620  0.73470  Biso   1.000  H
  H102     1.0000 0.81840  0.07380  0.73470  Biso   1.000  H
  H103     1.0000 0.92620  0.81840  0.26530  Biso   1.000  H
  H104     1.0000 0.07380  0.18160  0.26530  Biso   1.000  H
  C105     1.0000 0.64050  0.37200  0.25330  Biso   1.000  C
  C106     1.0000 0.35950  0.62800  0.25330  Biso   1.000  C
  C107     1.0000 0.37200  0.35950  0.74670  Biso   1.000  C
  C108     1.0000 0.62800  0.64050  0.74670  Biso   1.000  C
  C109     1.0000 0.14050  0.87200  0.75330  Biso   1.000  C
  C110     1.0000 0.85950  0.12800  0.75330  Biso   1.000  C
  C111     1.0000 0.87200  0.85950  0.24670  Biso   1.000  C
  C112     1.0000 0.12800  0.14050  0.24670  Biso   1.000  C
  H105     1.0000 0.64690  0.35940  0.16830  Biso   1.000  H
  H106     1.0000 0.35310  0.64060  0.16830  Biso   1.000  H
  H107     1.0000 0.35940  0.35310  0.83170  Biso   1.000  H
  H108     1.0000 0.64060  0.64690  0.83170  Biso   1.000  H
  H109     1.0000 0.14690  0.85940  0.66830  Biso   1.000  H
  H110     1.0000 0.85310  0.14060  0.66830  Biso   1.000  H
  H111     1.0000 0.85940  0.85310  0.33170  Biso   1.000  H
  H112     1.0000 0.14060  0.14690  0.33170  Biso   1.000  H
  C113     1.0000 0.55360  0.36180  0.83400  Biso   1.000  C
  C114     1.0000 0.44640  0.63820  0.83400  Biso   1.000  C
  C115     1.0000 0.36180  0.44640  0.16600  Biso   1.000  C
  C116     1.0000 0.63820  0.55360  0.16600  Biso   1.000  C
  C117     1.0000 0.05360  0.86180  0.33400  Biso   1.000  C
  C118     1.0000 0.94640  0.13820  0.33400  Biso   1.000  C
  C119     1.0000 0.86180  0.94640  0.66600  Biso   1.000  C
  C120     1.0000 0.13820  0.05360  0.66600  Biso   1.000  C
  C121     1.0000 0.57890  0.37900  0.94190  Biso   1.000  C
  C122     1.0000 0.42110  0.62100  0.94190  Biso   1.000  C
  C123     1.0000 0.37900  0.42110  0.05810  Biso   1.000  C
  C124     1.0000 0.62100  0.57890  0.05810  Biso   1.000  C
  C125     1.0000 0.07890  0.87900  0.44190  Biso   1.000  C
  C126     1.0000 0.92110  0.12100  0.44190  Biso   1.000  C
  C127     1.0000 0.87900  0.92110  0.55810  Biso   1.000  C
  C128     1.0000 0.12100  0.07890  0.55810  Biso   1.000  C
  H113     1.0000 0.59480  0.35960  0.99880  Biso   1.000  H
  H114     1.0000 0.40520  0.64040  0.99880  Biso   1.000  H
  H115     1.0000 0.35960  0.40520  0.00120  Biso   1.000  H
  H116     1.0000 0.64040  0.59480  0.00120  Biso   1.000  H
  H117     1.0000 0.09480  0.85960  0.49880  Biso   1.000  H
  H118     1.0000 0.90520  0.14040  0.49880  Biso   1.000  H
  H119     1.0000 0.85960  0.90520  0.50120  Biso   1.000  H
  H120     1.0000 0.14040  0.09480  0.50120  Biso   1.000  H
  C129     1.0000 0.58030  0.42530  0.96470  Biso   1.000  C
  C130     1.0000 0.41970  0.57470  0.96470  Biso   1.000  C
  C131     1.0000 0.42530  0.41970  0.03530  Biso   1.000  C
  C132     1.0000 0.57470  0.58030  0.03530  Biso   1.000  C
  C133     1.0000 0.08030  0.92530  0.46470  Biso   1.000  C
  C134     1.0000 0.91970  0.07470  0.46470  Biso   1.000  C
  C135     1.0000 0.92530  0.91970  0.53530  Biso   1.000  C
  C136     1.0000 0.07470  0.08030  0.53530  Biso   1.000  C
  H121     1.0000 0.59720  0.43690  0.03690  Biso   1.000  H
  H122     1.0000 0.40280  0.56310  0.03690  Biso   1.000  H
  H123     1.0000 0.43690  0.40280  0.96310  Biso   1.000  H
  H124     1.0000 0.56310  0.59720  0.96310  Biso   1.000  H
  H125     1.0000 0.09720  0.93690  0.53690  Biso   1.000  H
  H126     1.0000 0.90280  0.06310  0.53690  Biso   1.000  H
  H127     1.0000 0.93690  0.90280  0.46310  Biso   1.000  H
  H128     1.0000 0.06310  0.09720  0.46310  Biso   1.000  H
  C137     1.0000 0.55650  0.45440  0.87960  Biso   1.000  C
  C138     1.0000 0.44350  0.54560  0.87960  Biso   1.000  C
  C139     1.0000 0.45440  0.44350  0.12040  Biso   1.000  C
  C140     1.0000 0.54560  0.55650  0.12040  Biso   1.000  C
  C141     1.0000 0.05650  0.95440  0.37960  Biso   1.000  C
  C142     1.0000 0.94350  0.04560  0.37960  Biso   1.000  C
  C143     1.0000 0.95440  0.94350  0.62040  Biso   1.000  C
  C144     1.0000 0.04560  0.05650  0.62040  Biso   1.000  C
  H129     1.0000 0.55740  0.48540  0.89490  Biso   1.000  H
  H130     1.0000 0.44260  0.51460  0.89490  Biso   1.000  H
  H131     1.0000 0.48540  0.44260  0.10510  Biso   1.000  H
  H132     1.0000 0.51460  0.55740  0.10510  Biso   1.000  H
  H133     1.0000 0.05740  0.98540  0.39490  Biso   1.000  H
  H134     1.0000 0.94260  0.01460  0.39490  Biso   1.000  H
  H135     1.0000 0.98540  0.94260  0.60510  Biso   1.000  H
  H136     1.0000 0.01460  0.05740  0.60510  Biso   1.000  H
  C145     1.0000 0.53120  0.43720  0.77170  Biso   1.000  C
  C146     1.0000 0.46880  0.56280  0.77170  Biso   1.000  C
  C147     1.0000 0.43720  0.46880  0.22830  Biso   1.000  C
  C148     1.0000 0.56280  0.53120  0.22830  Biso   1.000  C
  C149     1.0000 0.03120  0.93720  0.27170  Biso   1.000  C
  C150     1.0000 0.96880  0.06280  0.27170  Biso   1.000  C
  C151     1.0000 0.93720  0.96880  0.72830  Biso   1.000  C
  C152     1.0000 0.06280  0.03120  0.72830  Biso   1.000  C
  H137     1.0000 0.51520  0.45670  0.71480  Biso   1.000  H
  H138     1.0000 0.48480  0.54330  0.71480  Biso   1.000  H
  H139     1.0000 0.45670  0.48480  0.28520  Biso   1.000  H
  H140     1.0000 0.54330  0.51520  0.28520  Biso   1.000  H
  H141     1.0000 0.01520  0.95670  0.21480  Biso   1.000  H
  H142     1.0000 0.98480  0.04330  0.21480  Biso   1.000  H
  H143     1.0000 0.95670  0.98480  0.78520  Biso   1.000  H
  H144     1.0000 0.04330  0.01520  0.78520  Biso   1.000  H
  C153     1.0000 0.52970  0.39090  0.74890  Biso   1.000  C
  C154     1.0000 0.47030  0.60910  0.74890  Biso   1.000  C
  C155     1.0000 0.39090  0.47030  0.25110  Biso   1.000  C
  C156     1.0000 0.60910  0.52970  0.25110  Biso   1.000  C
  C157     1.0000 0.02970  0.89090  0.24890  Biso   1.000  C
  C158     1.0000 0.97030  0.10910  0.24890  Biso   1.000  C
  C159     1.0000 0.89090  0.97030  0.75110  Biso   1.000  C
  C160     1.0000 0.10910  0.02970  0.75110  Biso   1.000  C
  H145     1.0000 0.51280  0.37940  0.67680  Biso   1.000  H
  H146     1.0000 0.48720  0.62060  0.67680  Biso   1.000  H
  H147     1.0000 0.37940  0.48720  0.32320  Biso   1.000  H
  H148     1.0000 0.62060  0.51280  0.32320  Biso   1.000  H
  H149     1.0000 0.01280  0.87940  0.17680  Biso   1.000  H
  H150     1.0000 0.98720  0.12060  0.17680  Biso   1.000  H
  H151     1.0000 0.87940  0.98720  0.82320  Biso   1.000  H
  H152     1.0000 0.12060  0.01280  0.82320  Biso   1.000  H
  C161     1.0000 0.67950  0.21810  0.73550  Biso   1.000  C
  C162     1.0000 0.32050  0.78190  0.73550  Biso   1.000  C
  C163     1.0000 0.21810  0.32050  0.26450  Biso   1.000  C
  C164     1.0000 0.78190  0.67950  0.26450  Biso   1.000  C
  C165     1.0000 0.17950  0.71810  0.23550  Biso   1.000  C
  C166     1.0000 0.82050  0.28190  0.23550  Biso   1.000  C
  C167     1.0000 0.71810  0.82050  0.76450  Biso   1.000  C
  C168     1.0000 0.28190  0.17950  0.76450  Biso   1.000  C
  C169     1.0000 0.70530  0.19540  0.83250  Biso   1.000  C
  C170     1.0000 0.29470  0.80460  0.83250  Biso   1.000  C
  C171     1.0000 0.19540  0.29470  0.16750  Biso   1.000  C
  C172     1.0000 0.80460  0.70530  0.16750  Biso   1.000  C
  C173     1.0000 0.20530  0.69540  0.33250  Biso   1.000  C
  C174     1.0000 0.79470  0.30460  0.33250  Biso   1.000  C
  C175     1.0000 0.69540  0.79470  0.66750  Biso   1.000  C
  C176     1.0000 0.30460  0.20530  0.66750  Biso   1.000  C
  H153     1.0000 0.69150  0.18270  0.90880  Biso   1.000  H
  H154     1.0000 0.30850  0.81730  0.90880  Biso   1.000  H
  H155     1.0000 0.18270  0.30850  0.09120  Biso   1.000  H
  H156     1.0000 0.81730  0.69150  0.09120  Biso   1.000  H
  H157     1.0000 0.19150  0.68270  0.40880  Biso   1.000  H
  H158     1.0000 0.80850  0.31730  0.40880  Biso   1.000  H
  H159     1.0000 0.68270  0.80850  0.59120  Biso   1.000  H
  H160     1.0000 0.31730  0.19150  0.59120  Biso   1.000  H
  C177     1.0000 0.75180  0.19180  0.81550  Biso   1.000  C
  C178     1.0000 0.24820  0.80820  0.81550  Biso   1.000  C
  C179     1.0000 0.19180  0.24820  0.18450  Biso   1.000  C
  C180     1.0000 0.80820  0.75180  0.18450  Biso   1.000  C
  C181     1.0000 0.25180  0.69180  0.31550  Biso   1.000  C
  C182     1.0000 0.74820  0.30820  0.31550  Biso   1.000  C
  C183     1.0000 0.69180  0.74820  0.68450  Biso   1.000  C
  C184     1.0000 0.30820  0.25180  0.68450  Biso   1.000  C
  H161     1.0000 0.76900  0.17660  0.88040  Biso   1.000  H
  H162     1.0000 0.23100  0.82340  0.88040  Biso   1.000  H
  H163     1.0000 0.17660  0.23100  0.11960  Biso   1.000  H
  H164     1.0000 0.82340  0.76900  0.11960  Biso   1.000  H
  H165     1.0000 0.26900  0.67660  0.38040  Biso   1.000  H
  H166     1.0000 0.73100  0.32340  0.38040  Biso   1.000  H
  H167     1.0000 0.67660  0.73100  0.61960  Biso   1.000  H
  H168     1.0000 0.32340  0.26900  0.61960  Biso   1.000  H
  C185     1.0000 0.77250  0.21080  0.70150  Biso   1.000  C
  C186     1.0000 0.22750  0.78920  0.70150  Biso   1.000  C
  C187     1.0000 0.21080  0.22750  0.29850  Biso   1.000  C
  C188     1.0000 0.78920  0.77250  0.29850  Biso   1.000  C
  C189     1.0000 0.27250  0.71080  0.20150  Biso   1.000  C
  C190     1.0000 0.72750  0.28920  0.20150  Biso   1.000  C
  C191     1.0000 0.71080  0.72750  0.79850  Biso   1.000  C
  C192     1.0000 0.28920  0.27250  0.79850  Biso   1.000  C
  H169     1.0000 0.80350  0.20830  0.69010  Biso   1.000  H
  H170     1.0000 0.19650  0.79170  0.69010  Biso   1.000  H
  H171     1.0000 0.20830  0.19650  0.30990  Biso   1.000  H
  H172     1.0000 0.79170  0.80350  0.30990  Biso   1.000  H
  H173     1.0000 0.30350  0.70830  0.19010  Biso   1.000  H
  H174     1.0000 0.69650  0.29170  0.19010  Biso   1.000  H
  H175     1.0000 0.70830  0.69650  0.80990  Biso   1.000  H
  H176     1.0000 0.29170  0.30350  0.80990  Biso   1.000  H
  C193     1.0000 0.74670  0.23350  0.60450  Biso   1.000  C
  C194     1.0000 0.25330  0.76650  0.60450  Biso   1.000  C
  C195     1.0000 0.23350  0.25330  0.39550  Biso   1.000  C
  C196     1.0000 0.76650  0.74670  0.39550  Biso   1.000  C
  C197     1.0000 0.24670  0.73350  0.10450  Biso   1.000  C
  C198     1.0000 0.75330  0.26650  0.10450  Biso   1.000  C
  C199     1.0000 0.73350  0.75330  0.89550  Biso   1.000  C
  C200     1.0000 0.26650  0.24670  0.89550  Biso   1.000  C
  H177     1.0000 0.76050  0.24620  0.52820  Biso   1.000  H
  H178     1.0000 0.23950  0.75380  0.52820  Biso   1.000  H
  H179     1.0000 0.24620  0.23950  0.47180  Biso   1.000  H
  H180     1.0000 0.75380  0.76050  0.47180  Biso   1.000  H
  H181     1.0000 0.26050  0.74620  0.02820  Biso   1.000  H
  H182     1.0000 0.73950  0.25380  0.02820  Biso   1.000  H
  H183     1.0000 0.74620  0.73950  0.97180  Biso   1.000  H
  H184     1.0000 0.25380  0.26050  0.97180  Biso   1.000  H
  C201     1.0000 0.70020  0.23710  0.62150  Biso   1.000  C
  C202     1.0000 0.29980  0.76290  0.62150  Biso   1.000  C
  C203     1.0000 0.23710  0.29980  0.37850  Biso   1.000  C
  C204     1.0000 0.76290  0.70020  0.37850  Biso   1.000  C
  C205     1.0000 0.20020  0.73710  0.12150  Biso   1.000  C
  C206     1.0000 0.79980  0.26290  0.12150  Biso   1.000  C
  C207     1.0000 0.73710  0.79980  0.87850  Biso   1.000  C
  C208     1.0000 0.26290  0.20020  0.87850  Biso   1.000  C
  H185     1.0000 0.68300  0.25230  0.55660  Biso   1.000  H
  H186     1.0000 0.31700  0.74770  0.55660  Biso   1.000  H
  H187     1.0000 0.25230  0.31700  0.44340  Biso   1.000  H
  H188     1.0000 0.74770  0.68300  0.44340  Biso   1.000  H
  H189     1.0000 0.18300  0.75230  0.05660  Biso   1.000  H
  H190     1.0000 0.81700  0.24770  0.05660  Biso   1.000  H
  H191     1.0000 0.75230  0.81700  0.94340  Biso   1.000  H
  H192     1.0000 0.24770  0.18300  0.94340  Biso   1.000  H
  C209     1.0000 0.51680  0.16440  0.72100  Biso   1.000  C
  C210     1.0000 0.48320  0.83560  0.72100  Biso   1.000  C
  C211     1.0000 0.16440  0.48320  0.27900  Biso   1.000  C
  C212     1.0000 0.83560  0.51680  0.27900  Biso   1.000  C
  C213     1.0000 0.01680  0.66440  0.22100  Biso   1.000  C
  C214     1.0000 0.98320  0.33560  0.22100  Biso   1.000  C
  C215     1.0000 0.66440  0.98320  0.77900  Biso   1.000  C
  C216     1.0000 0.33560  0.01680  0.77900  Biso   1.000  C
  H193     1.0000 0.54620  0.15430  0.70770  Biso   1.000  H
  H194     1.0000 0.45380  0.84570  0.70770  Biso   1.000  H
  H195     1.0000 0.15430  0.45380  0.29230  Biso   1.000  H
  H196     1.0000 0.84570  0.54620  0.29230  Biso   1.000  H
  H197     1.0000 0.04620  0.65430  0.20770  Biso   1.000  H
  H198     1.0000 0.95380  0.34570  0.20770  Biso   1.000  H
  H199     1.0000 0.65430  0.95380  0.79230  Biso   1.000  H
  H200     1.0000 0.34570  0.04620  0.79230  Biso   1.000  H
  C217     1.0000 0.48640  0.13940  0.81300  Biso   1.000  C
  C218     1.0000 0.51360  0.86060  0.81300  Biso   1.000  C
  C219     1.0000 0.13940  0.51360  0.18700  Biso   1.000  C
  C220     1.0000 0.86060  0.48640  0.18700  Biso   1.000  C
  C221     1.0000 0.98640  0.63940  0.31300  Biso   1.000  C
  C222     1.0000 0.01360  0.36060  0.31300  Biso   1.000  C
  C223     1.0000 0.63940  0.01360  0.68700  Biso   1.000  C
  C224     1.0000 0.36060  0.98640  0.68700  Biso   1.000  C
  H201     1.0000 0.49500  0.11200  0.85200  Biso   1.000  H
  H202     1.0000 0.50500  0.88800  0.85200  Biso   1.000  H
  H203     1.0000 0.11200  0.50500  0.14800  Biso   1.000  H
  H204     1.0000 0.88800  0.49500  0.14800  Biso   1.000  H
  H205     1.0000 0.99500  0.61200  0.35200  Biso   1.000  H
  H206     1.0000 0.00500  0.38800  0.35200  Biso   1.000  H
  H207     1.0000 0.61200  0.00500  0.64800  Biso   1.000  H
  H208     1.0000 0.38800  0.99500  0.64800  Biso   1.000  H
  C225     1.0000 0.44320  0.15870  0.84200  Biso   1.000  C
  C226     1.0000 0.55680  0.84130  0.84200  Biso   1.000  C
  C227     1.0000 0.15870  0.55680  0.15800  Biso   1.000  C
  C228     1.0000 0.84130  0.44320  0.15800  Biso   1.000  C
  C229     1.0000 0.94320  0.65870  0.34200  Biso   1.000  C
  C230     1.0000 0.05680  0.34130  0.34200  Biso   1.000  C
  C231     1.0000 0.65870  0.05680  0.65800  Biso   1.000  C
  C232     1.0000 0.34130  0.94320  0.65800  Biso   1.000  C
  C233     1.0000 0.43220  0.19830  0.77000  Biso   1.000  C
  C234     1.0000 0.56780  0.80170  0.77000  Biso   1.000  C
  C235     1.0000 0.19830  0.56780  0.23000  Biso   1.000  C
  C236     1.0000 0.80170  0.43220  0.23000  Biso   1.000  C
  C237     1.0000 0.93220  0.69830  0.27000  Biso   1.000  C
  C238     1.0000 0.06780  0.30170  0.27000  Biso   1.000  C
  C239     1.0000 0.69830  0.06780  0.73000  Biso   1.000  C
  C240     1.0000 0.30170  0.93220  0.73000  Biso   1.000  C
  H209     1.0000 0.40440  0.21220  0.78570  Biso   1.000  H
  H210     1.0000 0.59560  0.78780  0.78570  Biso   1.000  H
  H211     1.0000 0.21220  0.59560  0.21430  Biso   1.000  H
  H212     1.0000 0.78780  0.40440  0.21430  Biso   1.000  H
  H213     1.0000 0.90440  0.71220  0.28570  Biso   1.000  H
  H214     1.0000 0.09560  0.28780  0.28570  Biso   1.000  H
  H215     1.0000 0.71220  0.09560  0.71430  Biso   1.000  H
  H216     1.0000 0.28780  0.90440  0.71430  Biso   1.000  H
  C241     1.0000 0.46260  0.21720  0.67600  Biso   1.000  C
  C242     1.0000 0.53740  0.78280  0.67600  Biso   1.000  C
  C243     1.0000 0.21720  0.53740  0.32400  Biso   1.000  C
  C244     1.0000 0.78280  0.46260  0.32400  Biso   1.000  C
  C245     1.0000 0.96260  0.71720  0.17600  Biso   1.000  C
  C246     1.0000 0.03740  0.28280  0.17600  Biso   1.000  C
  C247     1.0000 0.71720  0.03740  0.82400  Biso   1.000  C
  C248     1.0000 0.28280  0.96260  0.82400  Biso   1.000  C
  H217     1.0000 0.45380  0.24250  0.62620  Biso   1.000  H
  H218     1.0000 0.54620  0.75750  0.62620  Biso   1.000  H
  H219     1.0000 0.24250  0.54620  0.37380  Biso   1.000  H
  H220     1.0000 0.75750  0.45380  0.37380  Biso   1.000  H
  H221     1.0000 0.95380  0.74250  0.12620  Biso   1.000  H
  H222     1.0000 0.04620  0.25750  0.12620  Biso   1.000  H
  H223     1.0000 0.74250  0.04620  0.87380  Biso   1.000  H
  H224     1.0000 0.25750  0.95380  0.87380  Biso   1.000  H
  C249     1.0000 0.40660  0.13480  0.92500  Biso   1.000  C
  C250     1.0000 0.59340  0.86520  0.92500  Biso   1.000  C
  C251     1.0000 0.13480  0.59340  0.07500  Biso   1.000  C
  C252     1.0000 0.86520  0.40660  0.07500  Biso   1.000  C
  C253     1.0000 0.90660  0.63480  0.42500  Biso   1.000  C
  C254     1.0000 0.09340  0.36520  0.42500  Biso   1.000  C
  C255     1.0000 0.63480  0.09340  0.57500  Biso   1.000  C
  C256     1.0000 0.36520  0.90660  0.57500  Biso   1.000  C
  H225     1.0000 0.37690  0.14710  0.90530  Biso   1.000  H
  H226     1.0000 0.62310  0.85290  0.90530  Biso   1.000  H
  H227     1.0000 0.14710  0.62310  0.09470  Biso   1.000  H
  H228     1.0000 0.85290  0.37690  0.09470  Biso   1.000  H
  H229     1.0000 0.87690  0.64710  0.40530  Biso   1.000  H
  H230     1.0000 0.12310  0.35290  0.40530  Biso   1.000  H
  H231     1.0000 0.64710  0.12310  0.59470  Biso   1.000  H
  H232     1.0000 0.35290  0.87690  0.59470  Biso   1.000  H
  H233     1.0000 0.40640  0.10260  0.90740  Biso   1.000  H
  H234     1.0000 0.59360  0.89740  0.90740  Biso   1.000  H
  H235     1.0000 0.10260  0.59360  0.09260  Biso   1.000  H
  H236     1.0000 0.89740  0.40640  0.09260  Biso   1.000  H
  H237     1.0000 0.90640  0.60260  0.40740  Biso   1.000  H
  H238     1.0000 0.09360  0.39740  0.40740  Biso   1.000  H
  H239     1.0000 0.60260  0.09360  0.59260  Biso   1.000  H
  H240     1.0000 0.39740  0.90640  0.59260  Biso   1.000  H
  C257     1.0000 0.42070  0.14490  0.06800  Biso   1.000  C
  C258     1.0000 0.57930  0.85510  0.06800  Biso   1.000  C
  C259     1.0000 0.14490  0.57930  0.93200  Biso   1.000  C
  C260     1.0000 0.85510  0.42070  0.93200  Biso   1.000  C
  C261     1.0000 0.92070  0.64490  0.56800  Biso   1.000  C
  C262     1.0000 0.07930  0.35510  0.56800  Biso   1.000  C
  C263     1.0000 0.64490  0.07930  0.43200  Biso   1.000  C
  C264     1.0000 0.35510  0.92070  0.43200  Biso   1.000  C
  H241     1.0000 0.42430  0.17710  0.08290  Biso   1.000  H
  H242     1.0000 0.57570  0.82290  0.08290  Biso   1.000  H
  H243     1.0000 0.17710  0.57570  0.91710  Biso   1.000  H
  H244     1.0000 0.82290  0.42430  0.91710  Biso   1.000  H
  H245     1.0000 0.92430  0.67710  0.58290  Biso   1.000  H
  H246     1.0000 0.07570  0.32290  0.58290  Biso   1.000  H
  H247     1.0000 0.67710  0.07570  0.41710  Biso   1.000  H
  H248     1.0000 0.32290  0.92430  0.41710  Biso   1.000  H
  H249     1.0000 0.44860  0.12960  0.09180  Biso   1.000  H
  H250     1.0000 0.55140  0.87040  0.09180  Biso   1.000  H
  H251     1.0000 0.12960  0.55140  0.90820  Biso   1.000  H
  H252     1.0000 0.87040  0.44860  0.90820  Biso   1.000  H
  H253     1.0000 0.94860  0.62960  0.59180  Biso   1.000  H
  H254     1.0000 0.05140  0.37040  0.59180  Biso   1.000  H
  H255     1.0000 0.62960  0.05140  0.40820  Biso   1.000  H
  H256     1.0000 0.37040  0.94860  0.40820  Biso   1.000  H
  C265     1.0000 0.38080  0.12630  0.15000  Biso   1.000  C
  C266     1.0000 0.61920  0.87370  0.15000  Biso   1.000  C
  C267     1.0000 0.12630  0.61920  0.85000  Biso   1.000  C
  C268     1.0000 0.87370  0.38080  0.85000  Biso   1.000  C
  C269     1.0000 0.88080  0.62630  0.65000  Biso   1.000  C
  C270     1.0000 0.11920  0.37370  0.65000  Biso   1.000  C
  C271     1.0000 0.62630  0.11920  0.35000  Biso   1.000  C
  C272     1.0000 0.37370  0.88080  0.35000  Biso   1.000  C
  C273     1.0000 0.34730  0.06400  0.28700  Biso   1.000  C
  C274     1.0000 0.65270  0.93600  0.28700  Biso   1.000  C
  C275     1.0000 0.06400  0.65270  0.71300  Biso   1.000  C
  C276     1.0000 0.93600  0.34730  0.71300  Biso   1.000  C
  C277     1.0000 0.84730  0.56400  0.78700  Biso   1.000  C
  C278     1.0000 0.15270  0.43600  0.78700  Biso   1.000  C
  C279     1.0000 0.56400  0.15270  0.21300  Biso   1.000  C
  C280     1.0000 0.43600  0.84730  0.21300  Biso   1.000  C
  H257     1.0000 0.34650  0.03350  0.30950  Biso   1.000  H
  H258     1.0000 0.65350  0.96650  0.30950  Biso   1.000  H
  H259     1.0000 0.03350  0.65350  0.69050  Biso   1.000  H
  H260     1.0000 0.96650  0.34650  0.69050  Biso   1.000  H
  H261     1.0000 0.84650  0.53350  0.80950  Biso   1.000  H
  H262     1.0000 0.15350  0.46650  0.80950  Biso   1.000  H
  H263     1.0000 0.53350  0.15350  0.19050  Biso   1.000  H
  H264     1.0000 0.46650  0.84650  0.19050  Biso   1.000  H
  C281     1.0000 0.38130  0.08020  0.19100  Biso   1.000  C
  C282     1.0000 0.61870  0.91980  0.19100  Biso   1.000  C
  C283     1.0000 0.08020  0.61870  0.80900  Biso   1.000  C
  C284     1.0000 0.91980  0.38130  0.80900  Biso   1.000  C
  C285     1.0000 0.88130  0.58020  0.69100  Biso   1.000  C
  C286     1.0000 0.11870  0.41980  0.69100  Biso   1.000  C
  C287     1.0000 0.58020  0.11870  0.30900  Biso   1.000  C
  C288     1.0000 0.41980  0.88130  0.30900  Biso   1.000  C
  H265     1.0000 0.40300  0.06100  0.15630  Biso   1.000  H
  H266     1.0000 0.59700  0.93900  0.15630  Biso   1.000  H
  H267     1.0000 0.06100  0.59700  0.84370  Biso   1.000  H
  H268     1.0000 0.93900  0.40300  0.84370  Biso   1.000  H
  H269     1.0000 0.90300  0.56100  0.65630  Biso   1.000  H
  H270     1.0000 0.09700  0.43900  0.65630  Biso   1.000  H
  H271     1.0000 0.56100  0.09700  0.34370  Biso   1.000  H
  H272     1.0000 0.43900  0.90300  0.34370  Biso   1.000  H
  C289     1.0000 0.34670  0.15170  0.20900  Biso   1.000  C
  C290     1.0000 0.65330  0.84830  0.20900  Biso   1.000  C
  C291     1.0000 0.15170  0.65330  0.79100  Biso   1.000  C
  C292     1.0000 0.84830  0.34670  0.79100  Biso   1.000  C
  C293     1.0000 0.84670  0.65170  0.70900  Biso   1.000  C
  C294     1.0000 0.15330  0.34830  0.70900  Biso   1.000  C
  C295     1.0000 0.65170  0.15330  0.29100  Biso   1.000  C
  C296     1.0000 0.34830  0.84670  0.29100  Biso   1.000  C
  H273     1.0000 0.34400  0.18200  0.18540  Biso   1.000  H
  H274     1.0000 0.65600  0.81800  0.18540  Biso   1.000  H
  H275     1.0000 0.18200  0.65600  0.81460  Biso   1.000  H
  H276     1.0000 0.81800  0.34400  0.81460  Biso   1.000  H
  H277     1.0000 0.84400  0.68200  0.68540  Biso   1.000  H
  H278     1.0000 0.15600  0.31800  0.68540  Biso   1.000  H
  H279     1.0000 0.68200  0.15600  0.31460  Biso   1.000  H
  H280     1.0000 0.31800  0.84400  0.31460  Biso   1.000  H
  C297     1.0000 0.31480  0.13380  0.30400  Biso   1.000  C
  C298     1.0000 0.68520  0.86620  0.30400  Biso   1.000  C
  C299     1.0000 0.13380  0.68520  0.69600  Biso   1.000  C
  C300     1.0000 0.86620  0.31480  0.69600  Biso   1.000  C
  C301     1.0000 0.81480  0.63380  0.80400  Biso   1.000  C
  C302     1.0000 0.18520  0.36620  0.80400  Biso   1.000  C
  C303     1.0000 0.63380  0.18520  0.19600  Biso   1.000  C
  C304     1.0000 0.36620  0.81480  0.19600  Biso   1.000  C
  H281     1.0000 0.29200  0.15200  0.33860  Biso   1.000  H
  H282     1.0000 0.70800  0.84800  0.33860  Biso   1.000  H
  H283     1.0000 0.15200  0.70800  0.66140  Biso   1.000  H
  H284     1.0000 0.84800  0.29200  0.66140  Biso   1.000  H
  H285     1.0000 0.79200  0.65200  0.83860  Biso   1.000  H
  H286     1.0000 0.20800  0.34800  0.83860  Biso   1.000  H
  H287     1.0000 0.65200  0.20800  0.16140  Biso   1.000  H
  H288     1.0000 0.34800  0.79200  0.16140  Biso   1.000  H
  O65      1.0000 0.60250  0.10910  0.90200  Biso   1.000  O
  O66      1.0000 0.39750  0.89090  0.90200  Biso   1.000  O
  O67      1.0000 0.10910  0.39750  0.09800  Biso   1.000  O
  O68      1.0000 0.89090  0.60250  0.09800  Biso   1.000  O
  O69      1.0000 0.10250  0.60910  0.40200  Biso   1.000  O
  O70      1.0000 0.89750  0.39090  0.40200  Biso   1.000  O
  O71      1.0000 0.60910  0.89750  0.59800  Biso   1.000  O
  O72      1.0000 0.39090  0.10250  0.59800  Biso   1.000  O
  O73      1.0000 0.45490  0.14230  0.39800  Biso   1.000  O
  O74      1.0000 0.54510  0.85770  0.39800  Biso   1.000  O
  O75      1.0000 0.14230  0.54510  0.60200  Biso   1.000  O
  O76      1.0000 0.85770  0.45490  0.60200  Biso   1.000  O
  O77      1.0000 0.95490  0.64230  0.89800  Biso   1.000  O
  O78      1.0000 0.04510  0.35770  0.89800  Biso   1.000  O
  O79      1.0000 0.64230  0.04510  0.10200  Biso   1.000  O
  O80      1.0000 0.35770  0.95490  0.10200  Biso   1.000  O
