data_image0
_cell_length_a       29.573
_cell_length_b       29.573
_cell_length_c       9.736
_cell_angle_alpha    90
_cell_angle_beta     90
_cell_angle_gamma    90

_symmetry_space_group_name_H-M    "P 1"
_symmetry_int_tables_number       1

loop_
  _symmetry_equiv_pos_as_xyz
  'x, y, z'

loop_
  _atom_site_label
  _atom_site_occupancy
  _atom_site_fract_x
  _atom_site_fract_y
  _atom_site_fract_z
  _atom_site_thermal_displace_type
  _atom_site_B_iso_or_equiv
  _atom_site_type_symbol
  Cu1      1.0000 0.26898  0.06604  0.03431  Biso   1.000  Cu
  Cu2      1.0000 0.73102  0.93396  0.03431  Biso   1.000  Cu
  Cu3      1.0000 0.06604  0.73102  0.96569  Biso   1.000  Cu
  Cu4      1.0000 0.93396  0.26898  0.96569  Biso   1.000  Cu
  Cu5      1.0000 0.76898  0.56604  0.53431  Biso   1.000  Cu
  Cu6      1.0000 0.23102  0.43396  0.53431  Biso   1.000  Cu
  Cu7      1.0000 0.56604  0.23102  0.46569  Biso   1.000  Cu
  Cu8      1.0000 0.43396  0.76898  0.46569  Biso   1.000  Cu
  Cu9      1.0000 0.26460  0.04490  0.53085  Biso   1.000  Cu
  Cu10     1.0000 0.73540  0.95510  0.53085  Biso   1.000  Cu
  Cu11     1.0000 0.04490  0.73540  0.46915  Biso   1.000  Cu
  Cu12     1.0000 0.95510  0.26460  0.46915  Biso   1.000  Cu
  Cu13     1.0000 0.76460  0.54490  0.03085  Biso   1.000  Cu
  Cu14     1.0000 0.23540  0.45510  0.03085  Biso   1.000  Cu
  Cu15     1.0000 0.54490  0.23540  0.96915  Biso   1.000  Cu
  Cu16     1.0000 0.45510  0.76460  0.96915  Biso   1.000  Cu
  P1       1.0000 0.19687  0.05410  0.79410  Biso   1.000  P
  P2       1.0000 0.80313  0.94590  0.79410  Biso   1.000  P
  P3       1.0000 0.05410  0.80313  0.20590  Biso   1.000  P
  P4       1.0000 0.94590  0.19687  0.20590  Biso   1.000  P
  P5       1.0000 0.69687  0.55410  0.29410  Biso   1.000  P
  P6       1.0000 0.30313  0.44590  0.29410  Biso   1.000  P
  P7       1.0000 0.55410  0.30313  0.70590  Biso   1.000  P
  P8       1.0000 0.44590  0.69687  0.70590  Biso   1.000  P
  P9       1.0000 0.27072  0.12083  0.75830  Biso   1.000  P
  P10      1.0000 0.72928  0.87917  0.75830  Biso   1.000  P
  P11      1.0000 0.12083  0.72928  0.24170  Biso   1.000  P
  P12      1.0000 0.87917  0.27072  0.24170  Biso   1.000  P
  P13      1.0000 0.77072  0.62083  0.25830  Biso   1.000  P
  P14      1.0000 0.22928  0.37917  0.25830  Biso   1.000  P
  P15      1.0000 0.62083  0.22928  0.74170  Biso   1.000  P
  P16      1.0000 0.37917  0.77072  0.74170  Biso   1.000  P
  P17      1.0000 0.20140  0.08466  0.28980  Biso   1.000  P
  P18      1.0000 0.79860  0.91534  0.28980  Biso   1.000  P
  P19      1.0000 0.08466  0.79860  0.71020  Biso   1.000  P
  P20      1.0000 0.91534  0.20140  0.71020  Biso   1.000  P
  P21      1.0000 0.70140  0.58466  0.78980  Biso   1.000  P
  P22      1.0000 0.29860  0.41534  0.78980  Biso   1.000  P
  P23      1.0000 0.58466  0.29860  0.21020  Biso   1.000  P
  P24      1.0000 0.41534  0.70140  0.21020  Biso   1.000  P
  P25      1.0000 0.24127  0.99366  0.25860  Biso   1.000  P
  P26      1.0000 0.75873  0.00634  0.25860  Biso   1.000  P
  P27      1.0000 0.99366  0.75873  0.74140  Biso   1.000  P
  P28      1.0000 0.00634  0.24127  0.74140  Biso   1.000  P
  P29      1.0000 0.74127  0.49366  0.75860  Biso   1.000  P
  P30      1.0000 0.25873  0.50634  0.75860  Biso   1.000  P
  P31      1.0000 0.49366  0.25873  0.24140  Biso   1.000  P
  P32      1.0000 0.50634  0.74127  0.24140  Biso   1.000  P
  O1       1.0000 0.21760  0.10470  0.15880  Biso   1.000  O
  O2       1.0000 0.78240  0.89530  0.15880  Biso   1.000  O
  O3       1.0000 0.10470  0.78240  0.84120  Biso   1.000  O
  O4       1.0000 0.89530  0.21760  0.84120  Biso   1.000  O
  O5       1.0000 0.71760  0.60470  0.65880  Biso   1.000  O
  O6       1.0000 0.28240  0.39530  0.65880  Biso   1.000  O
  O7       1.0000 0.60470  0.28240  0.34120  Biso   1.000  O
  O8       1.0000 0.39530  0.71760  0.34120  Biso   1.000  O
  O9       1.0000 0.20490  0.02950  0.66260  Biso   1.000  O
  O10      1.0000 0.79510  0.97050  0.66260  Biso   1.000  O
  O11      1.0000 0.02950  0.79510  0.33740  Biso   1.000  O
  O12      1.0000 0.97050  0.20490  0.33740  Biso   1.000  O
  O13      1.0000 0.70490  0.52950  0.16260  Biso   1.000  O
  O14      1.0000 0.29510  0.47050  0.16260  Biso   1.000  O
  O15      1.0000 0.52950  0.29510  0.83740  Biso   1.000  O
  O16      1.0000 0.47050  0.70490  0.83740  Biso   1.000  O
  O17      1.0000 0.29050  0.10810  0.89560  Biso   1.000  O
  O18      1.0000 0.70950  0.89190  0.89560  Biso   1.000  O
  O19      1.0000 0.10810  0.70950  0.10440  Biso   1.000  O
  O20      1.0000 0.89190  0.29050  0.10440  Biso   1.000  O
  O21      1.0000 0.79050  0.60810  0.39560  Biso   1.000  O
  O22      1.0000 0.20950  0.39190  0.39560  Biso   1.000  O
  O23      1.0000 0.60810  0.20950  0.60440  Biso   1.000  O
  O24      1.0000 0.39190  0.79050  0.60440  Biso   1.000  O
  O25      1.0000 0.28859  0.09684  0.63400  Biso   1.000  O
  O26      1.0000 0.71141  0.90316  0.63400  Biso   1.000  O
  O27      1.0000 0.09684  0.71141  0.36600  Biso   1.000  O
  O28      1.0000 0.90316  0.28859  0.36600  Biso   1.000  O
  O29      1.0000 0.78859  0.59684  0.13400  Biso   1.000  O
  O30      1.0000 0.21141  0.40316  0.13400  Biso   1.000  O
  O31      1.0000 0.59684  0.21141  0.86600  Biso   1.000  O
  O32      1.0000 0.40316  0.78859  0.86600  Biso   1.000  O
  O33      1.0000 0.22260  0.03882  0.91810  Biso   1.000  O
  O34      1.0000 0.77740  0.96118  0.91810  Biso   1.000  O
  O35      1.0000 0.03882  0.77740  0.08190  Biso   1.000  O
  O36      1.0000 0.96118  0.22260  0.08190  Biso   1.000  O
  O37      1.0000 0.72260  0.53882  0.41810  Biso   1.000  O
  O38      1.0000 0.27740  0.46118  0.41810  Biso   1.000  O
  O39      1.0000 0.53882  0.27740  0.58190  Biso   1.000  O
  O40      1.0000 0.46118  0.72260  0.58190  Biso   1.000  O
  O41      1.0000 0.23280  0.08679  0.41020  Biso   1.000  O
  O42      1.0000 0.76720  0.91321  0.41020  Biso   1.000  O
  O43      1.0000 0.08679  0.76720  0.58980  Biso   1.000  O
  O44      1.0000 0.91321  0.23280  0.58980  Biso   1.000  O
  O45      1.0000 0.73280  0.58679  0.91020  Biso   1.000  O
  O46      1.0000 0.26720  0.41321  0.91020  Biso   1.000  O
  O47      1.0000 0.58679  0.26720  0.08980  Biso   1.000  O
  O48      1.0000 0.41321  0.73280  0.08980  Biso   1.000  O
  O49      1.0000 0.27054  0.01063  0.14300  Biso   1.000  O
  O50      1.0000 0.72946  0.98937  0.14300  Biso   1.000  O
  O51      1.0000 0.01063  0.72946  0.85700  Biso   1.000  O
  O52      1.0000 0.98937  0.27054  0.85700  Biso   1.000  O
  O53      1.0000 0.77054  0.51063  0.64300  Biso   1.000  O
  O54      1.0000 0.22946  0.48937  0.64300  Biso   1.000  O
  O55      1.0000 0.51063  0.22946  0.35700  Biso   1.000  O
  O56      1.0000 0.48937  0.77054  0.35700  Biso   1.000  O
  O57      1.0000 0.26060  0.99544  0.40030  Biso   1.000  O
  O58      1.0000 0.73940  0.00456  0.40030  Biso   1.000  O
  O59      1.0000 0.99544  0.73940  0.59970  Biso   1.000  O
  O60      1.0000 0.00456  0.26060  0.59970  Biso   1.000  O
  O61      1.0000 0.76060  0.49544  0.90030  Biso   1.000  O
  O62      1.0000 0.23940  0.50456  0.90030  Biso   1.000  O
  O63      1.0000 0.49544  0.23940  0.09970  Biso   1.000  O
  O64      1.0000 0.50456  0.76060  0.09970  Biso   1.000  O
  N1       1.0000 0.40950  0.81770  0.34180  Biso   1.000  N
  N2       1.0000 0.59050  0.18230  0.34180  Biso   1.000  N
  N3       1.0000 0.81770  0.59050  0.65820  Biso   1.000  N
  N4       1.0000 0.18230  0.40950  0.65820  Biso   1.000  N
  N5       1.0000 0.90950  0.31770  0.84180  Biso   1.000  N
  N6       1.0000 0.09050  0.68230  0.84180  Biso   1.000  N
  N7       1.0000 0.31770  0.09050  0.15820  Biso   1.000  N
  N8       1.0000 0.68230  0.90950  0.15820  Biso   1.000  N
  N9       1.0000 0.30130  0.00370  0.65260  Biso   1.000  N
  N10      1.0000 0.69870  0.99630  0.65260  Biso   1.000  N
  N11      1.0000 0.00370  0.69870  0.34740  Biso   1.000  N
  N12      1.0000 0.99630  0.30130  0.34740  Biso   1.000  N
  N13      1.0000 0.80130  0.50370  0.15260  Biso   1.000  N
  N14      1.0000 0.19870  0.49630  0.15260  Biso   1.000  N
  N15      1.0000 0.50370  0.19870  0.84740  Biso   1.000  N
  N16      1.0000 0.49630  0.80130  0.84740  Biso   1.000  N
  C1       1.0000 0.21120  0.11180  0.76960  Biso   1.000  C
  C2       1.0000 0.78880  0.88820  0.76960  Biso   1.000  C
  C3       1.0000 0.11180  0.78880  0.23040  Biso   1.000  C
  C4       1.0000 0.88820  0.21120  0.23040  Biso   1.000  C
  C5       1.0000 0.71120  0.61180  0.26960  Biso   1.000  C
  C6       1.0000 0.28880  0.38820  0.26960  Biso   1.000  C
  C7       1.0000 0.61180  0.28880  0.73040  Biso   1.000  C
  C8       1.0000 0.38820  0.71120  0.73040  Biso   1.000  C
  H1       1.0000 0.19900  0.12970  0.84710  Biso   1.000  H
  H2       1.0000 0.80100  0.87030  0.84710  Biso   1.000  H
  H3       1.0000 0.12970  0.80100  0.15290  Biso   1.000  H
  H4       1.0000 0.87030  0.19900  0.15290  Biso   1.000  H
  H5       1.0000 0.69900  0.62970  0.34710  Biso   1.000  H
  H6       1.0000 0.30100  0.37030  0.34710  Biso   1.000  H
  H7       1.0000 0.62970  0.30100  0.65290  Biso   1.000  H
  H8       1.0000 0.37030  0.69900  0.65290  Biso   1.000  H
  H9       1.0000 0.19670  0.12280  0.68430  Biso   1.000  H
  H10      1.0000 0.80330  0.87720  0.68430  Biso   1.000  H
  H11      1.0000 0.12280  0.80330  0.31570  Biso   1.000  H
  H12      1.0000 0.87720  0.19670  0.31570  Biso   1.000  H
  H13      1.0000 0.69670  0.62280  0.18430  Biso   1.000  H
  H14      1.0000 0.30330  0.37720  0.18430  Biso   1.000  H
  H15      1.0000 0.62280  0.30330  0.81570  Biso   1.000  H
  H16      1.0000 0.37720  0.69670  0.81570  Biso   1.000  H
  C9       1.0000 0.18900  0.02510  0.25990  Biso   1.000  C
  C10      1.0000 0.81100  0.97490  0.25990  Biso   1.000  C
  C11      1.0000 0.02510  0.81100  0.74010  Biso   1.000  C
  C12      1.0000 0.97490  0.18900  0.74010  Biso   1.000  C
  C13      1.0000 0.68900  0.52510  0.75990  Biso   1.000  C
  C14      1.0000 0.31100  0.47490  0.75990  Biso   1.000  C
  C15      1.0000 0.52510  0.31100  0.24010  Biso   1.000  C
  C16      1.0000 0.47490  0.68900  0.24010  Biso   1.000  C
  H17      1.0000 0.16890  0.01350  0.33330  Biso   1.000  H
  H18      1.0000 0.83110  0.98650  0.33330  Biso   1.000  H
  H19      1.0000 0.01350  0.83110  0.66670  Biso   1.000  H
  H20      1.0000 0.98650  0.16890  0.66670  Biso   1.000  H
  H21      1.0000 0.66890  0.51350  0.83330  Biso   1.000  H
  H22      1.0000 0.33110  0.48650  0.83330  Biso   1.000  H
  H23      1.0000 0.51350  0.33110  0.16670  Biso   1.000  H
  H24      1.0000 0.48650  0.66890  0.16670  Biso   1.000  H
  H25      1.0000 0.17330  0.02140  0.17080  Biso   1.000  H
  H26      1.0000 0.82670  0.97860  0.17080  Biso   1.000  H
  H27      1.0000 0.02140  0.82670  0.82920  Biso   1.000  H
  H28      1.0000 0.97860  0.17330  0.82920  Biso   1.000  H
  H29      1.0000 0.67330  0.52140  0.67080  Biso   1.000  H
  H30      1.0000 0.32670  0.47860  0.67080  Biso   1.000  H
  H31      1.0000 0.52140  0.32670  0.32920  Biso   1.000  H
  H32      1.0000 0.47860  0.67330  0.32920  Biso   1.000  H
  C17      1.0000 0.28020  0.18050  0.73570  Biso   1.000  C
  C18      1.0000 0.71980  0.81950  0.73570  Biso   1.000  C
  C19      1.0000 0.18050  0.71980  0.26430  Biso   1.000  C
  C20      1.0000 0.81950  0.28020  0.26430  Biso   1.000  C
  C21      1.0000 0.78020  0.68050  0.23570  Biso   1.000  C
  C22      1.0000 0.21980  0.31950  0.23570  Biso   1.000  C
  C23      1.0000 0.68050  0.21980  0.76430  Biso   1.000  C
  C24      1.0000 0.31950  0.78020  0.76430  Biso   1.000  C
  C25      1.0000 0.26280  0.20190  0.62270  Biso   1.000  C
  C26      1.0000 0.73720  0.79810  0.62270  Biso   1.000  C
  C27      1.0000 0.20190  0.73720  0.37730  Biso   1.000  C
  C28      1.0000 0.79810  0.26280  0.37730  Biso   1.000  C
  C29      1.0000 0.76280  0.70190  0.12270  Biso   1.000  C
  C30      1.0000 0.23720  0.29810  0.12270  Biso   1.000  C
  C31      1.0000 0.70190  0.23720  0.87730  Biso   1.000  C
  C32      1.0000 0.29810  0.76280  0.87730  Biso   1.000  C
  H33      1.0000 0.24800  0.18480  0.55330  Biso   1.000  H
  H34      1.0000 0.75200  0.81520  0.55330  Biso   1.000  H
  H35      1.0000 0.18480  0.75200  0.44670  Biso   1.000  H
  H36      1.0000 0.81520  0.24800  0.44670  Biso   1.000  H
  H37      1.0000 0.74800  0.68480  0.05330  Biso   1.000  H
  H38      1.0000 0.25200  0.31520  0.05330  Biso   1.000  H
  H39      1.0000 0.68480  0.25200  0.94670  Biso   1.000  H
  H40      1.0000 0.31520  0.74800  0.94670  Biso   1.000  H
  C33      1.0000 0.26690  0.24930  0.60900  Biso   1.000  C
  C34      1.0000 0.73310  0.75070  0.60900  Biso   1.000  C
  C35      1.0000 0.24930  0.73310  0.39100  Biso   1.000  C
  C36      1.0000 0.75070  0.26690  0.39100  Biso   1.000  C
  C37      1.0000 0.76690  0.74930  0.10900  Biso   1.000  C
  C38      1.0000 0.23310  0.25070  0.10900  Biso   1.000  C
  C39      1.0000 0.74930  0.23310  0.89100  Biso   1.000  C
  C40      1.0000 0.25070  0.76690  0.89100  Biso   1.000  C
  H41      1.0000 0.25450  0.26470  0.53240  Biso   1.000  H
  H42      1.0000 0.74550  0.73530  0.53240  Biso   1.000  H
  H43      1.0000 0.26470  0.74550  0.46760  Biso   1.000  H
  H44      1.0000 0.73530  0.25450  0.46760  Biso   1.000  H
  H45      1.0000 0.75450  0.76470  0.03240  Biso   1.000  H
  H46      1.0000 0.24550  0.23530  0.03240  Biso   1.000  H
  H47      1.0000 0.76470  0.24550  0.96760  Biso   1.000  H
  H48      1.0000 0.23530  0.75450  0.96760  Biso   1.000  H
  C41      1.0000 0.28980  0.27240  0.71170  Biso   1.000  C
  C42      1.0000 0.71020  0.72760  0.71170  Biso   1.000  C
  C43      1.0000 0.27240  0.71020  0.28830  Biso   1.000  C
  C44      1.0000 0.72760  0.28980  0.28830  Biso   1.000  C
  C45      1.0000 0.78980  0.77240  0.21170  Biso   1.000  C
  C46      1.0000 0.21020  0.22760  0.21170  Biso   1.000  C
  C47      1.0000 0.77240  0.21020  0.78830  Biso   1.000  C
  C48      1.0000 0.22760  0.78980  0.78830  Biso   1.000  C
  H49      1.0000 0.29150  0.30440  0.70730  Biso   1.000  H
  H50      1.0000 0.70850  0.69560  0.70730  Biso   1.000  H
  H51      1.0000 0.30440  0.70850  0.29270  Biso   1.000  H
  H52      1.0000 0.69560  0.29150  0.29270  Biso   1.000  H
  H53      1.0000 0.79150  0.80440  0.20730  Biso   1.000  H
  H54      1.0000 0.20850  0.19560  0.20730  Biso   1.000  H
  H55      1.0000 0.80440  0.20850  0.79270  Biso   1.000  H
  H56      1.0000 0.19560  0.79150  0.79270  Biso   1.000  H
  C49      1.0000 0.30920  0.25140  0.81460  Biso   1.000  C
  C50      1.0000 0.69080  0.74860  0.81460  Biso   1.000  C
  C51      1.0000 0.25140  0.69080  0.18540  Biso   1.000  C
  C52      1.0000 0.74860  0.30920  0.18540  Biso   1.000  C
  C53      1.0000 0.80920  0.75140  0.31460  Biso   1.000  C
  C54      1.0000 0.19080  0.24860  0.31460  Biso   1.000  C
  C55      1.0000 0.75140  0.19080  0.68540  Biso   1.000  C
  C56      1.0000 0.24860  0.80920  0.68540  Biso   1.000  C
  H57      1.0000 0.32650  0.26810  0.87920  Biso   1.000  H
  H58      1.0000 0.67350  0.73190  0.87920  Biso   1.000  H
  H59      1.0000 0.26810  0.67350  0.12080  Biso   1.000  H
  H60      1.0000 0.73190  0.32650  0.12080  Biso   1.000  H
  H61      1.0000 0.82650  0.76810  0.37920  Biso   1.000  H
  H62      1.0000 0.17350  0.23190  0.37920  Biso   1.000  H
  H63      1.0000 0.76810  0.17350  0.62080  Biso   1.000  H
  H64      1.0000 0.23190  0.82650  0.62080  Biso   1.000  H
  C57      1.0000 0.30480  0.20550  0.83010  Biso   1.000  C
  C58      1.0000 0.69520  0.79450  0.83010  Biso   1.000  C
  C59      1.0000 0.20550  0.69520  0.16990  Biso   1.000  C
  C60      1.0000 0.79450  0.30480  0.16990  Biso   1.000  C
  C61      1.0000 0.80480  0.70550  0.33010  Biso   1.000  C
  C62      1.0000 0.19520  0.29450  0.33010  Biso   1.000  C
  C63      1.0000 0.70550  0.19520  0.66990  Biso   1.000  C
  C64      1.0000 0.29450  0.80480  0.66990  Biso   1.000  C
  H65      1.0000 0.31870  0.19080  0.90580  Biso   1.000  H
  H66      1.0000 0.68130  0.80920  0.90580  Biso   1.000  H
  H67      1.0000 0.19080  0.68130  0.09420  Biso   1.000  H
  H68      1.0000 0.80920  0.31870  0.09420  Biso   1.000  H
  H69      1.0000 0.81870  0.69080  0.40580  Biso   1.000  H
  H70      1.0000 0.18130  0.30920  0.40580  Biso   1.000  H
  H71      1.0000 0.69080  0.18130  0.59420  Biso   1.000  H
  H72      1.0000 0.30920  0.81870  0.59420  Biso   1.000  H
  C65      1.0000 0.13710  0.05320  0.83160  Biso   1.000  C
  C66      1.0000 0.86290  0.94680  0.83160  Biso   1.000  C
  C67      1.0000 0.05320  0.86290  0.16840  Biso   1.000  C
  C68      1.0000 0.94680  0.13710  0.16840  Biso   1.000  C
  C69      1.0000 0.63710  0.55320  0.33160  Biso   1.000  C
  C70      1.0000 0.36290  0.44680  0.33160  Biso   1.000  C
  C71      1.0000 0.55320  0.36290  0.66840  Biso   1.000  C
  C72      1.0000 0.44680  0.63710  0.66840  Biso   1.000  C
  C73      1.0000 0.12040  0.07750  0.94090  Biso   1.000  C
  C74      1.0000 0.87960  0.92250  0.94090  Biso   1.000  C
  C75      1.0000 0.07750  0.87960  0.05910  Biso   1.000  C
  C76      1.0000 0.92250  0.12040  0.05910  Biso   1.000  C
  C77      1.0000 0.62040  0.57750  0.44090  Biso   1.000  C
  C78      1.0000 0.37960  0.42250  0.44090  Biso   1.000  C
  C79      1.0000 0.57750  0.37960  0.55910  Biso   1.000  C
  C80      1.0000 0.42250  0.62040  0.55910  Biso   1.000  C
  H73      1.0000 0.14050  0.09290  0.00130  Biso   1.000  H
  H74      1.0000 0.85950  0.90710  0.00130  Biso   1.000  H
  H75      1.0000 0.09290  0.85950  0.99870  Biso   1.000  H
  H76      1.0000 0.90710  0.14050  0.99870  Biso   1.000  H
  H77      1.0000 0.64050  0.59290  0.50130  Biso   1.000  H
  H78      1.0000 0.35950  0.40710  0.50130  Biso   1.000  H
  H79      1.0000 0.59290  0.35950  0.49870  Biso   1.000  H
  H80      1.0000 0.40710  0.64050  0.49870  Biso   1.000  H
  C81      1.0000 0.07380  0.07940  0.96240  Biso   1.000  C
  C82      1.0000 0.92620  0.92060  0.96240  Biso   1.000  C
  C83      1.0000 0.07940  0.92620  0.03760  Biso   1.000  C
  C84      1.0000 0.92060  0.07380  0.03760  Biso   1.000  C
  C85      1.0000 0.57380  0.57940  0.46240  Biso   1.000  C
  C86      1.0000 0.42620  0.42060  0.46240  Biso   1.000  C
  C87      1.0000 0.57940  0.42620  0.53760  Biso   1.000  C
  C88      1.0000 0.42060  0.57380  0.53760  Biso   1.000  C
  H81      1.0000 0.06210  0.09690  0.03610  Biso   1.000  H
  H82      1.0000 0.93790  0.90310  0.03610  Biso   1.000  H
  H83      1.0000 0.09690  0.93790  0.96390  Biso   1.000  H
  H84      1.0000 0.90310  0.06210  0.96390  Biso   1.000  H
  H85      1.0000 0.56210  0.59690  0.53610  Biso   1.000  H
  H86      1.0000 0.43790  0.40310  0.53610  Biso   1.000  H
  H87      1.0000 0.59690  0.43790  0.46390  Biso   1.000  H
  H88      1.0000 0.40310  0.56210  0.46390  Biso   1.000  H
  C89      1.0000 0.04490  0.05660  0.87960  Biso   1.000  C
  C90      1.0000 0.95510  0.94340  0.87960  Biso   1.000  C
  C91      1.0000 0.05660  0.95510  0.12040  Biso   1.000  C
  C92      1.0000 0.94340  0.04490  0.12040  Biso   1.000  C
  C93      1.0000 0.54490  0.55660  0.37960  Biso   1.000  C
  C94      1.0000 0.45510  0.44340  0.37960  Biso   1.000  C
  C95      1.0000 0.55660  0.45510  0.62040  Biso   1.000  C
  C96      1.0000 0.44340  0.54490  0.62040  Biso   1.000  C
  H89      1.0000 0.01320  0.05930  0.89320  Biso   1.000  H
  H90      1.0000 0.98680  0.94070  0.89320  Biso   1.000  H
  H91      1.0000 0.05930  0.98680  0.10680  Biso   1.000  H
  H92      1.0000 0.94070  0.01320  0.10680  Biso   1.000  H
  H93      1.0000 0.51320  0.55930  0.39320  Biso   1.000  H
  H94      1.0000 0.48680  0.44070  0.39320  Biso   1.000  H
  H95      1.0000 0.55930  0.48680  0.60680  Biso   1.000  H
  H96      1.0000 0.44070  0.51320  0.60680  Biso   1.000  H
  C97      1.0000 0.06110  0.03000  0.77750  Biso   1.000  C
  C98      1.0000 0.93890  0.97000  0.77750  Biso   1.000  C
  C99      1.0000 0.03000  0.93890  0.22250  Biso   1.000  C
  C100     1.0000 0.97000  0.06110  0.22250  Biso   1.000  C
  C101     1.0000 0.56110  0.53000  0.27750  Biso   1.000  C
  C102     1.0000 0.43890  0.47000  0.27750  Biso   1.000  C
  C103     1.0000 0.53000  0.43890  0.72250  Biso   1.000  C
  C104     1.0000 0.47000  0.56110  0.72250  Biso   1.000  C
  H97      1.0000 0.04110  0.01190  0.72430  Biso   1.000  H
  H98      1.0000 0.95890  0.98810  0.72430  Biso   1.000  H
  H99      1.0000 0.01190  0.95890  0.27570  Biso   1.000  H
  H100     1.0000 0.98810  0.04110  0.27570  Biso   1.000  H
  H101     1.0000 0.54110  0.51190  0.22430  Biso   1.000  H
  H102     1.0000 0.45890  0.48810  0.22430  Biso   1.000  H
  H103     1.0000 0.51190  0.45890  0.77570  Biso   1.000  H
  H104     1.0000 0.48810  0.54110  0.77570  Biso   1.000  H
  C105     1.0000 0.10710  0.02950  0.75170  Biso   1.000  C
  C106     1.0000 0.89290  0.97050  0.75170  Biso   1.000  C
  C107     1.0000 0.02950  0.89290  0.24830  Biso   1.000  C
  C108     1.0000 0.97050  0.10710  0.24830  Biso   1.000  C
  C109     1.0000 0.60710  0.52950  0.25170  Biso   1.000  C
  C110     1.0000 0.39290  0.47050  0.25170  Biso   1.000  C
  C111     1.0000 0.52950  0.39290  0.74830  Biso   1.000  C
  C112     1.0000 0.47050  0.60710  0.74830  Biso   1.000  C
  H105     1.0000 0.11820  0.01230  0.67660  Biso   1.000  H
  H106     1.0000 0.88180  0.98770  0.67660  Biso   1.000  H
  H107     1.0000 0.01230  0.88180  0.32340  Biso   1.000  H
  H108     1.0000 0.98770  0.11820  0.32340  Biso   1.000  H
  H109     1.0000 0.61820  0.51230  0.17660  Biso   1.000  H
  H110     1.0000 0.38180  0.48770  0.17660  Biso   1.000  H
  H111     1.0000 0.51230  0.38180  0.82340  Biso   1.000  H
  H112     1.0000 0.48770  0.61820  0.82340  Biso   1.000  H
  C113     1.0000 0.14930  0.11070  0.33860  Biso   1.000  C
  C114     1.0000 0.85070  0.88930  0.33860  Biso   1.000  C
  C115     1.0000 0.11070  0.85070  0.66140  Biso   1.000  C
  C116     1.0000 0.88930  0.14930  0.66140  Biso   1.000  C
  C117     1.0000 0.64930  0.61070  0.83860  Biso   1.000  C
  C118     1.0000 0.35070  0.38930  0.83860  Biso   1.000  C
  C119     1.0000 0.61070  0.35070  0.16140  Biso   1.000  C
  C120     1.0000 0.38930  0.64930  0.16140  Biso   1.000  C
  C121     1.0000 0.12690  0.14150  0.25700  Biso   1.000  C
  C122     1.0000 0.87310  0.85850  0.25700  Biso   1.000  C
  C123     1.0000 0.14150  0.87310  0.74300  Biso   1.000  C
  C124     1.0000 0.85850  0.12690  0.74300  Biso   1.000  C
  C125     1.0000 0.62690  0.64150  0.75700  Biso   1.000  C
  C126     1.0000 0.37310  0.35850  0.75700  Biso   1.000  C
  C127     1.0000 0.64150  0.37310  0.24300  Biso   1.000  C
  C128     1.0000 0.35850  0.62690  0.24300  Biso   1.000  C
  H113     1.0000 0.13960  0.14920  0.17040  Biso   1.000  H
  H114     1.0000 0.86040  0.85080  0.17040  Biso   1.000  H
  H115     1.0000 0.14920  0.86040  0.82960  Biso   1.000  H
  H116     1.0000 0.85080  0.13960  0.82960  Biso   1.000  H
  H117     1.0000 0.63960  0.64920  0.67040  Biso   1.000  H
  H118     1.0000 0.36040  0.35080  0.67040  Biso   1.000  H
  H119     1.0000 0.64920  0.36040  0.32960  Biso   1.000  H
  H120     1.0000 0.35080  0.63960  0.32960  Biso   1.000  H
  C129     1.0000 0.08740  0.16120  0.29600  Biso   1.000  C
  C130     1.0000 0.91260  0.83880  0.29600  Biso   1.000  C
  C131     1.0000 0.16120  0.91260  0.70400  Biso   1.000  C
  C132     1.0000 0.83880  0.08740  0.70400  Biso   1.000  C
  C133     1.0000 0.58740  0.66120  0.79600  Biso   1.000  C
  C134     1.0000 0.41260  0.33880  0.79600  Biso   1.000  C
  C135     1.0000 0.66120  0.41260  0.20400  Biso   1.000  C
  C136     1.0000 0.33880  0.58740  0.20400  Biso   1.000  C
  H121     1.0000 0.07230  0.18130  0.23550  Biso   1.000  H
  H122     1.0000 0.92770  0.81870  0.23550  Biso   1.000  H
  H123     1.0000 0.18130  0.92770  0.76450  Biso   1.000  H
  H124     1.0000 0.81870  0.07230  0.76450  Biso   1.000  H
  H125     1.0000 0.57230  0.68130  0.73550  Biso   1.000  H
  H126     1.0000 0.42770  0.31870  0.73550  Biso   1.000  H
  H127     1.0000 0.68130  0.42770  0.26450  Biso   1.000  H
  H128     1.0000 0.31870  0.57230  0.26450  Biso   1.000  H
  C137     1.0000 0.06990  0.15220  0.41980  Biso   1.000  C
  C138     1.0000 0.93010  0.84780  0.41980  Biso   1.000  C
  C139     1.0000 0.15220  0.93010  0.58020  Biso   1.000  C
  C140     1.0000 0.84780  0.06990  0.58020  Biso   1.000  C
  C141     1.0000 0.56990  0.65220  0.91980  Biso   1.000  C
  C142     1.0000 0.43010  0.34780  0.91980  Biso   1.000  C
  C143     1.0000 0.65220  0.43010  0.08020  Biso   1.000  C
  C144     1.0000 0.34780  0.56990  0.08020  Biso   1.000  C
  H129     1.0000 0.04300  0.16720  0.44800  Biso   1.000  H
  H130     1.0000 0.95700  0.83280  0.44800  Biso   1.000  H
  H131     1.0000 0.16720  0.95700  0.55200  Biso   1.000  H
  H132     1.0000 0.83280  0.04300  0.55200  Biso   1.000  H
  H133     1.0000 0.54300  0.66720  0.94800  Biso   1.000  H
  H134     1.0000 0.45700  0.33280  0.94800  Biso   1.000  H
  H135     1.0000 0.66720  0.45700  0.05200  Biso   1.000  H
  H136     1.0000 0.33280  0.54300  0.05200  Biso   1.000  H
  C145     1.0000 0.09030  0.12140  0.50770  Biso   1.000  C
  C146     1.0000 0.90970  0.87860  0.50770  Biso   1.000  C
  C147     1.0000 0.12140  0.90970  0.49230  Biso   1.000  C
  C148     1.0000 0.87860  0.09030  0.49230  Biso   1.000  C
  C149     1.0000 0.59030  0.62140  0.00770  Biso   1.000  C
  C150     1.0000 0.40970  0.37860  0.00770  Biso   1.000  C
  C151     1.0000 0.62140  0.40970  0.99230  Biso   1.000  C
  C152     1.0000 0.37860  0.59030  0.99230  Biso   1.000  C
  H137     1.0000 0.07740  0.11450  0.59450  Biso   1.000  H
  H138     1.0000 0.92260  0.88550  0.59450  Biso   1.000  H
  H139     1.0000 0.11450  0.92260  0.40550  Biso   1.000  H
  H140     1.0000 0.88550  0.07740  0.40550  Biso   1.000  H
  H141     1.0000 0.57740  0.61450  0.09450  Biso   1.000  H
  H142     1.0000 0.42260  0.38550  0.09450  Biso   1.000  H
  H143     1.0000 0.61450  0.42260  0.90550  Biso   1.000  H
  H144     1.0000 0.38550  0.57740  0.90550  Biso   1.000  H
  C153     1.0000 0.12980  0.10100  0.46600  Biso   1.000  C
  C154     1.0000 0.87020  0.89900  0.46600  Biso   1.000  C
  C155     1.0000 0.10100  0.87020  0.53400  Biso   1.000  C
  C156     1.0000 0.89900  0.12980  0.53400  Biso   1.000  C
  C157     1.0000 0.62980  0.60100  0.96600  Biso   1.000  C
  C158     1.0000 0.37020  0.39900  0.96600  Biso   1.000  C
  C159     1.0000 0.60100  0.37020  0.03400  Biso   1.000  C
  C160     1.0000 0.39900  0.62980  0.03400  Biso   1.000  C
  H145     1.0000 0.14410  0.07990  0.52510  Biso   1.000  H
  H146     1.0000 0.85590  0.92010  0.52510  Biso   1.000  H
  H147     1.0000 0.07990  0.85590  0.47490  Biso   1.000  H
  H148     1.0000 0.92010  0.14410  0.47490  Biso   1.000  H
  H149     1.0000 0.64410  0.57990  0.02510  Biso   1.000  H
  H150     1.0000 0.35590  0.42010  0.02510  Biso   1.000  H
  H151     1.0000 0.57990  0.35590  0.97490  Biso   1.000  H
  H152     1.0000 0.42010  0.64410  0.97490  Biso   1.000  H
  C161     1.0000 0.22990  0.93540  0.22190  Biso   1.000  C
  C162     1.0000 0.77010  0.06460  0.22190  Biso   1.000  C
  C163     1.0000 0.93540  0.77010  0.77810  Biso   1.000  C
  C164     1.0000 0.06460  0.22990  0.77810  Biso   1.000  C
  C165     1.0000 0.72990  0.43540  0.72190  Biso   1.000  C
  C166     1.0000 0.27010  0.56460  0.72190  Biso   1.000  C
  C167     1.0000 0.43540  0.27010  0.27810  Biso   1.000  C
  C168     1.0000 0.56460  0.72990  0.27810  Biso   1.000  C
  C169     1.0000 0.23020  0.90400  0.31870  Biso   1.000  C
  C170     1.0000 0.76980  0.09600  0.31870  Biso   1.000  C
  C171     1.0000 0.90400  0.76980  0.68130  Biso   1.000  C
  C172     1.0000 0.09600  0.23020  0.68130  Biso   1.000  C
  C173     1.0000 0.73020  0.40400  0.81870  Biso   1.000  C
  C174     1.0000 0.26980  0.59600  0.81870  Biso   1.000  C
  C175     1.0000 0.40400  0.26980  0.18130  Biso   1.000  C
  C176     1.0000 0.59600  0.73020  0.18130  Biso   1.000  C
  H153     1.0000 0.23450  0.91230  0.41210  Biso   1.000  H
  H154     1.0000 0.76550  0.08770  0.41210  Biso   1.000  H
  H155     1.0000 0.91230  0.76550  0.58790  Biso   1.000  H
  H156     1.0000 0.08770  0.23450  0.58790  Biso   1.000  H
  H157     1.0000 0.73450  0.41230  0.91210  Biso   1.000  H
  H158     1.0000 0.26550  0.58770  0.91210  Biso   1.000  H
  H159     1.0000 0.41230  0.26550  0.08790  Biso   1.000  H
  H160     1.0000 0.58770  0.73450  0.08790  Biso   1.000  H
  C177     1.0000 0.22410  0.85770  0.28240  Biso   1.000  C
  C178     1.0000 0.77590  0.14230  0.28240  Biso   1.000  C
  C179     1.0000 0.85770  0.77590  0.71760  Biso   1.000  C
  C180     1.0000 0.14230  0.22410  0.71760  Biso   1.000  C
  C181     1.0000 0.72410  0.35770  0.78240  Biso   1.000  C
  C182     1.0000 0.27590  0.64230  0.78240  Biso   1.000  C
  C183     1.0000 0.35770  0.27590  0.21760  Biso   1.000  C
  C184     1.0000 0.64230  0.72410  0.21760  Biso   1.000  C
  H161     1.0000 0.22370  0.83530  0.35250  Biso   1.000  H
  H162     1.0000 0.77630  0.16470  0.35250  Biso   1.000  H
  H163     1.0000 0.83530  0.77630  0.64750  Biso   1.000  H
  H164     1.0000 0.16470  0.22370  0.64750  Biso   1.000  H
  H165     1.0000 0.72370  0.33530  0.85250  Biso   1.000  H
  H166     1.0000 0.27630  0.66470  0.85250  Biso   1.000  H
  H167     1.0000 0.33530  0.27630  0.14750  Biso   1.000  H
  H168     1.0000 0.66470  0.72370  0.14750  Biso   1.000  H
  C185     1.0000 0.21890  0.84520  0.15220  Biso   1.000  C
  C186     1.0000 0.78110  0.15480  0.15220  Biso   1.000  C
  C187     1.0000 0.84520  0.78110  0.84780  Biso   1.000  C
  C188     1.0000 0.15480  0.21890  0.84780  Biso   1.000  C
  C189     1.0000 0.71890  0.34520  0.65220  Biso   1.000  C
  C190     1.0000 0.28110  0.65480  0.65220  Biso   1.000  C
  C191     1.0000 0.34520  0.28110  0.34780  Biso   1.000  C
  C192     1.0000 0.65480  0.71890  0.34780  Biso   1.000  C
  H169     1.0000 0.21540  0.81420  0.12900  Biso   1.000  H
  H170     1.0000 0.78460  0.18580  0.12900  Biso   1.000  H
  H171     1.0000 0.81420  0.78460  0.87100  Biso   1.000  H
  H172     1.0000 0.18580  0.21540  0.87100  Biso   1.000  H
  H173     1.0000 0.71540  0.31420  0.62900  Biso   1.000  H
  H174     1.0000 0.28460  0.68580  0.62900  Biso   1.000  H
  H175     1.0000 0.31420  0.28460  0.37100  Biso   1.000  H
  H176     1.0000 0.68580  0.71540  0.37100  Biso   1.000  H
  C193     1.0000 0.21860  0.87710  0.05410  Biso   1.000  C
  C194     1.0000 0.78140  0.12290  0.05410  Biso   1.000  C
  C195     1.0000 0.87710  0.78140  0.94590  Biso   1.000  C
  C196     1.0000 0.12290  0.21860  0.94590  Biso   1.000  C
  C197     1.0000 0.71860  0.37710  0.55410  Biso   1.000  C
  C198     1.0000 0.28140  0.62290  0.55410  Biso   1.000  C
  C199     1.0000 0.37710  0.28140  0.44590  Biso   1.000  C
  C200     1.0000 0.62290  0.71860  0.44590  Biso   1.000  C
  H177     1.0000 0.21450  0.86860  0.96080  Biso   1.000  H
  H178     1.0000 0.78550  0.13140  0.96080  Biso   1.000  H
  H179     1.0000 0.86860  0.78550  0.03920  Biso   1.000  H
  H180     1.0000 0.13140  0.21450  0.03920  Biso   1.000  H
  H181     1.0000 0.71450  0.36860  0.46080  Biso   1.000  H
  H182     1.0000 0.28550  0.63140  0.46080  Biso   1.000  H
  H183     1.0000 0.36860  0.28550  0.53920  Biso   1.000  H
  H184     1.0000 0.63140  0.71450  0.53920  Biso   1.000  H
  C201     1.0000 0.22420  0.92150  0.08680  Biso   1.000  C
  C202     1.0000 0.77580  0.07850  0.08680  Biso   1.000  C
  C203     1.0000 0.92150  0.77580  0.91320  Biso   1.000  C
  C204     1.0000 0.07850  0.22420  0.91320  Biso   1.000  C
  C205     1.0000 0.72420  0.42150  0.58680  Biso   1.000  C
  C206     1.0000 0.27580  0.57850  0.58680  Biso   1.000  C
  C207     1.0000 0.42150  0.27580  0.41320  Biso   1.000  C
  C208     1.0000 0.57850  0.72420  0.41320  Biso   1.000  C
  H185     1.0000 0.22420  0.94350  0.01560  Biso   1.000  H
  H186     1.0000 0.77580  0.05650  0.01560  Biso   1.000  H
  H187     1.0000 0.94350  0.77580  0.98440  Biso   1.000  H
  H188     1.0000 0.05650  0.22420  0.98440  Biso   1.000  H
  H189     1.0000 0.72420  0.44350  0.51560  Biso   1.000  H
  H190     1.0000 0.27580  0.55650  0.51560  Biso   1.000  H
  H191     1.0000 0.44350  0.27580  0.48440  Biso   1.000  H
  H192     1.0000 0.55650  0.72420  0.48440  Biso   1.000  H
  C209     1.0000 0.43530  0.84800  0.28450  Biso   1.000  C
  C210     1.0000 0.56470  0.15200  0.28450  Biso   1.000  C
  C211     1.0000 0.84800  0.56470  0.71550  Biso   1.000  C
  C212     1.0000 0.15200  0.43530  0.71550  Biso   1.000  C
  C213     1.0000 0.93530  0.34800  0.78450  Biso   1.000  C
  C214     1.0000 0.06470  0.65200  0.78450  Biso   1.000  C
  C215     1.0000 0.34800  0.06470  0.21550  Biso   1.000  C
  C216     1.0000 0.65200  0.93530  0.21550  Biso   1.000  C
  H193     1.0000 0.46660  0.84810  0.30600  Biso   1.000  H
  H194     1.0000 0.53340  0.15190  0.30600  Biso   1.000  H
  H195     1.0000 0.84810  0.53340  0.69400  Biso   1.000  H
  H196     1.0000 0.15190  0.46660  0.69400  Biso   1.000  H
  H197     1.0000 0.96660  0.34810  0.80600  Biso   1.000  H
  H198     1.0000 0.03340  0.65190  0.80600  Biso   1.000  H
  H199     1.0000 0.34810  0.03340  0.19400  Biso   1.000  H
  H200     1.0000 0.65190  0.96660  0.19400  Biso   1.000  H
  C217     1.0000 0.41890  0.88030  0.19280  Biso   1.000  C
  C218     1.0000 0.58110  0.11970  0.19280  Biso   1.000  C
  C219     1.0000 0.88030  0.58110  0.80720  Biso   1.000  C
  C220     1.0000 0.11970  0.41890  0.80720  Biso   1.000  C
  C221     1.0000 0.91890  0.38030  0.69280  Biso   1.000  C
  C222     1.0000 0.08110  0.61970  0.69280  Biso   1.000  C
  C223     1.0000 0.38030  0.08110  0.30720  Biso   1.000  C
  C224     1.0000 0.61970  0.91890  0.30720  Biso   1.000  C
  H201     1.0000 0.43910  0.90150  0.15280  Biso   1.000  H
  H202     1.0000 0.56090  0.09850  0.15280  Biso   1.000  H
  H203     1.0000 0.90150  0.56090  0.84720  Biso   1.000  H
  H204     1.0000 0.09850  0.43910  0.84720  Biso   1.000  H
  H205     1.0000 0.93910  0.40150  0.65280  Biso   1.000  H
  H206     1.0000 0.06090  0.59850  0.65280  Biso   1.000  H
  H207     1.0000 0.40150  0.06090  0.34720  Biso   1.000  H
  H208     1.0000 0.59850  0.93910  0.34720  Biso   1.000  H
  C225     1.0000 0.37420  0.88200  0.15990  Biso   1.000  C
  C226     1.0000 0.62580  0.11800  0.15990  Biso   1.000  C
  C227     1.0000 0.88200  0.62580  0.84010  Biso   1.000  C
  C228     1.0000 0.11800  0.37420  0.84010  Biso   1.000  C
  C229     1.0000 0.87420  0.38200  0.65990  Biso   1.000  C
  C230     1.0000 0.12580  0.61800  0.65990  Biso   1.000  C
  C231     1.0000 0.38200  0.12580  0.34010  Biso   1.000  C
  C232     1.0000 0.61800  0.87420  0.34010  Biso   1.000  C
  C233     1.0000 0.34840  0.84710  0.21200  Biso   1.000  C
  C234     1.0000 0.65160  0.15290  0.21200  Biso   1.000  C
  C235     1.0000 0.84710  0.65160  0.78800  Biso   1.000  C
  C236     1.0000 0.15290  0.34840  0.78800  Biso   1.000  C
  C237     1.0000 0.84840  0.34710  0.71200  Biso   1.000  C
  C238     1.0000 0.15160  0.65290  0.71200  Biso   1.000  C
  C239     1.0000 0.34710  0.15160  0.28800  Biso   1.000  C
  C240     1.0000 0.65290  0.84840  0.28800  Biso   1.000  C
  H209     1.0000 0.31780  0.84360  0.18430  Biso   1.000  H
  H210     1.0000 0.68220  0.15640  0.18430  Biso   1.000  H
  H211     1.0000 0.84360  0.68220  0.81570  Biso   1.000  H
  H212     1.0000 0.15640  0.31780  0.81570  Biso   1.000  H
  H213     1.0000 0.81780  0.34360  0.68430  Biso   1.000  H
  H214     1.0000 0.18220  0.65640  0.68430  Biso   1.000  H
  H215     1.0000 0.34360  0.18220  0.31570  Biso   1.000  H
  H216     1.0000 0.65640  0.81780  0.31570  Biso   1.000  H
  C241     1.0000 0.36730  0.81770  0.30400  Biso   1.000  C
  C242     1.0000 0.63270  0.18230  0.30400  Biso   1.000  C
  C243     1.0000 0.81770  0.63270  0.69600  Biso   1.000  C
  C244     1.0000 0.18230  0.36730  0.69600  Biso   1.000  C
  C245     1.0000 0.86730  0.31770  0.80400  Biso   1.000  C
  C246     1.0000 0.13270  0.68230  0.80400  Biso   1.000  C
  C247     1.0000 0.31770  0.13270  0.19600  Biso   1.000  C
  C248     1.0000 0.68230  0.86730  0.19600  Biso   1.000  C
  H217     1.0000 0.34810  0.79540  0.34320  Biso   1.000  H
  H218     1.0000 0.65190  0.20460  0.34320  Biso   1.000  H
  H219     1.0000 0.79540  0.65190  0.65680  Biso   1.000  H
  H220     1.0000 0.20460  0.34810  0.65680  Biso   1.000  H
  H221     1.0000 0.84810  0.29540  0.84320  Biso   1.000  H
  H222     1.0000 0.15190  0.70460  0.84320  Biso   1.000  H
  H223     1.0000 0.29540  0.15190  0.15680  Biso   1.000  H
  H224     1.0000 0.70460  0.84810  0.15680  Biso   1.000  H
  C249     1.0000 0.35540  0.92100  0.07130  Biso   1.000  C
  C250     1.0000 0.64460  0.07900  0.07130  Biso   1.000  C
  C251     1.0000 0.92100  0.64460  0.92870  Biso   1.000  C
  C252     1.0000 0.07900  0.35540  0.92870  Biso   1.000  C
  C253     1.0000 0.85540  0.42100  0.57130  Biso   1.000  C
  C254     1.0000 0.14460  0.57900  0.57130  Biso   1.000  C
  C255     1.0000 0.42100  0.14460  0.42870  Biso   1.000  C
  C256     1.0000 0.57900  0.85540  0.42870  Biso   1.000  C
  H225     1.0000 0.32230  0.92400  0.08370  Biso   1.000  H
  H226     1.0000 0.67770  0.07600  0.08370  Biso   1.000  H
  H227     1.0000 0.92400  0.67770  0.91630  Biso   1.000  H
  H228     1.0000 0.07600  0.32230  0.91630  Biso   1.000  H
  H229     1.0000 0.82230  0.42400  0.58370  Biso   1.000  H
  H230     1.0000 0.17770  0.57600  0.58370  Biso   1.000  H
  H231     1.0000 0.42400  0.17770  0.41630  Biso   1.000  H
  H232     1.0000 0.57600  0.82230  0.41630  Biso   1.000  H
  H233     1.0000 0.36990  0.95010  0.09610  Biso   1.000  H
  H234     1.0000 0.63010  0.04990  0.09610  Biso   1.000  H
  H235     1.0000 0.95010  0.63010  0.90390  Biso   1.000  H
  H236     1.0000 0.04990  0.36990  0.90390  Biso   1.000  H
  H237     1.0000 0.86990  0.45010  0.59610  Biso   1.000  H
  H238     1.0000 0.13010  0.54990  0.59610  Biso   1.000  H
  H239     1.0000 0.45010  0.13010  0.40390  Biso   1.000  H
  H240     1.0000 0.54990  0.86990  0.40390  Biso   1.000  H
  C257     1.0000 0.36630  0.90850  0.92910  Biso   1.000  C
  C258     1.0000 0.63370  0.09150  0.92910  Biso   1.000  C
  C259     1.0000 0.90850  0.63370  0.07090  Biso   1.000  C
  C260     1.0000 0.09150  0.36630  0.07090  Biso   1.000  C
  C261     1.0000 0.86630  0.40850  0.42910  Biso   1.000  C
  C262     1.0000 0.13370  0.59150  0.42910  Biso   1.000  C
  C263     1.0000 0.40850  0.13370  0.57090  Biso   1.000  C
  C264     1.0000 0.59150  0.86630  0.57090  Biso   1.000  C
  H241     1.0000 0.35520  0.87760  0.90920  Biso   1.000  H
  H242     1.0000 0.64480  0.12240  0.90920  Biso   1.000  H
  H243     1.0000 0.87760  0.64480  0.09080  Biso   1.000  H
  H244     1.0000 0.12240  0.35520  0.09080  Biso   1.000  H
  H245     1.0000 0.85520  0.37760  0.40920  Biso   1.000  H
  H246     1.0000 0.14480  0.62240  0.40920  Biso   1.000  H
  H247     1.0000 0.37760  0.14480  0.59080  Biso   1.000  H
  H248     1.0000 0.62240  0.85520  0.59080  Biso   1.000  H
  H249     1.0000 0.39940  0.90900  0.91490  Biso   1.000  H
  H250     1.0000 0.60060  0.09100  0.91490  Biso   1.000  H
  H251     1.0000 0.90900  0.60060  0.08510  Biso   1.000  H
  H252     1.0000 0.09100  0.39940  0.08510  Biso   1.000  H
  H253     1.0000 0.89940  0.40900  0.41490  Biso   1.000  H
  H254     1.0000 0.10060  0.59100  0.41490  Biso   1.000  H
  H255     1.0000 0.40900  0.10060  0.58510  Biso   1.000  H
  H256     1.0000 0.59100  0.89940  0.58510  Biso   1.000  H
  C265     1.0000 0.34310  0.94290  0.83360  Biso   1.000  C
  C266     1.0000 0.65690  0.05710  0.83360  Biso   1.000  C
  C267     1.0000 0.94290  0.65690  0.16640  Biso   1.000  C
  C268     1.0000 0.05710  0.34310  0.16640  Biso   1.000  C
  C269     1.0000 0.84310  0.44290  0.33360  Biso   1.000  C
  C270     1.0000 0.15690  0.55710  0.33360  Biso   1.000  C
  C271     1.0000 0.44290  0.15690  0.66640  Biso   1.000  C
  C272     1.0000 0.55710  0.84310  0.66640  Biso   1.000  C
  C273     1.0000 0.33720  0.01560  0.72250  Biso   1.000  C
  C274     1.0000 0.66280  0.98440  0.72250  Biso   1.000  C
  C275     1.0000 0.01560  0.66280  0.27750  Biso   1.000  C
  C276     1.0000 0.98440  0.33720  0.27750  Biso   1.000  C
  C277     1.0000 0.83720  0.51560  0.22250  Biso   1.000  C
  C278     1.0000 0.16280  0.48440  0.22250  Biso   1.000  C
  C279     1.0000 0.51560  0.16280  0.77750  Biso   1.000  C
  C280     1.0000 0.48440  0.83720  0.77750  Biso   1.000  C
  H257     1.0000 0.34890  0.04530  0.71130  Biso   1.000  H
  H258     1.0000 0.65110  0.95470  0.71130  Biso   1.000  H
  H259     1.0000 0.04530  0.65110  0.28870  Biso   1.000  H
  H260     1.0000 0.95470  0.34890  0.28870  Biso   1.000  H
  H261     1.0000 0.84890  0.54530  0.21130  Biso   1.000  H
  H262     1.0000 0.15110  0.45470  0.21130  Biso   1.000  H
  H263     1.0000 0.54530  0.15110  0.78870  Biso   1.000  H
  H264     1.0000 0.45470  0.84890  0.78870  Biso   1.000  H
  C281     1.0000 0.35830  0.98650  0.81180  Biso   1.000  C
  C282     1.0000 0.64170  0.01350  0.81180  Biso   1.000  C
  C283     1.0000 0.98650  0.64170  0.18820  Biso   1.000  C
  C284     1.0000 0.01350  0.35830  0.18820  Biso   1.000  C
  C285     1.0000 0.85830  0.48650  0.31180  Biso   1.000  C
  C286     1.0000 0.14170  0.51350  0.31180  Biso   1.000  C
  C287     1.0000 0.48650  0.14170  0.68820  Biso   1.000  C
  C288     1.0000 0.51350  0.85830  0.68820  Biso   1.000  C
  H265     1.0000 0.38430  0.99670  0.86010  Biso   1.000  H
  H266     1.0000 0.61570  0.00330  0.86010  Biso   1.000  H
  H267     1.0000 0.99670  0.61570  0.13990  Biso   1.000  H
  H268     1.0000 0.00330  0.38430  0.13990  Biso   1.000  H
  H269     1.0000 0.88430  0.49670  0.36010  Biso   1.000  H
  H270     1.0000 0.11570  0.50330  0.36010  Biso   1.000  H
  H271     1.0000 0.49670  0.11570  0.63990  Biso   1.000  H
  H272     1.0000 0.50330  0.88430  0.63990  Biso   1.000  H
  C289     1.0000 0.30510  0.93210  0.76790  Biso   1.000  C
  C290     1.0000 0.69490  0.06790  0.76790  Biso   1.000  C
  C291     1.0000 0.93210  0.69490  0.23210  Biso   1.000  C
  C292     1.0000 0.06790  0.30510  0.23210  Biso   1.000  C
  C293     1.0000 0.80510  0.43210  0.26790  Biso   1.000  C
  C294     1.0000 0.19490  0.56790  0.26790  Biso   1.000  C
  C295     1.0000 0.43210  0.19490  0.73210  Biso   1.000  C
  C296     1.0000 0.56790  0.80510  0.73210  Biso   1.000  C
  H273     1.0000 0.29110  0.90370  0.78450  Biso   1.000  H
  H274     1.0000 0.70890  0.09630  0.78450  Biso   1.000  H
  H275     1.0000 0.90370  0.70890  0.21550  Biso   1.000  H
  H276     1.0000 0.09630  0.29110  0.21550  Biso   1.000  H
  H277     1.0000 0.79110  0.40370  0.28450  Biso   1.000  H
  H278     1.0000 0.20890  0.59630  0.28450  Biso   1.000  H
  H279     1.0000 0.40370  0.20890  0.71550  Biso   1.000  H
  H280     1.0000 0.59630  0.79110  0.71550  Biso   1.000  H
  C297     1.0000 0.28570  0.96230  0.67460  Biso   1.000  C
  C298     1.0000 0.71430  0.03770  0.67460  Biso   1.000  C
  C299     1.0000 0.96230  0.71430  0.32540  Biso   1.000  C
  C300     1.0000 0.03770  0.28570  0.32540  Biso   1.000  C
  C301     1.0000 0.78570  0.46230  0.17460  Biso   1.000  C
  C302     1.0000 0.21430  0.53770  0.17460  Biso   1.000  C
  C303     1.0000 0.46230  0.21430  0.82540  Biso   1.000  C
  C304     1.0000 0.53770  0.78570  0.82540  Biso   1.000  C
  H281     1.0000 0.25990  0.95270  0.62420  Biso   1.000  H
  H282     1.0000 0.74010  0.04730  0.62420  Biso   1.000  H
  H283     1.0000 0.95270  0.74010  0.37580  Biso   1.000  H
  H284     1.0000 0.04730  0.25990  0.37580  Biso   1.000  H
  H285     1.0000 0.75990  0.45270  0.12420  Biso   1.000  H
  H286     1.0000 0.24010  0.54730  0.12420  Biso   1.000  H
  H287     1.0000 0.45270  0.24010  0.87580  Biso   1.000  H
  H288     1.0000 0.54730  0.75990  0.87580  Biso   1.000  H
