data_image0
_cell_length_a       36.382
_cell_length_b       36.382
_cell_length_c       15.489
_cell_angle_alpha    90
_cell_angle_beta     90
_cell_angle_gamma    90

_symmetry_space_group_name_H-M    "P 1"
_symmetry_int_tables_number       1

loop_
  _symmetry_equiv_pos_as_xyz
  'x, y, z'

loop_
  _atom_site_label
  _atom_site_occupancy
  _atom_site_fract_x
  _atom_site_fract_y
  _atom_site_fract_z
  _atom_site_thermal_displace_type
  _atom_site_B_iso_or_equiv
  _atom_site_type_symbol
  Cu1      1.0000 0.50000  0.82879  0.77117  Biso   1.000  Cu
  Cu2      1.0000 0.50000  0.17121  0.77117  Biso   1.000  Cu
  Cu3      1.0000 0.17121  0.50000  0.77117  Biso   1.000  Cu
  Cu4      1.0000 0.82879  0.50000  0.77117  Biso   1.000  Cu
  Cu5      1.0000 0.50000  0.82879  0.22883  Biso   1.000  Cu
  Cu6      1.0000 0.50000  0.17121  0.22883  Biso   1.000  Cu
  Cu7      1.0000 0.82879  0.50000  0.22883  Biso   1.000  Cu
  Cu8      1.0000 0.17121  0.50000  0.22883  Biso   1.000  Cu
  O1       1.0000 0.53560  0.85632  0.69790  Biso   1.000  O
  O2       1.0000 0.46440  0.14368  0.69790  Biso   1.000  O
  O3       1.0000 0.14368  0.53560  0.69790  Biso   1.000  O
  O4       1.0000 0.85632  0.46440  0.69790  Biso   1.000  O
  O5       1.0000 0.46440  0.85632  0.30210  Biso   1.000  O
  O6       1.0000 0.53560  0.14368  0.30210  Biso   1.000  O
  O7       1.0000 0.85632  0.53560  0.30210  Biso   1.000  O
  O8       1.0000 0.14368  0.46440  0.30210  Biso   1.000  O
  O9       1.0000 0.46440  0.14368  0.30210  Biso   1.000  O
  O10      1.0000 0.53560  0.85632  0.30210  Biso   1.000  O
  O11      1.0000 0.85632  0.46440  0.30210  Biso   1.000  O
  O12      1.0000 0.14368  0.53560  0.30210  Biso   1.000  O
  O13      1.0000 0.53560  0.14368  0.69790  Biso   1.000  O
  O14      1.0000 0.46440  0.85632  0.69790  Biso   1.000  O
  O15      1.0000 0.14368  0.46440  0.69790  Biso   1.000  O
  O16      1.0000 0.85632  0.53560  0.69790  Biso   1.000  O
  N1       1.0000 0.54477  0.81351  0.83780  Biso   1.000  N
  N2       1.0000 0.45523  0.18649  0.83780  Biso   1.000  N
  N3       1.0000 0.18649  0.54477  0.83780  Biso   1.000  N
  N4       1.0000 0.81351  0.45523  0.83780  Biso   1.000  N
  N5       1.0000 0.45523  0.81351  0.16220  Biso   1.000  N
  N6       1.0000 0.54477  0.18649  0.16220  Biso   1.000  N
  N7       1.0000 0.81351  0.54477  0.16220  Biso   1.000  N
  N8       1.0000 0.18649  0.45523  0.16220  Biso   1.000  N
  N9       1.0000 0.45523  0.18649  0.16220  Biso   1.000  N
  N10      1.0000 0.54477  0.81351  0.16220  Biso   1.000  N
  N11      1.0000 0.81351  0.45523  0.16220  Biso   1.000  N
  N12      1.0000 0.18649  0.54477  0.16220  Biso   1.000  N
  N13      1.0000 0.54477  0.18649  0.83780  Biso   1.000  N
  N14      1.0000 0.45523  0.81351  0.83780  Biso   1.000  N
  N15      1.0000 0.18649  0.45523  0.83780  Biso   1.000  N
  N16      1.0000 0.81351  0.54477  0.83780  Biso   1.000  N
  O17      1.0000 0.50000  0.78060  0.65840  Biso   1.000  O
  O18      1.0000 0.50000  0.21940  0.65840  Biso   1.000  O
  O19      1.0000 0.21940  0.50000  0.65840  Biso   1.000  O
  O20      1.0000 0.78060  0.50000  0.65840  Biso   1.000  O
  O21      1.0000 0.50000  0.78060  0.34160  Biso   1.000  O
  O22      1.0000 0.50000  0.21940  0.34160  Biso   1.000  O
  O23      1.0000 0.78060  0.50000  0.34160  Biso   1.000  O
  O24      1.0000 0.21940  0.50000  0.34160  Biso   1.000  O
  C1       1.0000 0.56820  0.85092  0.71850  Biso   1.000  C
  C2       1.0000 0.43180  0.14908  0.71850  Biso   1.000  C
  C3       1.0000 0.14908  0.56820  0.71850  Biso   1.000  C
  C4       1.0000 0.85092  0.43180  0.71850  Biso   1.000  C
  C5       1.0000 0.43180  0.85092  0.28150  Biso   1.000  C
  C6       1.0000 0.56820  0.14908  0.28150  Biso   1.000  C
  C7       1.0000 0.85092  0.56820  0.28150  Biso   1.000  C
  C8       1.0000 0.14908  0.43180  0.28150  Biso   1.000  C
  C9       1.0000 0.43180  0.14908  0.28150  Biso   1.000  C
  C10      1.0000 0.56820  0.85092  0.28150  Biso   1.000  C
  C11      1.0000 0.85092  0.43180  0.28150  Biso   1.000  C
  C12      1.0000 0.14908  0.56820  0.28150  Biso   1.000  C
  C13      1.0000 0.56820  0.14908  0.71850  Biso   1.000  C
  C14      1.0000 0.43180  0.85092  0.71850  Biso   1.000  C
  C15      1.0000 0.14908  0.43180  0.71850  Biso   1.000  C
  C16      1.0000 0.85092  0.56820  0.71850  Biso   1.000  C
  C17      1.0000 0.57750  0.82470  0.80450  Biso   1.000  C
  C18      1.0000 0.42250  0.17530  0.80450  Biso   1.000  C
  C19      1.0000 0.17530  0.57750  0.80450  Biso   1.000  C
  C20      1.0000 0.82470  0.42250  0.80450  Biso   1.000  C
  C21      1.0000 0.42250  0.82470  0.19550  Biso   1.000  C
  C22      1.0000 0.57750  0.17530  0.19550  Biso   1.000  C
  C23      1.0000 0.82470  0.57750  0.19550  Biso   1.000  C
  C24      1.0000 0.17530  0.42250  0.19550  Biso   1.000  C
  C25      1.0000 0.42250  0.17530  0.19550  Biso   1.000  C
  C26      1.0000 0.57750  0.82470  0.19550  Biso   1.000  C
  C27      1.0000 0.82470  0.42250  0.19550  Biso   1.000  C
  C28      1.0000 0.17530  0.57750  0.19550  Biso   1.000  C
  C29      1.0000 0.57750  0.17530  0.80450  Biso   1.000  C
  C30      1.0000 0.42250  0.82470  0.80450  Biso   1.000  C
  C31      1.0000 0.17530  0.42250  0.80450  Biso   1.000  C
  C32      1.0000 0.82470  0.57750  0.80450  Biso   1.000  C
  C33      1.0000 0.54709  0.79430  0.92380  Biso   1.000  C
  C34      1.0000 0.45291  0.20570  0.92380  Biso   1.000  C
  C35      1.0000 0.20570  0.54709  0.92380  Biso   1.000  C
  C36      1.0000 0.79430  0.45291  0.92380  Biso   1.000  C
  C37      1.0000 0.45291  0.79430  0.07620  Biso   1.000  C
  C38      1.0000 0.54709  0.20570  0.07620  Biso   1.000  C
  C39      1.0000 0.79430  0.54709  0.07620  Biso   1.000  C
  C40      1.0000 0.20570  0.45291  0.07620  Biso   1.000  C
  C41      1.0000 0.45291  0.20570  0.07620  Biso   1.000  C
  C42      1.0000 0.54709  0.79430  0.07620  Biso   1.000  C
  C43      1.0000 0.79430  0.45291  0.07620  Biso   1.000  C
  C44      1.0000 0.20570  0.54709  0.07620  Biso   1.000  C
  C45      1.0000 0.54709  0.20570  0.92380  Biso   1.000  C
  C46      1.0000 0.45291  0.79430  0.92380  Biso   1.000  C
  C47      1.0000 0.20570  0.45291  0.92380  Biso   1.000  C
  C48      1.0000 0.79430  0.54709  0.92380  Biso   1.000  C
  O25      1.0000 0.59650  0.86261  0.68320  Biso   1.000  O
  O26      1.0000 0.40350  0.13739  0.68320  Biso   1.000  O
  O27      1.0000 0.13739  0.59650  0.68320  Biso   1.000  O
  O28      1.0000 0.86261  0.40350  0.68320  Biso   1.000  O
  O29      1.0000 0.40350  0.86261  0.31680  Biso   1.000  O
  O30      1.0000 0.59650  0.13739  0.31680  Biso   1.000  O
  O31      1.0000 0.86261  0.59650  0.31680  Biso   1.000  O
  O32      1.0000 0.13739  0.40350  0.31680  Biso   1.000  O
  O33      1.0000 0.40350  0.13739  0.31680  Biso   1.000  O
  O34      1.0000 0.59650  0.86261  0.31680  Biso   1.000  O
  O35      1.0000 0.86261  0.40350  0.31680  Biso   1.000  O
  O36      1.0000 0.13739  0.59650  0.31680  Biso   1.000  O
  O37      1.0000 0.59650  0.13739  0.68320  Biso   1.000  O
  O38      1.0000 0.40350  0.86261  0.68320  Biso   1.000  O
  O39      1.0000 0.13739  0.40350  0.68320  Biso   1.000  O
  O40      1.0000 0.86261  0.59650  0.68320  Biso   1.000  O
  O41      1.0000 0.60880  0.81983  0.82330  Biso   1.000  O
  O42      1.0000 0.39120  0.18017  0.82330  Biso   1.000  O
  O43      1.0000 0.18017  0.60880  0.82330  Biso   1.000  O
  O44      1.0000 0.81983  0.39120  0.82330  Biso   1.000  O
  O45      1.0000 0.39120  0.81983  0.17670  Biso   1.000  O
  O46      1.0000 0.60880  0.18017  0.17670  Biso   1.000  O
  O47      1.0000 0.81983  0.60880  0.17670  Biso   1.000  O
  O48      1.0000 0.18017  0.39120  0.17670  Biso   1.000  O
  O49      1.0000 0.39120  0.18017  0.17670  Biso   1.000  O
  O50      1.0000 0.60880  0.81983  0.17670  Biso   1.000  O
  O51      1.0000 0.81983  0.39120  0.17670  Biso   1.000  O
  O52      1.0000 0.18017  0.60880  0.17670  Biso   1.000  O
  O53      1.0000 0.60880  0.18017  0.82330  Biso   1.000  O
  O54      1.0000 0.39120  0.81983  0.82330  Biso   1.000  O
  O55      1.0000 0.18017  0.39120  0.82330  Biso   1.000  O
  O56      1.0000 0.81983  0.60880  0.82330  Biso   1.000  O
  C49      1.0000 0.54708  0.81520  0.00000  Biso   1.000  C
  C50      1.0000 0.45292  0.18480  0.00000  Biso   1.000  C
  C51      1.0000 0.18480  0.54708  0.00000  Biso   1.000  C
  C52      1.0000 0.81520  0.45292  0.00000  Biso   1.000  C
  C53      1.0000 0.45292  0.81520  0.00000  Biso   1.000  C
  C54      1.0000 0.54708  0.18480  0.00000  Biso   1.000  C
  C55      1.0000 0.81520  0.54708  0.00000  Biso   1.000  C
  C56      1.0000 0.18480  0.45292  0.00000  Biso   1.000  C
  C57      1.0000 0.54910  0.75620  0.92060  Biso   1.000  C
  C58      1.0000 0.45090  0.24380  0.92060  Biso   1.000  C
  C59      1.0000 0.24380  0.54910  0.92060  Biso   1.000  C
  C60      1.0000 0.75620  0.45090  0.92060  Biso   1.000  C
  C61      1.0000 0.45090  0.75620  0.07940  Biso   1.000  C
  C62      1.0000 0.54910  0.24380  0.07940  Biso   1.000  C
  C63      1.0000 0.75620  0.54910  0.07940  Biso   1.000  C
  C64      1.0000 0.24380  0.45090  0.07940  Biso   1.000  C
  C65      1.0000 0.45090  0.24380  0.07940  Biso   1.000  C
  C66      1.0000 0.54910  0.75620  0.07940  Biso   1.000  C
  C67      1.0000 0.75620  0.45090  0.07940  Biso   1.000  C
  C68      1.0000 0.24380  0.54910  0.07940  Biso   1.000  C
  C69      1.0000 0.54910  0.24380  0.92060  Biso   1.000  C
  C70      1.0000 0.45090  0.75620  0.92060  Biso   1.000  C
  C71      1.0000 0.24380  0.45090  0.92060  Biso   1.000  C
  C72      1.0000 0.75620  0.54910  0.92060  Biso   1.000  C
  Ni1      1.0000 0.64595  0.85225  0.75052  Biso   1.000  Ni
  Ni2      1.0000 0.35405  0.14775  0.75052  Biso   1.000  Ni
  Ni3      1.0000 0.14775  0.64595  0.75052  Biso   1.000  Ni
  Ni4      1.0000 0.85225  0.35405  0.75052  Biso   1.000  Ni
  Ni5      1.0000 0.35405  0.85225  0.24948  Biso   1.000  Ni
  Ni6      1.0000 0.64595  0.14775  0.24948  Biso   1.000  Ni
  Ni7      1.0000 0.85225  0.64595  0.24948  Biso   1.000  Ni
  Ni8      1.0000 0.14775  0.35405  0.24948  Biso   1.000  Ni
  Ni9      1.0000 0.35405  0.14775  0.24948  Biso   1.000  Ni
  Ni10     1.0000 0.64595  0.85225  0.24948  Biso   1.000  Ni
  Ni11     1.0000 0.85225  0.35405  0.24948  Biso   1.000  Ni
  Ni12     1.0000 0.14775  0.64595  0.24948  Biso   1.000  Ni
  Ni13     1.0000 0.64595  0.14775  0.75052  Biso   1.000  Ni
  Ni14     1.0000 0.35405  0.85225  0.75052  Biso   1.000  Ni
  Ni15     1.0000 0.14775  0.35405  0.75052  Biso   1.000  Ni
  Ni16     1.0000 0.85225  0.64595  0.75052  Biso   1.000  Ni
  C73      1.0000 0.54485  0.85630  0.00000  Biso   1.000  C
  C74      1.0000 0.45515  0.14370  0.00000  Biso   1.000  C
  C75      1.0000 0.14370  0.54485  0.00000  Biso   1.000  C
  C76      1.0000 0.85630  0.45515  0.00000  Biso   1.000  C
  C77      1.0000 0.45515  0.85630  0.00000  Biso   1.000  C
  C78      1.0000 0.54485  0.14370  0.00000  Biso   1.000  C
  C79      1.0000 0.85630  0.54485  0.00000  Biso   1.000  C
  C80      1.0000 0.14370  0.45515  0.00000  Biso   1.000  C
  C81      1.0000 0.55132  0.73700  0.00000  Biso   1.000  C
  C82      1.0000 0.44868  0.26300  0.00000  Biso   1.000  C
  C83      1.0000 0.26300  0.55132  0.00000  Biso   1.000  C
  C84      1.0000 0.73700  0.44868  0.00000  Biso   1.000  C
  C85      1.0000 0.44868  0.73700  0.00000  Biso   1.000  C
  C86      1.0000 0.55132  0.26300  0.00000  Biso   1.000  C
  C87      1.0000 0.73700  0.55132  0.00000  Biso   1.000  C
  C88      1.0000 0.26300  0.44868  0.00000  Biso   1.000  C
  C89      1.0000 0.54910  0.73410  0.83860  Biso   1.000  C
  C90      1.0000 0.45090  0.26590  0.83860  Biso   1.000  C
  C91      1.0000 0.26590  0.54910  0.83860  Biso   1.000  C
  C92      1.0000 0.73410  0.45090  0.83860  Biso   1.000  C
  C93      1.0000 0.45090  0.73410  0.16140  Biso   1.000  C
  C94      1.0000 0.54910  0.26590  0.16140  Biso   1.000  C
  C95      1.0000 0.73410  0.54910  0.16140  Biso   1.000  C
  C96      1.0000 0.26590  0.45090  0.16140  Biso   1.000  C
  C97      1.0000 0.45090  0.26590  0.16140  Biso   1.000  C
  C98      1.0000 0.54910  0.73410  0.16140  Biso   1.000  C
  C99      1.0000 0.73410  0.45090  0.16140  Biso   1.000  C
  C100     1.0000 0.26590  0.54910  0.16140  Biso   1.000  C
  C101     1.0000 0.54910  0.26590  0.83860  Biso   1.000  C
  C102     1.0000 0.45090  0.73410  0.83860  Biso   1.000  C
  C103     1.0000 0.26590  0.45090  0.83860  Biso   1.000  C
  C104     1.0000 0.73410  0.54910  0.83860  Biso   1.000  C
  O57      1.0000 0.66086  0.81091  0.66690  Biso   1.000  O
  O58      1.0000 0.33914  0.18909  0.66690  Biso   1.000  O
  O59      1.0000 0.18909  0.66086  0.66690  Biso   1.000  O
  O60      1.0000 0.81091  0.33914  0.66690  Biso   1.000  O
  O61      1.0000 0.33914  0.81091  0.33310  Biso   1.000  O
  O62      1.0000 0.66086  0.18909  0.33310  Biso   1.000  O
  O63      1.0000 0.81091  0.66086  0.33310  Biso   1.000  O
  O64      1.0000 0.18909  0.33914  0.33310  Biso   1.000  O
  O65      1.0000 0.33914  0.18909  0.33310  Biso   1.000  O
  O66      1.0000 0.66086  0.81091  0.33310  Biso   1.000  O
  O67      1.0000 0.81091  0.33914  0.33310  Biso   1.000  O
  O68      1.0000 0.18909  0.66086  0.33310  Biso   1.000  O
  O69      1.0000 0.66086  0.18909  0.66690  Biso   1.000  O
  O70      1.0000 0.33914  0.81091  0.66690  Biso   1.000  O
  O71      1.0000 0.18909  0.33914  0.66690  Biso   1.000  O
  O72      1.0000 0.81091  0.66086  0.66690  Biso   1.000  O
  O73      1.0000 0.69295  0.83649  0.80730  Biso   1.000  O
  O74      1.0000 0.30705  0.16351  0.80730  Biso   1.000  O
  O75      1.0000 0.16351  0.69295  0.80730  Biso   1.000  O
  O76      1.0000 0.83649  0.30705  0.80730  Biso   1.000  O
  O77      1.0000 0.30705  0.83649  0.19270  Biso   1.000  O
  O78      1.0000 0.69295  0.16351  0.19270  Biso   1.000  O
  O79      1.0000 0.83649  0.69295  0.19270  Biso   1.000  O
  O80      1.0000 0.16351  0.30705  0.19270  Biso   1.000  O
  O81      1.0000 0.30705  0.16351  0.19270  Biso   1.000  O
  O82      1.0000 0.69295  0.83649  0.19270  Biso   1.000  O
  O83      1.0000 0.83649  0.30705  0.19270  Biso   1.000  O
  O84      1.0000 0.16351  0.69295  0.19270  Biso   1.000  O
  O85      1.0000 0.69295  0.16351  0.80730  Biso   1.000  O
  O86      1.0000 0.30705  0.83649  0.80730  Biso   1.000  O
  O87      1.0000 0.16351  0.30705  0.80730  Biso   1.000  O
  O88      1.0000 0.83649  0.69295  0.80730  Biso   1.000  O
  O89      1.0000 0.67089  0.89790  0.68460  Biso   1.000  O
  O90      1.0000 0.32911  0.10210  0.68460  Biso   1.000  O
  O91      1.0000 0.10210  0.67089  0.68460  Biso   1.000  O
  O92      1.0000 0.89790  0.32911  0.68460  Biso   1.000  O
  O93      1.0000 0.32911  0.89790  0.31540  Biso   1.000  O
  O94      1.0000 0.67089  0.10210  0.31540  Biso   1.000  O
  O95      1.0000 0.89790  0.67089  0.31540  Biso   1.000  O
  O96      1.0000 0.10210  0.32911  0.31540  Biso   1.000  O
  O97      1.0000 0.32911  0.10210  0.31540  Biso   1.000  O
  O98      1.0000 0.67089  0.89790  0.31540  Biso   1.000  O
  O99      1.0000 0.89790  0.32911  0.31540  Biso   1.000  O
  O100     1.0000 0.10210  0.67089  0.31540  Biso   1.000  O
  O101     1.0000 0.67089  0.10210  0.68460  Biso   1.000  O
  O102     1.0000 0.32911  0.89790  0.68460  Biso   1.000  O
  O103     1.0000 0.10210  0.32911  0.68460  Biso   1.000  O
  O104     1.0000 0.89790  0.67089  0.68460  Biso   1.000  O
  O105     1.0000 0.63502  0.89270  0.83370  Biso   1.000  O
  O106     1.0000 0.36498  0.10730  0.83370  Biso   1.000  O
  O107     1.0000 0.10730  0.63502  0.83370  Biso   1.000  O
  O108     1.0000 0.89270  0.36498  0.83370  Biso   1.000  O
  O109     1.0000 0.36498  0.89270  0.16630  Biso   1.000  O
  O110     1.0000 0.63502  0.10730  0.16630  Biso   1.000  O
  O111     1.0000 0.89270  0.63502  0.16630  Biso   1.000  O
  O112     1.0000 0.10730  0.36498  0.16630  Biso   1.000  O
  O113     1.0000 0.36498  0.10730  0.16630  Biso   1.000  O
  O114     1.0000 0.63502  0.89270  0.16630  Biso   1.000  O
  O115     1.0000 0.89270  0.36498  0.16630  Biso   1.000  O
  O116     1.0000 0.10730  0.63502  0.16630  Biso   1.000  O
  O117     1.0000 0.63502  0.10730  0.83370  Biso   1.000  O
  O118     1.0000 0.36498  0.89270  0.83370  Biso   1.000  O
  O119     1.0000 0.10730  0.36498  0.83370  Biso   1.000  O
  O120     1.0000 0.89270  0.63502  0.83370  Biso   1.000  O
  H1       1.0000 0.55430  0.71110  0.00000  Biso   1.000  H
  H2       1.0000 0.44570  0.28890  0.00000  Biso   1.000  H
  H3       1.0000 0.28890  0.55430  0.00000  Biso   1.000  H
  H4       1.0000 0.71110  0.44570  0.00000  Biso   1.000  H
  H5       1.0000 0.44570  0.71110  0.00000  Biso   1.000  H
  H6       1.0000 0.55430  0.28890  0.00000  Biso   1.000  H
  H7       1.0000 0.71110  0.55430  0.00000  Biso   1.000  H
  H8       1.0000 0.28890  0.44570  0.00000  Biso   1.000  H
  H9       1.0000 0.52370  0.72820  0.82240  Biso   1.000  H
  H10      1.0000 0.47630  0.27180  0.82240  Biso   1.000  H
  H11      1.0000 0.27180  0.52370  0.82240  Biso   1.000  H
  H12      1.0000 0.72820  0.47630  0.82240  Biso   1.000  H
  H13      1.0000 0.47630  0.72820  0.17760  Biso   1.000  H
  H14      1.0000 0.52370  0.27180  0.17760  Biso   1.000  H
  H15      1.0000 0.72820  0.52370  0.17760  Biso   1.000  H
  H16      1.0000 0.27180  0.47630  0.17760  Biso   1.000  H
  H17      1.0000 0.47630  0.27180  0.17760  Biso   1.000  H
  H18      1.0000 0.52370  0.72820  0.17760  Biso   1.000  H
  H19      1.0000 0.72820  0.47630  0.17760  Biso   1.000  H
  H20      1.0000 0.27180  0.52370  0.17760  Biso   1.000  H
  H21      1.0000 0.52370  0.27180  0.82240  Biso   1.000  H
  H22      1.0000 0.47630  0.72820  0.82240  Biso   1.000  H
  H23      1.0000 0.27180  0.47630  0.82240  Biso   1.000  H
  H24      1.0000 0.72820  0.52370  0.82240  Biso   1.000  H
  H25      1.0000 0.56290  0.71130  0.84750  Biso   1.000  H
  H26      1.0000 0.43710  0.28870  0.84750  Biso   1.000  H
  H27      1.0000 0.28870  0.56290  0.84750  Biso   1.000  H
  H28      1.0000 0.71130  0.43710  0.84750  Biso   1.000  H
  H29      1.0000 0.43710  0.71130  0.15250  Biso   1.000  H
  H30      1.0000 0.56290  0.28870  0.15250  Biso   1.000  H
  H31      1.0000 0.71130  0.56290  0.15250  Biso   1.000  H
  H32      1.0000 0.28870  0.43710  0.15250  Biso   1.000  H
  H33      1.0000 0.43710  0.28870  0.15250  Biso   1.000  H
  H34      1.0000 0.56290  0.71130  0.15250  Biso   1.000  H
  H35      1.0000 0.71130  0.43710  0.15250  Biso   1.000  H
  H36      1.0000 0.28870  0.56290  0.15250  Biso   1.000  H
  H37      1.0000 0.56290  0.28870  0.84750  Biso   1.000  H
  H38      1.0000 0.43710  0.71130  0.84750  Biso   1.000  H
  H39      1.0000 0.28870  0.43710  0.84750  Biso   1.000  H
  H40      1.0000 0.71130  0.56290  0.84750  Biso   1.000  H
  H41      1.0000 0.56060  0.74840  0.79230  Biso   1.000  H
  H42      1.0000 0.43940  0.25160  0.79230  Biso   1.000  H
  H43      1.0000 0.25160  0.56060  0.79230  Biso   1.000  H
  H44      1.0000 0.74840  0.43940  0.79230  Biso   1.000  H
  H45      1.0000 0.43940  0.74840  0.20770  Biso   1.000  H
  H46      1.0000 0.56060  0.25160  0.20770  Biso   1.000  H
  H47      1.0000 0.74840  0.56060  0.20770  Biso   1.000  H
  H48      1.0000 0.25160  0.43940  0.20770  Biso   1.000  H
  H49      1.0000 0.43940  0.25160  0.20770  Biso   1.000  H
  H50      1.0000 0.56060  0.74840  0.20770  Biso   1.000  H
  H51      1.0000 0.74840  0.43940  0.20770  Biso   1.000  H
  H52      1.0000 0.25160  0.56060  0.20770  Biso   1.000  H
  H53      1.0000 0.56060  0.25160  0.79230  Biso   1.000  H
  H54      1.0000 0.43940  0.74840  0.79230  Biso   1.000  H
  H55      1.0000 0.25160  0.43940  0.79230  Biso   1.000  H
  H56      1.0000 0.74840  0.56060  0.79230  Biso   1.000  H
  C105     1.0000 0.68821  0.79300  0.69360  Biso   1.000  C
  C106     1.0000 0.31179  0.20700  0.69360  Biso   1.000  C
  C107     1.0000 0.20700  0.68821  0.69360  Biso   1.000  C
  C108     1.0000 0.79300  0.31179  0.69360  Biso   1.000  C
  C109     1.0000 0.31179  0.79300  0.30640  Biso   1.000  C
  C110     1.0000 0.68821  0.20700  0.30640  Biso   1.000  C
  C111     1.0000 0.79300  0.68821  0.30640  Biso   1.000  C
  C112     1.0000 0.20700  0.31179  0.30640  Biso   1.000  C
  C113     1.0000 0.31179  0.20700  0.30640  Biso   1.000  C
  C114     1.0000 0.68821  0.79300  0.30640  Biso   1.000  C
  C115     1.0000 0.79300  0.31179  0.30640  Biso   1.000  C
  C116     1.0000 0.20700  0.68821  0.30640  Biso   1.000  C
  C117     1.0000 0.68821  0.20700  0.69360  Biso   1.000  C
  C118     1.0000 0.31179  0.79300  0.69360  Biso   1.000  C
  C119     1.0000 0.20700  0.31179  0.69360  Biso   1.000  C
  C120     1.0000 0.79300  0.68821  0.69360  Biso   1.000  C
  C121     1.0000 0.70820  0.80510  0.77220  Biso   1.000  C
  C122     1.0000 0.29180  0.19490  0.77220  Biso   1.000  C
  C123     1.0000 0.19490  0.70820  0.77220  Biso   1.000  C
  C124     1.0000 0.80510  0.29180  0.77220  Biso   1.000  C
  C125     1.0000 0.29180  0.80510  0.22780  Biso   1.000  C
  C126     1.0000 0.70820  0.19490  0.22780  Biso   1.000  C
  C127     1.0000 0.80510  0.70820  0.22780  Biso   1.000  C
  C128     1.0000 0.19490  0.29180  0.22780  Biso   1.000  C
  C129     1.0000 0.29180  0.19490  0.22780  Biso   1.000  C
  C130     1.0000 0.70820  0.80510  0.22780  Biso   1.000  C
  C131     1.0000 0.80510  0.29180  0.22780  Biso   1.000  C
  C132     1.0000 0.19490  0.70820  0.22780  Biso   1.000  C
  C133     1.0000 0.70820  0.19490  0.77220  Biso   1.000  C
  C134     1.0000 0.29180  0.80510  0.77220  Biso   1.000  C
  C135     1.0000 0.19490  0.29180  0.77220  Biso   1.000  C
  C136     1.0000 0.80510  0.70820  0.77220  Biso   1.000  C
  C137     1.0000 0.66398  0.92830  0.71520  Biso   1.000  C
  C138     1.0000 0.33602  0.07170  0.71520  Biso   1.000  C
  C139     1.0000 0.07170  0.66398  0.71520  Biso   1.000  C
  C140     1.0000 0.92830  0.33602  0.71520  Biso   1.000  C
  C141     1.0000 0.33602  0.92830  0.28480  Biso   1.000  C
  C142     1.0000 0.66398  0.07170  0.28480  Biso   1.000  C
  C143     1.0000 0.92830  0.66398  0.28480  Biso   1.000  C
  C144     1.0000 0.07170  0.33602  0.28480  Biso   1.000  C
  C145     1.0000 0.33602  0.07170  0.28480  Biso   1.000  C
  C146     1.0000 0.66398  0.92830  0.28480  Biso   1.000  C
  C147     1.0000 0.92830  0.33602  0.28480  Biso   1.000  C
  C148     1.0000 0.07170  0.66398  0.28480  Biso   1.000  C
  C149     1.0000 0.66398  0.07170  0.71520  Biso   1.000  C
  C150     1.0000 0.33602  0.92830  0.71520  Biso   1.000  C
  C151     1.0000 0.07170  0.33602  0.71520  Biso   1.000  C
  C152     1.0000 0.92830  0.66398  0.71520  Biso   1.000  C
  C153     1.0000 0.64331  0.92460  0.80110  Biso   1.000  C
  C154     1.0000 0.35669  0.07540  0.80110  Biso   1.000  C
  C155     1.0000 0.07540  0.64331  0.80110  Biso   1.000  C
  C156     1.0000 0.92460  0.35669  0.80110  Biso   1.000  C
  C157     1.0000 0.35669  0.92460  0.19890  Biso   1.000  C
  C158     1.0000 0.64331  0.07540  0.19890  Biso   1.000  C
  C159     1.0000 0.92460  0.64331  0.19890  Biso   1.000  C
  C160     1.0000 0.07540  0.35669  0.19890  Biso   1.000  C
  C161     1.0000 0.35669  0.07540  0.19890  Biso   1.000  C
  C162     1.0000 0.64331  0.92460  0.19890  Biso   1.000  C
  C163     1.0000 0.92460  0.35669  0.19890  Biso   1.000  C
  C164     1.0000 0.07540  0.64331  0.19890  Biso   1.000  C
  C165     1.0000 0.64331  0.07540  0.80110  Biso   1.000  C
  C166     1.0000 0.35669  0.92460  0.80110  Biso   1.000  C
  C167     1.0000 0.07540  0.35669  0.80110  Biso   1.000  C
  C168     1.0000 0.92460  0.64331  0.80110  Biso   1.000  C
  N17      1.0000 0.70225  0.76346  0.65980  Biso   1.000  N
  N18      1.0000 0.29775  0.23654  0.65980  Biso   1.000  N
  N19      1.0000 0.23654  0.70225  0.65980  Biso   1.000  N
  N20      1.0000 0.76346  0.29775  0.65980  Biso   1.000  N
  N21      1.0000 0.29775  0.76346  0.34020  Biso   1.000  N
  N22      1.0000 0.70225  0.23654  0.34020  Biso   1.000  N
  N23      1.0000 0.76346  0.70225  0.34020  Biso   1.000  N
  N24      1.0000 0.23654  0.29775  0.34020  Biso   1.000  N
  N25      1.0000 0.29775  0.23654  0.34020  Biso   1.000  N
  N26      1.0000 0.70225  0.76346  0.34020  Biso   1.000  N
  N27      1.0000 0.76346  0.29775  0.34020  Biso   1.000  N
  N28      1.0000 0.23654  0.70225  0.34020  Biso   1.000  N
  N29      1.0000 0.70225  0.23654  0.65980  Biso   1.000  N
  N30      1.0000 0.29775  0.76346  0.65980  Biso   1.000  N
  N31      1.0000 0.23654  0.29775  0.65980  Biso   1.000  N
  N32      1.0000 0.76346  0.70225  0.65980  Biso   1.000  N
  O121     1.0000 0.73465  0.78832  0.79930  Biso   1.000  O
  O122     1.0000 0.26535  0.21168  0.79930  Biso   1.000  O
  O123     1.0000 0.21168  0.73465  0.79930  Biso   1.000  O
  O124     1.0000 0.78832  0.26535  0.79930  Biso   1.000  O
  O125     1.0000 0.26535  0.78832  0.20070  Biso   1.000  O
  O126     1.0000 0.73465  0.21168  0.20070  Biso   1.000  O
  O127     1.0000 0.78832  0.73465  0.20070  Biso   1.000  O
  O128     1.0000 0.21168  0.26535  0.20070  Biso   1.000  O
  O129     1.0000 0.26535  0.21168  0.20070  Biso   1.000  O
  O130     1.0000 0.73465  0.78832  0.20070  Biso   1.000  O
  O131     1.0000 0.78832  0.26535  0.20070  Biso   1.000  O
  O132     1.0000 0.21168  0.73465  0.20070  Biso   1.000  O
  O133     1.0000 0.73465  0.21168  0.79930  Biso   1.000  O
  O134     1.0000 0.26535  0.78832  0.79930  Biso   1.000  O
  O135     1.0000 0.21168  0.26535  0.79930  Biso   1.000  O
  O136     1.0000 0.78832  0.73465  0.79930  Biso   1.000  O
  O137     1.0000 0.67076  0.96040  0.68890  Biso   1.000  O
  O138     1.0000 0.32924  0.03960  0.68890  Biso   1.000  O
  O139     1.0000 0.03960  0.67076  0.68890  Biso   1.000  O
  O140     1.0000 0.96040  0.32924  0.68890  Biso   1.000  O
  O141     1.0000 0.32924  0.96040  0.31110  Biso   1.000  O
  O142     1.0000 0.67076  0.03960  0.31110  Biso   1.000  O
  O143     1.0000 0.96040  0.67076  0.31110  Biso   1.000  O
  O144     1.0000 0.03960  0.32924  0.31110  Biso   1.000  O
  O145     1.0000 0.32924  0.03960  0.31110  Biso   1.000  O
  O146     1.0000 0.67076  0.96040  0.31110  Biso   1.000  O
  O147     1.0000 0.96040  0.32924  0.31110  Biso   1.000  O
  O148     1.0000 0.03960  0.67076  0.31110  Biso   1.000  O
  O149     1.0000 0.67076  0.03960  0.68890  Biso   1.000  O
  O150     1.0000 0.32924  0.96040  0.68890  Biso   1.000  O
  O151     1.0000 0.03960  0.32924  0.68890  Biso   1.000  O
  O152     1.0000 0.96040  0.67076  0.68890  Biso   1.000  O
  N33      1.0000 0.63399  0.95600  0.84180  Biso   1.000  N
  N34      1.0000 0.36601  0.04400  0.84180  Biso   1.000  N
  N35      1.0000 0.04400  0.63399  0.84180  Biso   1.000  N
  N36      1.0000 0.95600  0.36601  0.84180  Biso   1.000  N
  N37      1.0000 0.36601  0.95600  0.15820  Biso   1.000  N
  N38      1.0000 0.63399  0.04400  0.15820  Biso   1.000  N
  N39      1.0000 0.95600  0.63399  0.15820  Biso   1.000  N
  N40      1.0000 0.04400  0.36601  0.15820  Biso   1.000  N
  N41      1.0000 0.36601  0.04400  0.15820  Biso   1.000  N
  N42      1.0000 0.63399  0.95600  0.15820  Biso   1.000  N
  N43      1.0000 0.95600  0.36601  0.15820  Biso   1.000  N
  N44      1.0000 0.04400  0.63399  0.15820  Biso   1.000  N
  N45      1.0000 0.63399  0.04400  0.84180  Biso   1.000  N
  N46      1.0000 0.36601  0.95600  0.84180  Biso   1.000  N
  N47      1.0000 0.04400  0.36601  0.84180  Biso   1.000  N
  N48      1.0000 0.95600  0.63399  0.84180  Biso   1.000  N
  Cu9      1.0000 0.74443  0.74443  0.72859  Biso   1.000  Cu
  Cu10     1.0000 0.25557  0.25557  0.72859  Biso   1.000  Cu
  Cu11     1.0000 0.25557  0.74443  0.72859  Biso   1.000  Cu
  Cu12     1.0000 0.74443  0.25557  0.72859  Biso   1.000  Cu
  Cu13     1.0000 0.25557  0.74443  0.27141  Biso   1.000  Cu
  Cu14     1.0000 0.74443  0.25557  0.27141  Biso   1.000  Cu
  Cu15     1.0000 0.74443  0.74443  0.27141  Biso   1.000  Cu
  Cu16     1.0000 0.25557  0.25557  0.27141  Biso   1.000  Cu
  C169     1.0000 0.68721  0.74794  0.57470  Biso   1.000  C
  C170     1.0000 0.31279  0.25206  0.57470  Biso   1.000  C
  C171     1.0000 0.25206  0.68721  0.57470  Biso   1.000  C
  C172     1.0000 0.74794  0.31279  0.57470  Biso   1.000  C
  C173     1.0000 0.31279  0.74794  0.42530  Biso   1.000  C
  C174     1.0000 0.68721  0.25206  0.42530  Biso   1.000  C
  C175     1.0000 0.74794  0.68721  0.42530  Biso   1.000  C
  C176     1.0000 0.25206  0.31279  0.42530  Biso   1.000  C
  C177     1.0000 0.31279  0.25206  0.42530  Biso   1.000  C
  C178     1.0000 0.68721  0.74794  0.42530  Biso   1.000  C
  C179     1.0000 0.74794  0.31279  0.42530  Biso   1.000  C
  C180     1.0000 0.25206  0.68721  0.42530  Biso   1.000  C
  C181     1.0000 0.68721  0.25206  0.57470  Biso   1.000  C
  C182     1.0000 0.31279  0.74794  0.57470  Biso   1.000  C
  C183     1.0000 0.25206  0.31279  0.57470  Biso   1.000  C
  C184     1.0000 0.74794  0.68721  0.57470  Biso   1.000  C
  Cu17     1.0000 0.64881  0.00000  0.76790  Biso   1.000  Cu
  Cu18     1.0000 0.35119  0.00000  0.76790  Biso   1.000  Cu
  Cu19     1.0000 0.00000  0.64881  0.76790  Biso   1.000  Cu
  Cu20     1.0000 0.00000  0.35119  0.76790  Biso   1.000  Cu
  Cu21     1.0000 0.35119  0.00000  0.23210  Biso   1.000  Cu
  Cu22     1.0000 0.64881  0.00000  0.23210  Biso   1.000  Cu
  Cu23     1.0000 0.00000  0.64881  0.23210  Biso   1.000  Cu
  Cu24     1.0000 0.00000  0.35119  0.23210  Biso   1.000  Cu
  C185     1.0000 0.61127  0.95392  0.92550  Biso   1.000  C
  C186     1.0000 0.38873  0.04608  0.92550  Biso   1.000  C
  C187     1.0000 0.04608  0.61127  0.92550  Biso   1.000  C
  C188     1.0000 0.95392  0.38873  0.92550  Biso   1.000  C
  C189     1.0000 0.38873  0.95392  0.07450  Biso   1.000  C
  C190     1.0000 0.61127  0.04608  0.07450  Biso   1.000  C
  C191     1.0000 0.95392  0.61127  0.07450  Biso   1.000  C
  C192     1.0000 0.04608  0.38873  0.07450  Biso   1.000  C
  C193     1.0000 0.38873  0.04608  0.07450  Biso   1.000  C
  C194     1.0000 0.61127  0.95392  0.07450  Biso   1.000  C
  C195     1.0000 0.95392  0.38873  0.07450  Biso   1.000  C
  C196     1.0000 0.04608  0.61127  0.07450  Biso   1.000  C
  C197     1.0000 0.61127  0.04608  0.92550  Biso   1.000  C
  C198     1.0000 0.38873  0.95392  0.92550  Biso   1.000  C
  C199     1.0000 0.04608  0.38873  0.92550  Biso   1.000  C
  C200     1.0000 0.95392  0.61127  0.92550  Biso   1.000  C
  O153     1.0000 0.71300  0.71300  0.83630  Biso   1.000  O
  O154     1.0000 0.28700  0.28700  0.83630  Biso   1.000  O
  O155     1.0000 0.28700  0.71300  0.83630  Biso   1.000  O
  O156     1.0000 0.71300  0.28700  0.83630  Biso   1.000  O
  O157     1.0000 0.28700  0.71300  0.16370  Biso   1.000  O
  O158     1.0000 0.71300  0.28700  0.16370  Biso   1.000  O
  O159     1.0000 0.71300  0.71300  0.16370  Biso   1.000  O
  O160     1.0000 0.28700  0.28700  0.16370  Biso   1.000  O
  C201     1.0000 0.69990  0.76376  0.50000  Biso   1.000  C
  C202     1.0000 0.30010  0.23624  0.50000  Biso   1.000  C
  C203     1.0000 0.23624  0.69990  0.50000  Biso   1.000  C
  C204     1.0000 0.76376  0.30010  0.50000  Biso   1.000  C
  C205     1.0000 0.30010  0.76376  0.50000  Biso   1.000  C
  C206     1.0000 0.69990  0.23624  0.50000  Biso   1.000  C
  C207     1.0000 0.76376  0.69990  0.50000  Biso   1.000  C
  C208     1.0000 0.23624  0.30010  0.50000  Biso   1.000  C
  C209     1.0000 0.66235  0.71964  0.57650  Biso   1.000  C
  C210     1.0000 0.33765  0.28036  0.57650  Biso   1.000  C
  C211     1.0000 0.28036  0.66235  0.57650  Biso   1.000  C
  C212     1.0000 0.71964  0.33765  0.57650  Biso   1.000  C
  C213     1.0000 0.33765  0.71964  0.42350  Biso   1.000  C
  C214     1.0000 0.66235  0.28036  0.42350  Biso   1.000  C
  C215     1.0000 0.71964  0.66235  0.42350  Biso   1.000  C
  C216     1.0000 0.28036  0.33765  0.42350  Biso   1.000  C
  C217     1.0000 0.33765  0.28036  0.42350  Biso   1.000  C
  C218     1.0000 0.66235  0.71964  0.42350  Biso   1.000  C
  C219     1.0000 0.71964  0.33765  0.42350  Biso   1.000  C
  C220     1.0000 0.28036  0.66235  0.42350  Biso   1.000  C
  C221     1.0000 0.66235  0.28036  0.57650  Biso   1.000  C
  C222     1.0000 0.33765  0.71964  0.57650  Biso   1.000  C
  C223     1.0000 0.28036  0.33765  0.57650  Biso   1.000  C
  C224     1.0000 0.71964  0.66235  0.57650  Biso   1.000  C
  O161     1.0000 0.60070  0.00000  0.65190  Biso   1.000  O
  O162     1.0000 0.39930  0.00000  0.65190  Biso   1.000  O
  O163     1.0000 0.00000  0.60070  0.65190  Biso   1.000  O
  O164     1.0000 0.00000  0.39930  0.65190  Biso   1.000  O
  O165     1.0000 0.39930  0.00000  0.34810  Biso   1.000  O
  O166     1.0000 0.60070  0.00000  0.34810  Biso   1.000  O
  O167     1.0000 0.00000  0.60070  0.34810  Biso   1.000  O
  O168     1.0000 0.00000  0.39930  0.34810  Biso   1.000  O
  C225     1.0000 0.57382  0.95080  0.91990  Biso   1.000  C
  C226     1.0000 0.42618  0.04920  0.91990  Biso   1.000  C
  C227     1.0000 0.04920  0.57382  0.91990  Biso   1.000  C
  C228     1.0000 0.95080  0.42618  0.91990  Biso   1.000  C
  C229     1.0000 0.42618  0.95080  0.08010  Biso   1.000  C
  C230     1.0000 0.57382  0.04920  0.08010  Biso   1.000  C
  C231     1.0000 0.95080  0.57382  0.08010  Biso   1.000  C
  C232     1.0000 0.04920  0.42618  0.08010  Biso   1.000  C
  C233     1.0000 0.42618  0.04920  0.08010  Biso   1.000  C
  C234     1.0000 0.57382  0.95080  0.08010  Biso   1.000  C
  C235     1.0000 0.95080  0.42618  0.08010  Biso   1.000  C
  C236     1.0000 0.04920  0.57382  0.08010  Biso   1.000  C
  C237     1.0000 0.57382  0.04920  0.91990  Biso   1.000  C
  C238     1.0000 0.42618  0.95080  0.91990  Biso   1.000  C
  C239     1.0000 0.04920  0.42618  0.91990  Biso   1.000  C
  C240     1.0000 0.95080  0.57382  0.91990  Biso   1.000  C
  C241     1.0000 0.63160  0.95543  0.00000  Biso   1.000  C
  C242     1.0000 0.36840  0.04457  0.00000  Biso   1.000  C
  C243     1.0000 0.04457  0.63160  0.00000  Biso   1.000  C
  C244     1.0000 0.95543  0.36840  0.00000  Biso   1.000  C
  C245     1.0000 0.36840  0.95543  0.00000  Biso   1.000  C
  C246     1.0000 0.63160  0.04457  0.00000  Biso   1.000  C
  C247     1.0000 0.95543  0.63160  0.00000  Biso   1.000  C
  C248     1.0000 0.04457  0.36840  0.00000  Biso   1.000  C
  C249     1.0000 0.72840  0.79620  0.50000  Biso   1.000  C
  C250     1.0000 0.27160  0.20380  0.50000  Biso   1.000  C
  C251     1.0000 0.20380  0.72840  0.50000  Biso   1.000  C
  C252     1.0000 0.79620  0.27160  0.50000  Biso   1.000  C
  C253     1.0000 0.27160  0.79620  0.50000  Biso   1.000  C
  C254     1.0000 0.72840  0.20380  0.50000  Biso   1.000  C
  C255     1.0000 0.79620  0.72840  0.50000  Biso   1.000  C
  C256     1.0000 0.20380  0.27160  0.50000  Biso   1.000  C
  C257     1.0000 0.64910  0.70600  0.50000  Biso   1.000  C
  C258     1.0000 0.35090  0.29400  0.50000  Biso   1.000  C
  C259     1.0000 0.29400  0.64910  0.50000  Biso   1.000  C
  C260     1.0000 0.70600  0.35090  0.50000  Biso   1.000  C
  C261     1.0000 0.35090  0.70600  0.50000  Biso   1.000  C
  C262     1.0000 0.64910  0.29400  0.50000  Biso   1.000  C
  C263     1.0000 0.70600  0.64910  0.50000  Biso   1.000  C
  C264     1.0000 0.29400  0.35090  0.50000  Biso   1.000  C
  C265     1.0000 0.64700  0.70060  0.65760  Biso   1.000  C
  C266     1.0000 0.35300  0.29940  0.65760  Biso   1.000  C
  C267     1.0000 0.29940  0.64700  0.65760  Biso   1.000  C
  C268     1.0000 0.70060  0.35300  0.65760  Biso   1.000  C
  C269     1.0000 0.35300  0.70060  0.34240  Biso   1.000  C
  C270     1.0000 0.64700  0.29940  0.34240  Biso   1.000  C
  C271     1.0000 0.70060  0.64700  0.34240  Biso   1.000  C
  C272     1.0000 0.29940  0.35300  0.34240  Biso   1.000  C
  C273     1.0000 0.35300  0.29940  0.34240  Biso   1.000  C
  C274     1.0000 0.64700  0.70060  0.34240  Biso   1.000  C
  C275     1.0000 0.70060  0.35300  0.34240  Biso   1.000  C
  C276     1.0000 0.29940  0.64700  0.34240  Biso   1.000  C
  C277     1.0000 0.64700  0.29940  0.65760  Biso   1.000  C
  C278     1.0000 0.35300  0.70060  0.65760  Biso   1.000  C
  C279     1.0000 0.29940  0.35300  0.65760  Biso   1.000  C
  C280     1.0000 0.70060  0.64700  0.65760  Biso   1.000  C
  C281     1.0000 0.55780  0.94930  0.00000  Biso   1.000  C
  C282     1.0000 0.44220  0.05070  0.00000  Biso   1.000  C
  C283     1.0000 0.05070  0.55780  0.00000  Biso   1.000  C
  C284     1.0000 0.94930  0.44220  0.00000  Biso   1.000  C
  C285     1.0000 0.44220  0.94930  0.00000  Biso   1.000  C
  C286     1.0000 0.55780  0.05070  0.00000  Biso   1.000  C
  C287     1.0000 0.94930  0.55780  0.00000  Biso   1.000  C
  C288     1.0000 0.05070  0.44220  0.00000  Biso   1.000  C
  C289     1.0000 0.54940  0.94900  0.83880  Biso   1.000  C
  C290     1.0000 0.45060  0.05100  0.83880  Biso   1.000  C
  C291     1.0000 0.05100  0.54940  0.83880  Biso   1.000  C
  C292     1.0000 0.94900  0.45060  0.83880  Biso   1.000  C
  C293     1.0000 0.45060  0.94900  0.16120  Biso   1.000  C
  C294     1.0000 0.54940  0.05100  0.16120  Biso   1.000  C
  C295     1.0000 0.94900  0.54940  0.16120  Biso   1.000  C
  C296     1.0000 0.05100  0.45060  0.16120  Biso   1.000  C
  C297     1.0000 0.45060  0.05100  0.16120  Biso   1.000  C
  C298     1.0000 0.54940  0.94900  0.16120  Biso   1.000  C
  C299     1.0000 0.94900  0.45060  0.16120  Biso   1.000  C
  C300     1.0000 0.05100  0.54940  0.16120  Biso   1.000  C
  C301     1.0000 0.54940  0.05100  0.83880  Biso   1.000  C
  C302     1.0000 0.45060  0.94900  0.83880  Biso   1.000  C
  C303     1.0000 0.05100  0.45060  0.83880  Biso   1.000  C
  C304     1.0000 0.94900  0.54940  0.83880  Biso   1.000  C
  C305     1.0000 0.67360  0.95890  0.00000  Biso   1.000  C
  C306     1.0000 0.32640  0.04110  0.00000  Biso   1.000  C
  C307     1.0000 0.04110  0.67360  0.00000  Biso   1.000  C
  C308     1.0000 0.95890  0.32640  0.00000  Biso   1.000  C
  C309     1.0000 0.32640  0.95890  0.00000  Biso   1.000  C
  C310     1.0000 0.67360  0.04110  0.00000  Biso   1.000  C
  C311     1.0000 0.95890  0.67360  0.00000  Biso   1.000  C
  C312     1.0000 0.04110  0.32640  0.00000  Biso   1.000  C
  H57      1.0000 0.63090  0.68720  0.50000  Biso   1.000  H
  H58      1.0000 0.36910  0.31280  0.50000  Biso   1.000  H
  H59      1.0000 0.31280  0.63090  0.50000  Biso   1.000  H
  H60      1.0000 0.68720  0.36910  0.50000  Biso   1.000  H
  H61      1.0000 0.36910  0.68720  0.50000  Biso   1.000  H
  H62      1.0000 0.63090  0.31280  0.50000  Biso   1.000  H
  H63      1.0000 0.68720  0.63090  0.50000  Biso   1.000  H
  H64      1.0000 0.31280  0.36910  0.50000  Biso   1.000  H
  H65      1.0000 0.66710  0.69560  0.69800  Biso   1.000  H
  H66      1.0000 0.33290  0.30440  0.69800  Biso   1.000  H
  H67      1.0000 0.30440  0.66710  0.69800  Biso   1.000  H
  H68      1.0000 0.69560  0.33290  0.69800  Biso   1.000  H
  H69      1.0000 0.33290  0.69560  0.30200  Biso   1.000  H
  H70      1.0000 0.66710  0.30440  0.30200  Biso   1.000  H
  H71      1.0000 0.69560  0.66710  0.30200  Biso   1.000  H
  H72      1.0000 0.30440  0.33290  0.30200  Biso   1.000  H
  H73      1.0000 0.33290  0.30440  0.30200  Biso   1.000  H
  H74      1.0000 0.66710  0.69560  0.30200  Biso   1.000  H
  H75      1.0000 0.69560  0.33290  0.30200  Biso   1.000  H
  H76      1.0000 0.30440  0.66710  0.30200  Biso   1.000  H
  H77      1.0000 0.66710  0.30440  0.69800  Biso   1.000  H
  H78      1.0000 0.33290  0.69560  0.69800  Biso   1.000  H
  H79      1.0000 0.30440  0.33290  0.69800  Biso   1.000  H
  H80      1.0000 0.69560  0.66710  0.69800  Biso   1.000  H
  H81      1.0000 0.63510  0.67750  0.64120  Biso   1.000  H
  H82      1.0000 0.36490  0.32250  0.64120  Biso   1.000  H
  H83      1.0000 0.32250  0.63510  0.64120  Biso   1.000  H
  H84      1.0000 0.67750  0.36490  0.64120  Biso   1.000  H
  H85      1.0000 0.36490  0.67750  0.35880  Biso   1.000  H
  H86      1.0000 0.63510  0.32250  0.35880  Biso   1.000  H
  H87      1.0000 0.67750  0.63510  0.35880  Biso   1.000  H
  H88      1.0000 0.32250  0.36490  0.35880  Biso   1.000  H
  H89      1.0000 0.36490  0.32250  0.35880  Biso   1.000  H
  H90      1.0000 0.63510  0.67750  0.35880  Biso   1.000  H
  H91      1.0000 0.67750  0.36490  0.35880  Biso   1.000  H
  H92      1.0000 0.32250  0.63510  0.35880  Biso   1.000  H
  H93      1.0000 0.63510  0.32250  0.64120  Biso   1.000  H
  H94      1.0000 0.36490  0.67750  0.64120  Biso   1.000  H
  H95      1.0000 0.32250  0.36490  0.64120  Biso   1.000  H
  H96      1.0000 0.67750  0.63510  0.64120  Biso   1.000  H
  H97      1.0000 0.62890  0.71680  0.68540  Biso   1.000  H
  H98      1.0000 0.37110  0.28320  0.68540  Biso   1.000  H
  H99      1.0000 0.28320  0.62890  0.68540  Biso   1.000  H
  H100     1.0000 0.71680  0.37110  0.68540  Biso   1.000  H
  H101     1.0000 0.37110  0.71680  0.31460  Biso   1.000  H
  H102     1.0000 0.62890  0.28320  0.31460  Biso   1.000  H
  H103     1.0000 0.71680  0.62890  0.31460  Biso   1.000  H
  H104     1.0000 0.28320  0.37110  0.31460  Biso   1.000  H
  H105     1.0000 0.37110  0.28320  0.31460  Biso   1.000  H
  H106     1.0000 0.62890  0.71680  0.31460  Biso   1.000  H
  H107     1.0000 0.71680  0.37110  0.31460  Biso   1.000  H
  H108     1.0000 0.28320  0.62890  0.31460  Biso   1.000  H
  H109     1.0000 0.62890  0.28320  0.68540  Biso   1.000  H
  H110     1.0000 0.37110  0.71680  0.68540  Biso   1.000  H
  H111     1.0000 0.28320  0.37110  0.68540  Biso   1.000  H
  H112     1.0000 0.71680  0.62890  0.68540  Biso   1.000  H
  H113     1.0000 0.53180  0.94680  0.00000  Biso   1.000  H
  H114     1.0000 0.46820  0.05320  0.00000  Biso   1.000  H
  H115     1.0000 0.05320  0.53180  0.00000  Biso   1.000  H
  H116     1.0000 0.94680  0.46820  0.00000  Biso   1.000  H
  H117     1.0000 0.46820  0.94680  0.00000  Biso   1.000  H
  H118     1.0000 0.53180  0.05320  0.00000  Biso   1.000  H
  H119     1.0000 0.94680  0.53180  0.00000  Biso   1.000  H
  H120     1.0000 0.05320  0.46820  0.00000  Biso   1.000  H
  H121     1.0000 0.55550  0.96950  0.80030  Biso   1.000  H
  H122     1.0000 0.44450  0.03050  0.80030  Biso   1.000  H
  H123     1.0000 0.03050  0.55550  0.80030  Biso   1.000  H
  H124     1.0000 0.96950  0.44450  0.80030  Biso   1.000  H
  H125     1.0000 0.44450  0.96950  0.19970  Biso   1.000  H
  H126     1.0000 0.55550  0.03050  0.19970  Biso   1.000  H
  H127     1.0000 0.96950  0.55550  0.19970  Biso   1.000  H
  H128     1.0000 0.03050  0.44450  0.19970  Biso   1.000  H
  H129     1.0000 0.44450  0.03050  0.19970  Biso   1.000  H
  H130     1.0000 0.55550  0.96950  0.19970  Biso   1.000  H
  H131     1.0000 0.96950  0.44450  0.19970  Biso   1.000  H
  H132     1.0000 0.03050  0.55550  0.19970  Biso   1.000  H
  H133     1.0000 0.55550  0.03050  0.80030  Biso   1.000  H
  H134     1.0000 0.44450  0.96950  0.80030  Biso   1.000  H
  H135     1.0000 0.03050  0.44450  0.80030  Biso   1.000  H
  H136     1.0000 0.96950  0.55550  0.80030  Biso   1.000  H
  H137     1.0000 0.52350  0.95060  0.85580  Biso   1.000  H
  H138     1.0000 0.47650  0.04940  0.85580  Biso   1.000  H
  H139     1.0000 0.04940  0.52350  0.85580  Biso   1.000  H
  H140     1.0000 0.95060  0.47650  0.85580  Biso   1.000  H
  H141     1.0000 0.47650  0.95060  0.14420  Biso   1.000  H
  H142     1.0000 0.52350  0.04940  0.14420  Biso   1.000  H
  H143     1.0000 0.95060  0.52350  0.14420  Biso   1.000  H
  H144     1.0000 0.04940  0.47650  0.14420  Biso   1.000  H
  H145     1.0000 0.47650  0.04940  0.14420  Biso   1.000  H
  H146     1.0000 0.52350  0.95060  0.14420  Biso   1.000  H
  H147     1.0000 0.95060  0.47650  0.14420  Biso   1.000  H
  H148     1.0000 0.04940  0.52350  0.14420  Biso   1.000  H
  H149     1.0000 0.52350  0.04940  0.85580  Biso   1.000  H
  H150     1.0000 0.47650  0.95060  0.85580  Biso   1.000  H
  H151     1.0000 0.04940  0.47650  0.85580  Biso   1.000  H
  H152     1.0000 0.95060  0.52350  0.85580  Biso   1.000  H
  H153     1.0000 0.55370  0.92570  0.80880  Biso   1.000  H
  H154     1.0000 0.44630  0.07430  0.80880  Biso   1.000  H
  H155     1.0000 0.07430  0.55370  0.80880  Biso   1.000  H
  H156     1.0000 0.92570  0.44630  0.80880  Biso   1.000  H
  H157     1.0000 0.44630  0.92570  0.19120  Biso   1.000  H
  H158     1.0000 0.55370  0.07430  0.19120  Biso   1.000  H
  H159     1.0000 0.92570  0.55370  0.19120  Biso   1.000  H
  H160     1.0000 0.07430  0.44630  0.19120  Biso   1.000  H
  H161     1.0000 0.44630  0.07430  0.19120  Biso   1.000  H
  H162     1.0000 0.55370  0.92570  0.19120  Biso   1.000  H
  H163     1.0000 0.92570  0.44630  0.19120  Biso   1.000  H
  H164     1.0000 0.07430  0.55370  0.19120  Biso   1.000  H
  H165     1.0000 0.55370  0.07430  0.80880  Biso   1.000  H
  H166     1.0000 0.44630  0.92570  0.80880  Biso   1.000  H
  H167     1.0000 0.07430  0.44630  0.80880  Biso   1.000  H
  H168     1.0000 0.92570  0.55370  0.80880  Biso   1.000  H
  Fe1      1.0000 0.81200  0.81200  0.00000  Biso   1.000  Fe
  Fe2      1.0000 0.18800  0.18800  0.00000  Biso   1.000  Fe
  Fe3      1.0000 0.18800  0.81200  0.00000  Biso   1.000  Fe
  Fe4      1.0000 0.81200  0.18800  0.00000  Biso   1.000  Fe
  O169     1.0000 0.75460  0.79990  0.97800  Biso   1.000  O
  O170     1.0000 0.24540  0.20010  0.97800  Biso   1.000  O
  O171     1.0000 0.20010  0.75460  0.97800  Biso   1.000  O
  O172     1.0000 0.79990  0.24540  0.97800  Biso   1.000  O
  O173     1.0000 0.24540  0.79990  0.02200  Biso   1.000  O
  O174     1.0000 0.75460  0.20010  0.02200  Biso   1.000  O
  O175     1.0000 0.79990  0.75460  0.02200  Biso   1.000  O
  O176     1.0000 0.20010  0.24540  0.02200  Biso   1.000  O
  O177     1.0000 0.24540  0.20010  0.02200  Biso   1.000  O
  O178     1.0000 0.75460  0.79990  0.02200  Biso   1.000  O
  O179     1.0000 0.79990  0.24540  0.02200  Biso   1.000  O
  O180     1.0000 0.20010  0.75460  0.02200  Biso   1.000  O
  O181     1.0000 0.75460  0.20010  0.97800  Biso   1.000  O
  O182     1.0000 0.24540  0.79990  0.97800  Biso   1.000  O
  O183     1.0000 0.20010  0.24540  0.97800  Biso   1.000  O
  O184     1.0000 0.79990  0.75460  0.97800  Biso   1.000  O
  O185     1.0000 0.81590  0.81590  0.86430  Biso   1.000  O
  O186     1.0000 0.18410  0.18410  0.86430  Biso   1.000  O
  O187     1.0000 0.18410  0.81590  0.86430  Biso   1.000  O
  O188     1.0000 0.81590  0.18410  0.86430  Biso   1.000  O
  O189     1.0000 0.18410  0.81590  0.13570  Biso   1.000  O
  O190     1.0000 0.81590  0.18410  0.13570  Biso   1.000  O
  O191     1.0000 0.81590  0.81590  0.13570  Biso   1.000  O
  O192     1.0000 0.18410  0.18410  0.13570  Biso   1.000  O
  O193     1.0000 0.79500  0.86760  0.00000  Biso   1.000  O
  O194     1.0000 0.20500  0.13240  0.00000  Biso   1.000  O
  O195     1.0000 0.13240  0.79500  0.00000  Biso   1.000  O
  O196     1.0000 0.86760  0.20500  0.00000  Biso   1.000  O
  O197     1.0000 0.20500  0.86760  0.00000  Biso   1.000  O
  O198     1.0000 0.79500  0.13240  0.00000  Biso   1.000  O
  O199     1.0000 0.86760  0.79500  0.00000  Biso   1.000  O
  O200     1.0000 0.13240  0.20500  0.00000  Biso   1.000  O
  Fe5      1.0000 0.07371  0.54257  0.50000  Biso   1.000  Fe
  Fe6      1.0000 0.92629  0.45743  0.50000  Biso   1.000  Fe
  Fe7      1.0000 0.45743  0.07371  0.50000  Biso   1.000  Fe
  Fe8      1.0000 0.54257  0.92629  0.50000  Biso   1.000  Fe
  Fe9      1.0000 0.92629  0.54257  0.50000  Biso   1.000  Fe
  Fe10     1.0000 0.07371  0.45743  0.50000  Biso   1.000  Fe
  Fe11     1.0000 0.54257  0.07371  0.50000  Biso   1.000  Fe
  Fe12     1.0000 0.45743  0.92629  0.50000  Biso   1.000  Fe
  O201     1.0000 0.07130  0.58080  0.59190  Biso   1.000  O
  O202     1.0000 0.92870  0.41920  0.59190  Biso   1.000  O
  O203     1.0000 0.41920  0.07130  0.59190  Biso   1.000  O
  O204     1.0000 0.58080  0.92870  0.59190  Biso   1.000  O
  O205     1.0000 0.92870  0.58080  0.40810  Biso   1.000  O
  O206     1.0000 0.07130  0.41920  0.40810  Biso   1.000  O
  O207     1.0000 0.58080  0.07130  0.40810  Biso   1.000  O
  O208     1.0000 0.41920  0.92870  0.40810  Biso   1.000  O
  O209     1.0000 0.92870  0.41920  0.40810  Biso   1.000  O
  O210     1.0000 0.07130  0.58080  0.40810  Biso   1.000  O
  O211     1.0000 0.58080  0.92870  0.40810  Biso   1.000  O
  O212     1.0000 0.41920  0.07130  0.40810  Biso   1.000  O
  O213     1.0000 0.07130  0.41920  0.59190  Biso   1.000  O
  O214     1.0000 0.92870  0.58080  0.59190  Biso   1.000  O
  O215     1.0000 0.41920  0.92870  0.59190  Biso   1.000  O
  O216     1.0000 0.58080  0.07130  0.59190  Biso   1.000  O
  O217     1.0000 0.12640  0.55940  0.50000  Biso   1.000  O
  O218     1.0000 0.87360  0.44060  0.50000  Biso   1.000  O
  O219     1.0000 0.44060  0.12640  0.50000  Biso   1.000  O
  O220     1.0000 0.55940  0.87360  0.50000  Biso   1.000  O
  O221     1.0000 0.87360  0.55940  0.50000  Biso   1.000  O
  O222     1.0000 0.12640  0.44060  0.50000  Biso   1.000  O
  O223     1.0000 0.55940  0.12640  0.50000  Biso   1.000  O
  O224     1.0000 0.44060  0.87360  0.50000  Biso   1.000  O
  O225     1.0000 0.08060  0.50000  0.39830  Biso   1.000  O
  O226     1.0000 0.91940  0.50000  0.39830  Biso   1.000  O
  O227     1.0000 0.50000  0.08060  0.39830  Biso   1.000  O
  O228     1.0000 0.50000  0.91940  0.39830  Biso   1.000  O
  O229     1.0000 0.91940  0.50000  0.60170  Biso   1.000  O
  O230     1.0000 0.08060  0.50000  0.60170  Biso   1.000  O
  O231     1.0000 0.50000  0.08060  0.60170  Biso   1.000  O
  O232     1.0000 0.50000  0.91940  0.60170  Biso   1.000  O
  H169     1.0000 0.68440  0.93780  0.97020  Biso   1.000  H
  H170     1.0000 0.31560  0.06220  0.97020  Biso   1.000  H
  H171     1.0000 0.06220  0.68440  0.97020  Biso   1.000  H
  H172     1.0000 0.93780  0.31560  0.97020  Biso   1.000  H
  H173     1.0000 0.31560  0.93780  0.02980  Biso   1.000  H
  H174     1.0000 0.68440  0.06220  0.02980  Biso   1.000  H
  H175     1.0000 0.93780  0.68440  0.02980  Biso   1.000  H
  H176     1.0000 0.06220  0.31560  0.02980  Biso   1.000  H
  H177     1.0000 0.31560  0.06220  0.02980  Biso   1.000  H
  H178     1.0000 0.68440  0.93780  0.02980  Biso   1.000  H
  H179     1.0000 0.93780  0.31560  0.02980  Biso   1.000  H
  H180     1.0000 0.06220  0.68440  0.02980  Biso   1.000  H
  H181     1.0000 0.68440  0.06220  0.97020  Biso   1.000  H
  H182     1.0000 0.31560  0.93780  0.97020  Biso   1.000  H
  H183     1.0000 0.06220  0.31560  0.97020  Biso   1.000  H
  H184     1.0000 0.93780  0.68440  0.97020  Biso   1.000  H
  H185     1.0000 0.68250  0.95970  0.05970  Biso   1.000  H
  H186     1.0000 0.31750  0.04030  0.05970  Biso   1.000  H
  H187     1.0000 0.04030  0.68250  0.05970  Biso   1.000  H
  H188     1.0000 0.95970  0.31750  0.05970  Biso   1.000  H
  H189     1.0000 0.31750  0.95970  0.94030  Biso   1.000  H
  H190     1.0000 0.68250  0.04030  0.94030  Biso   1.000  H
  H191     1.0000 0.95970  0.68250  0.94030  Biso   1.000  H
  H192     1.0000 0.04030  0.31750  0.94030  Biso   1.000  H
  H193     1.0000 0.31750  0.04030  0.94030  Biso   1.000  H
  H194     1.0000 0.68250  0.95970  0.94030  Biso   1.000  H
  H195     1.0000 0.95970  0.31750  0.94030  Biso   1.000  H
  H196     1.0000 0.04030  0.68250  0.94030  Biso   1.000  H
  H197     1.0000 0.68250  0.04030  0.05970  Biso   1.000  H
  H198     1.0000 0.31750  0.95970  0.05970  Biso   1.000  H
  H199     1.0000 0.04030  0.31750  0.05970  Biso   1.000  H
  H200     1.0000 0.95970  0.68250  0.05970  Biso   1.000  H
  H201     1.0000 0.68070  0.98160  0.97010  Biso   1.000  H
  H202     1.0000 0.31930  0.01840  0.97010  Biso   1.000  H
  H203     1.0000 0.01840  0.68070  0.97010  Biso   1.000  H
  H204     1.0000 0.98160  0.31930  0.97010  Biso   1.000  H
  H205     1.0000 0.31930  0.98160  0.02990  Biso   1.000  H
  H206     1.0000 0.68070  0.01840  0.02990  Biso   1.000  H
  H207     1.0000 0.98160  0.68070  0.02990  Biso   1.000  H
  H208     1.0000 0.01840  0.31930  0.02990  Biso   1.000  H
  H209     1.0000 0.31930  0.01840  0.02990  Biso   1.000  H
  H210     1.0000 0.68070  0.98160  0.02990  Biso   1.000  H
  H211     1.0000 0.98160  0.31930  0.02990  Biso   1.000  H
  H212     1.0000 0.01840  0.68070  0.02990  Biso   1.000  H
  H213     1.0000 0.68070  0.01840  0.97010  Biso   1.000  H
  H214     1.0000 0.31930  0.98160  0.97010  Biso   1.000  H
  H215     1.0000 0.01840  0.31930  0.97010  Biso   1.000  H
  H216     1.0000 0.98160  0.68070  0.97010  Biso   1.000  H
  H217     1.0000 0.56720  0.86650  0.97430  Biso   1.000  H
  H218     1.0000 0.43280  0.13350  0.97430  Biso   1.000  H
  H219     1.0000 0.13350  0.56720  0.97430  Biso   1.000  H
  H220     1.0000 0.86650  0.43280  0.97430  Biso   1.000  H
  H221     1.0000 0.43280  0.86650  0.02570  Biso   1.000  H
  H222     1.0000 0.56720  0.13350  0.02570  Biso   1.000  H
  H223     1.0000 0.86650  0.56720  0.02570  Biso   1.000  H
  H224     1.0000 0.13350  0.43280  0.02570  Biso   1.000  H
  H225     1.0000 0.43280  0.13350  0.02570  Biso   1.000  H
  H226     1.0000 0.56720  0.86650  0.02570  Biso   1.000  H
  H227     1.0000 0.86650  0.43280  0.02570  Biso   1.000  H
  H228     1.0000 0.13350  0.56720  0.02570  Biso   1.000  H
  H229     1.0000 0.56720  0.13350  0.97430  Biso   1.000  H
  H230     1.0000 0.43280  0.86650  0.97430  Biso   1.000  H
  H231     1.0000 0.13350  0.43280  0.97430  Biso   1.000  H
  H232     1.0000 0.86650  0.56720  0.97430  Biso   1.000  H
  H233     1.0000 0.54240  0.86520  0.05950  Biso   1.000  H
  H234     1.0000 0.45760  0.13480  0.05950  Biso   1.000  H
  H235     1.0000 0.13480  0.54240  0.05950  Biso   1.000  H
  H236     1.0000 0.86520  0.45760  0.05950  Biso   1.000  H
  H237     1.0000 0.45760  0.86520  0.94050  Biso   1.000  H
  H238     1.0000 0.54240  0.13480  0.94050  Biso   1.000  H
  H239     1.0000 0.86520  0.54240  0.94050  Biso   1.000  H
  H240     1.0000 0.13480  0.45760  0.94050  Biso   1.000  H
  H241     1.0000 0.45760  0.13480  0.94050  Biso   1.000  H
  H242     1.0000 0.54240  0.86520  0.94050  Biso   1.000  H
  H243     1.0000 0.86520  0.45760  0.94050  Biso   1.000  H
  H244     1.0000 0.13480  0.54240  0.94050  Biso   1.000  H
  H245     1.0000 0.54240  0.13480  0.05950  Biso   1.000  H
  H246     1.0000 0.45760  0.86520  0.05950  Biso   1.000  H
  H247     1.0000 0.13480  0.45760  0.05950  Biso   1.000  H
  H248     1.0000 0.86520  0.54240  0.05950  Biso   1.000  H
  H249     1.0000 0.52340  0.86420  0.96620  Biso   1.000  H
  H250     1.0000 0.47660  0.13580  0.96620  Biso   1.000  H
  H251     1.0000 0.13580  0.52340  0.96620  Biso   1.000  H
  H252     1.0000 0.86420  0.47660  0.96620  Biso   1.000  H
  H253     1.0000 0.47660  0.86420  0.03380  Biso   1.000  H
  H254     1.0000 0.52340  0.13580  0.03380  Biso   1.000  H
  H255     1.0000 0.86420  0.52340  0.03380  Biso   1.000  H
  H256     1.0000 0.13580  0.47660  0.03380  Biso   1.000  H
  H257     1.0000 0.47660  0.13580  0.03380  Biso   1.000  H
  H258     1.0000 0.52340  0.86420  0.03380  Biso   1.000  H
  H259     1.0000 0.86420  0.47660  0.03380  Biso   1.000  H
  H260     1.0000 0.13580  0.52340  0.03380  Biso   1.000  H
  H261     1.0000 0.52340  0.13580  0.96620  Biso   1.000  H
  H262     1.0000 0.47660  0.86420  0.96620  Biso   1.000  H
  H263     1.0000 0.13580  0.47660  0.96620  Biso   1.000  H
  H264     1.0000 0.86420  0.52340  0.96620  Biso   1.000  H
  H265     1.0000 0.73190  0.80510  0.55910  Biso   1.000  H
  H266     1.0000 0.26810  0.19490  0.55910  Biso   1.000  H
  H267     1.0000 0.19490  0.73190  0.55910  Biso   1.000  H
  H268     1.0000 0.80510  0.26810  0.55910  Biso   1.000  H
  H269     1.0000 0.26810  0.80510  0.44090  Biso   1.000  H
  H270     1.0000 0.73190  0.19490  0.44090  Biso   1.000  H
  H271     1.0000 0.80510  0.73190  0.44090  Biso   1.000  H
  H272     1.0000 0.19490  0.26810  0.44090  Biso   1.000  H
  H273     1.0000 0.26810  0.19490  0.44090  Biso   1.000  H
  H274     1.0000 0.73190  0.80510  0.44090  Biso   1.000  H
  H275     1.0000 0.80510  0.26810  0.44090  Biso   1.000  H
  H276     1.0000 0.19490  0.73190  0.44090  Biso   1.000  H
  H277     1.0000 0.73190  0.19490  0.55910  Biso   1.000  H
  H278     1.0000 0.26810  0.80510  0.55910  Biso   1.000  H
  H279     1.0000 0.19490  0.26810  0.55910  Biso   1.000  H
  H280     1.0000 0.80510  0.73190  0.55910  Biso   1.000  H
  H281     1.0000 0.71920  0.81630  0.46370  Biso   1.000  H
  H282     1.0000 0.28080  0.18370  0.46370  Biso   1.000  H
  H283     1.0000 0.18370  0.71920  0.46370  Biso   1.000  H
  H284     1.0000 0.81630  0.28080  0.46370  Biso   1.000  H
  H285     1.0000 0.28080  0.81630  0.53630  Biso   1.000  H
  H286     1.0000 0.71920  0.18370  0.53630  Biso   1.000  H
  H287     1.0000 0.81630  0.71920  0.53630  Biso   1.000  H
  H288     1.0000 0.18370  0.28080  0.53630  Biso   1.000  H
  H289     1.0000 0.28080  0.18370  0.53630  Biso   1.000  H
  H290     1.0000 0.71920  0.81630  0.53630  Biso   1.000  H
  H291     1.0000 0.81630  0.28080  0.53630  Biso   1.000  H
  H292     1.0000 0.18370  0.71920  0.53630  Biso   1.000  H
  H293     1.0000 0.71920  0.18370  0.46370  Biso   1.000  H
  H294     1.0000 0.28080  0.81630  0.46370  Biso   1.000  H
  H295     1.0000 0.18370  0.28080  0.46370  Biso   1.000  H
  H296     1.0000 0.81630  0.71920  0.46370  Biso   1.000  H
  H297     1.0000 0.75200  0.78750  0.47710  Biso   1.000  H
  H298     1.0000 0.24800  0.21250  0.47710  Biso   1.000  H
  H299     1.0000 0.21250  0.75200  0.47710  Biso   1.000  H
  H300     1.0000 0.78750  0.24800  0.47710  Biso   1.000  H
  H301     1.0000 0.24800  0.78750  0.52290  Biso   1.000  H
  H302     1.0000 0.75200  0.21250  0.52290  Biso   1.000  H
  H303     1.0000 0.78750  0.75200  0.52290  Biso   1.000  H
  H304     1.0000 0.21250  0.24800  0.52290  Biso   1.000  H
  H305     1.0000 0.24800  0.21250  0.52290  Biso   1.000  H
  H306     1.0000 0.75200  0.78750  0.52290  Biso   1.000  H
  H307     1.0000 0.78750  0.24800  0.52290  Biso   1.000  H
  H308     1.0000 0.21250  0.75200  0.52290  Biso   1.000  H
  H309     1.0000 0.75200  0.21250  0.47710  Biso   1.000  H
  H310     1.0000 0.24800  0.78750  0.47710  Biso   1.000  H
  H311     1.0000 0.21250  0.24800  0.47710  Biso   1.000  H
  H312     1.0000 0.78750  0.75200  0.47710  Biso   1.000  H
