data_image0
_cell_length_a       28.885
_cell_length_b       28.885
_cell_length_c       28.305
_cell_angle_alpha    90
_cell_angle_beta     90
_cell_angle_gamma    90

_symmetry_space_group_name_H-M    "P 1"
_symmetry_int_tables_number       1

loop_
  _symmetry_equiv_pos_as_xyz
  'x, y, z'

loop_
  _atom_site_label
  _atom_site_occupancy
  _atom_site_fract_x
  _atom_site_fract_y
  _atom_site_fract_z
  _atom_site_thermal_displace_type
  _atom_site_B_iso_or_equiv
  _atom_site_type_symbol
  Cu1      1.0000 0.78327  0.50000  0.00000  Biso   1.000  Cu
  Cu2      1.0000 0.21673  0.50000  0.00000  Biso   1.000  Cu
  Cu3      1.0000 0.50000  0.78327  0.00000  Biso   1.000  Cu
  Cu4      1.0000 0.50000  0.21673  0.00000  Biso   1.000  Cu
  Cu5      1.0000 0.28327  0.00000  0.50000  Biso   1.000  Cu
  Cu6      1.0000 0.71673  0.00000  0.50000  Biso   1.000  Cu
  Cu7      1.0000 0.00000  0.28327  0.50000  Biso   1.000  Cu
  Cu8      1.0000 0.00000  0.71673  0.50000  Biso   1.000  Cu
  Cu9      1.0000 0.87476  0.50000  0.00000  Biso   1.000  Cu
  Cu10     1.0000 0.12524  0.50000  0.00000  Biso   1.000  Cu
  Cu11     1.0000 0.50000  0.87476  0.00000  Biso   1.000  Cu
  Cu12     1.0000 0.50000  0.12524  0.00000  Biso   1.000  Cu
  Cu13     1.0000 0.37476  0.00000  0.50000  Biso   1.000  Cu
  Cu14     1.0000 0.62524  0.00000  0.50000  Biso   1.000  Cu
  Cu15     1.0000 0.00000  0.37476  0.50000  Biso   1.000  Cu
  Cu16     1.0000 0.00000  0.62524  0.50000  Biso   1.000  Cu
  Cu17     1.0000 0.64046  0.35735  0.81193  Biso   1.000  Cu
  Cu18     1.0000 0.35954  0.64265  0.81193  Biso   1.000  Cu
  Cu19     1.0000 0.64265  0.64046  0.81193  Biso   1.000  Cu
  Cu20     1.0000 0.35735  0.35954  0.81193  Biso   1.000  Cu
  Cu21     1.0000 0.35954  0.35735  0.18807  Biso   1.000  Cu
  Cu22     1.0000 0.64046  0.64265  0.18807  Biso   1.000  Cu
  Cu23     1.0000 0.35735  0.64046  0.18807  Biso   1.000  Cu
  Cu24     1.0000 0.64265  0.35954  0.18807  Biso   1.000  Cu
  Cu25     1.0000 0.14046  0.85735  0.31193  Biso   1.000  Cu
  Cu26     1.0000 0.85954  0.14265  0.31193  Biso   1.000  Cu
  Cu27     1.0000 0.14265  0.14046  0.31193  Biso   1.000  Cu
  Cu28     1.0000 0.85735  0.85954  0.31193  Biso   1.000  Cu
  Cu29     1.0000 0.85954  0.85735  0.68807  Biso   1.000  Cu
  Cu30     1.0000 0.14046  0.14265  0.68807  Biso   1.000  Cu
  Cu31     1.0000 0.85735  0.14046  0.68807  Biso   1.000  Cu
  Cu32     1.0000 0.14265  0.85954  0.68807  Biso   1.000  Cu
  Cu33     1.0000 0.68432  0.31378  0.74330  Biso   1.000  Cu
  Cu34     1.0000 0.31568  0.68622  0.74330  Biso   1.000  Cu
  Cu35     1.0000 0.68622  0.68432  0.74330  Biso   1.000  Cu
  Cu36     1.0000 0.31378  0.31568  0.74330  Biso   1.000  Cu
  Cu37     1.0000 0.31568  0.31378  0.25670  Biso   1.000  Cu
  Cu38     1.0000 0.68432  0.68622  0.25670  Biso   1.000  Cu
  Cu39     1.0000 0.31378  0.68432  0.25670  Biso   1.000  Cu
  Cu40     1.0000 0.68622  0.31568  0.25670  Biso   1.000  Cu
  Cu41     1.0000 0.18432  0.81378  0.24330  Biso   1.000  Cu
  Cu42     1.0000 0.81568  0.18622  0.24330  Biso   1.000  Cu
  Cu43     1.0000 0.18622  0.18432  0.24330  Biso   1.000  Cu
  Cu44     1.0000 0.81378  0.81568  0.24330  Biso   1.000  Cu
  Cu45     1.0000 0.81568  0.81378  0.75670  Biso   1.000  Cu
  Cu46     1.0000 0.18432  0.18622  0.75670  Biso   1.000  Cu
  Cu47     1.0000 0.81378  0.18432  0.75670  Biso   1.000  Cu
  Cu48     1.0000 0.18622  0.81568  0.75670  Biso   1.000  Cu
  O1       1.0000 0.74170  0.32540  0.78290  Biso   1.000  O
  O2       1.0000 0.25830  0.67460  0.78290  Biso   1.000  O
  O3       1.0000 0.67460  0.74170  0.78290  Biso   1.000  O
  O4       1.0000 0.32540  0.25830  0.78290  Biso   1.000  O
  O5       1.0000 0.25830  0.32540  0.21710  Biso   1.000  O
  O6       1.0000 0.74170  0.67460  0.21710  Biso   1.000  O
  O7       1.0000 0.32540  0.74170  0.21710  Biso   1.000  O
  O8       1.0000 0.67460  0.25830  0.21710  Biso   1.000  O
  O9       1.0000 0.24170  0.82540  0.28290  Biso   1.000  O
  O10      1.0000 0.75830  0.17460  0.28290  Biso   1.000  O
  O11      1.0000 0.17460  0.24170  0.28290  Biso   1.000  O
  O12      1.0000 0.82540  0.75830  0.28290  Biso   1.000  O
  O13      1.0000 0.75830  0.82540  0.71710  Biso   1.000  O
  O14      1.0000 0.24170  0.17460  0.71710  Biso   1.000  O
  O15      1.0000 0.82540  0.24170  0.71710  Biso   1.000  O
  O16      1.0000 0.17460  0.75830  0.71710  Biso   1.000  O
  O17      1.0000 0.70380  0.35960  0.84100  Biso   1.000  O
  O18      1.0000 0.29620  0.64040  0.84100  Biso   1.000  O
  O19      1.0000 0.64040  0.70380  0.84100  Biso   1.000  O
  O20      1.0000 0.35960  0.29620  0.84100  Biso   1.000  O
  O21      1.0000 0.29620  0.35960  0.15900  Biso   1.000  O
  O22      1.0000 0.70380  0.64040  0.15900  Biso   1.000  O
  O23      1.0000 0.35960  0.70380  0.15900  Biso   1.000  O
  O24      1.0000 0.64040  0.29620  0.15900  Biso   1.000  O
  O25      1.0000 0.20380  0.85960  0.34100  Biso   1.000  O
  O26      1.0000 0.79620  0.14040  0.34100  Biso   1.000  O
  O27      1.0000 0.14040  0.20380  0.34100  Biso   1.000  O
  O28      1.0000 0.85960  0.79620  0.34100  Biso   1.000  O
  O29      1.0000 0.79620  0.85960  0.65900  Biso   1.000  O
  O30      1.0000 0.20380  0.14040  0.65900  Biso   1.000  O
  O31      1.0000 0.85960  0.20380  0.65900  Biso   1.000  O
  O32      1.0000 0.14040  0.79620  0.65900  Biso   1.000  O
  O33      1.0000 0.79070  0.45270  0.94900  Biso   1.000  O
  O34      1.0000 0.20930  0.54730  0.94900  Biso   1.000  O
  O35      1.0000 0.54730  0.79070  0.94900  Biso   1.000  O
  O36      1.0000 0.45270  0.20930  0.94900  Biso   1.000  O
  O37      1.0000 0.20930  0.45270  0.05100  Biso   1.000  O
  O38      1.0000 0.79070  0.54730  0.05100  Biso   1.000  O
  O39      1.0000 0.45270  0.79070  0.05100  Biso   1.000  O
  O40      1.0000 0.54730  0.20930  0.05100  Biso   1.000  O
  O41      1.0000 0.29070  0.95270  0.44900  Biso   1.000  O
  O42      1.0000 0.70930  0.04730  0.44900  Biso   1.000  O
  O43      1.0000 0.04730  0.29070  0.44900  Biso   1.000  O
  O44      1.0000 0.95270  0.70930  0.44900  Biso   1.000  O
  O45      1.0000 0.70930  0.95270  0.55100  Biso   1.000  O
  O46      1.0000 0.29070  0.04730  0.55100  Biso   1.000  O
  O47      1.0000 0.95270  0.29070  0.55100  Biso   1.000  O
  O48      1.0000 0.04730  0.70930  0.55100  Biso   1.000  O
  O49      1.0000 0.86820  0.45140  0.95270  Biso   1.000  O
  O50      1.0000 0.13180  0.54860  0.95270  Biso   1.000  O
  O51      1.0000 0.54860  0.86820  0.95270  Biso   1.000  O
  O52      1.0000 0.45140  0.13180  0.95270  Biso   1.000  O
  O53      1.0000 0.13180  0.45140  0.04730  Biso   1.000  O
  O54      1.0000 0.86820  0.54860  0.04730  Biso   1.000  O
  O55      1.0000 0.45140  0.86820  0.04730  Biso   1.000  O
  O56      1.0000 0.54860  0.13180  0.04730  Biso   1.000  O
  O57      1.0000 0.36820  0.95140  0.45270  Biso   1.000  O
  O58      1.0000 0.63180  0.04860  0.45270  Biso   1.000  O
  O59      1.0000 0.04860  0.36820  0.45270  Biso   1.000  O
  O60      1.0000 0.95140  0.63180  0.45270  Biso   1.000  O
  O61      1.0000 0.63180  0.95140  0.54730  Biso   1.000  O
  O62      1.0000 0.36820  0.04860  0.54730  Biso   1.000  O
  O63      1.0000 0.95140  0.36820  0.54730  Biso   1.000  O
  O64      1.0000 0.04860  0.63180  0.54730  Biso   1.000  O
  O65      1.0000 0.91000  0.33520  0.82650  Biso   1.000  O
  O66      1.0000 0.09000  0.66480  0.82650  Biso   1.000  O
  O67      1.0000 0.66480  0.91000  0.82650  Biso   1.000  O
  O68      1.0000 0.33520  0.09000  0.82650  Biso   1.000  O
  O69      1.0000 0.09000  0.33520  0.17350  Biso   1.000  O
  O70      1.0000 0.91000  0.66480  0.17350  Biso   1.000  O
  O71      1.0000 0.33520  0.91000  0.17350  Biso   1.000  O
  O72      1.0000 0.66480  0.09000  0.17350  Biso   1.000  O
  O73      1.0000 0.41000  0.83520  0.32650  Biso   1.000  O
  O74      1.0000 0.59000  0.16480  0.32650  Biso   1.000  O
  O75      1.0000 0.16480  0.41000  0.32650  Biso   1.000  O
  O76      1.0000 0.83520  0.59000  0.32650  Biso   1.000  O
  O77      1.0000 0.59000  0.83520  0.67350  Biso   1.000  O
  O78      1.0000 0.41000  0.16480  0.67350  Biso   1.000  O
  O79      1.0000 0.83520  0.41000  0.67350  Biso   1.000  O
  O80      1.0000 0.16480  0.59000  0.67350  Biso   1.000  O
  C1       1.0000 0.78350  0.36100  0.84120  Biso   1.000  C
  C2       1.0000 0.21650  0.63900  0.84120  Biso   1.000  C
  C3       1.0000 0.63900  0.78350  0.84120  Biso   1.000  C
  C4       1.0000 0.36100  0.21650  0.84120  Biso   1.000  C
  C5       1.0000 0.21650  0.36100  0.15880  Biso   1.000  C
  C6       1.0000 0.78350  0.63900  0.15880  Biso   1.000  C
  C7       1.0000 0.36100  0.78350  0.15880  Biso   1.000  C
  C8       1.0000 0.63900  0.21650  0.15880  Biso   1.000  C
  C9       1.0000 0.28350  0.86100  0.34120  Biso   1.000  C
  C10      1.0000 0.71650  0.13900  0.34120  Biso   1.000  C
  C11      1.0000 0.13900  0.28350  0.34120  Biso   1.000  C
  C12      1.0000 0.86100  0.71650  0.34120  Biso   1.000  C
  C13      1.0000 0.71650  0.86100  0.65880  Biso   1.000  C
  C14      1.0000 0.28350  0.13900  0.65880  Biso   1.000  C
  C15      1.0000 0.86100  0.28350  0.65880  Biso   1.000  C
  C16      1.0000 0.13900  0.71650  0.65880  Biso   1.000  C
  C17      1.0000 0.78570  0.39190  0.87870  Biso   1.000  C
  C18      1.0000 0.21430  0.60810  0.87870  Biso   1.000  C
  C19      1.0000 0.60810  0.78570  0.87870  Biso   1.000  C
  C20      1.0000 0.39190  0.21430  0.87870  Biso   1.000  C
  C21      1.0000 0.21430  0.39190  0.12130  Biso   1.000  C
  C22      1.0000 0.78570  0.60810  0.12130  Biso   1.000  C
  C23      1.0000 0.39190  0.78570  0.12130  Biso   1.000  C
  C24      1.0000 0.60810  0.21430  0.12130  Biso   1.000  C
  C25      1.0000 0.28570  0.89190  0.37870  Biso   1.000  C
  C26      1.0000 0.71430  0.10810  0.37870  Biso   1.000  C
  C27      1.0000 0.10810  0.28570  0.37870  Biso   1.000  C
  C28      1.0000 0.89190  0.71430  0.37870  Biso   1.000  C
  C29      1.0000 0.71430  0.89190  0.62130  Biso   1.000  C
  C30      1.0000 0.28570  0.10810  0.62130  Biso   1.000  C
  C31      1.0000 0.89190  0.28570  0.62130  Biso   1.000  C
  C32      1.0000 0.10810  0.71430  0.62130  Biso   1.000  C
  H1       1.0000 0.75880  0.40590  0.88990  Biso   1.000  H
  H2       1.0000 0.24120  0.59410  0.88990  Biso   1.000  H
  H3       1.0000 0.59410  0.75880  0.88990  Biso   1.000  H
  H4       1.0000 0.40590  0.24120  0.88990  Biso   1.000  H
  H5       1.0000 0.24120  0.40590  0.11010  Biso   1.000  H
  H6       1.0000 0.75880  0.59410  0.11010  Biso   1.000  H
  H7       1.0000 0.40590  0.75880  0.11010  Biso   1.000  H
  H8       1.0000 0.59410  0.24120  0.11010  Biso   1.000  H
  H9       1.0000 0.25880  0.90590  0.38990  Biso   1.000  H
  H10      1.0000 0.74120  0.09410  0.38990  Biso   1.000  H
  H11      1.0000 0.09410  0.25880  0.38990  Biso   1.000  H
  H12      1.0000 0.90590  0.74120  0.38990  Biso   1.000  H
  H13      1.0000 0.74120  0.90590  0.61010  Biso   1.000  H
  H14      1.0000 0.25880  0.09410  0.61010  Biso   1.000  H
  H15      1.0000 0.90590  0.25880  0.61010  Biso   1.000  H
  H16      1.0000 0.09410  0.74120  0.61010  Biso   1.000  H
  C33      1.0000 0.82800  0.40190  0.89970  Biso   1.000  C
  C34      1.0000 0.17200  0.59810  0.89970  Biso   1.000  C
  C35      1.0000 0.59810  0.82800  0.89970  Biso   1.000  C
  C36      1.0000 0.40190  0.17200  0.89970  Biso   1.000  C
  C37      1.0000 0.17200  0.40190  0.10030  Biso   1.000  C
  C38      1.0000 0.82800  0.59810  0.10030  Biso   1.000  C
  C39      1.0000 0.40190  0.82800  0.10030  Biso   1.000  C
  C40      1.0000 0.59810  0.17200  0.10030  Biso   1.000  C
  C41      1.0000 0.32800  0.90190  0.39970  Biso   1.000  C
  C42      1.0000 0.67200  0.09810  0.39970  Biso   1.000  C
  C43      1.0000 0.09810  0.32800  0.39970  Biso   1.000  C
  C44      1.0000 0.90190  0.67200  0.39970  Biso   1.000  C
  C45      1.0000 0.67200  0.90190  0.60030  Biso   1.000  C
  C46      1.0000 0.32800  0.09810  0.60030  Biso   1.000  C
  C47      1.0000 0.90190  0.32800  0.60030  Biso   1.000  C
  C48      1.0000 0.09810  0.67200  0.60030  Biso   1.000  C
  C49      1.0000 0.86820  0.38090  0.88310  Biso   1.000  C
  C50      1.0000 0.13180  0.61910  0.88310  Biso   1.000  C
  C51      1.0000 0.61910  0.86820  0.88310  Biso   1.000  C
  C52      1.0000 0.38090  0.13180  0.88310  Biso   1.000  C
  C53      1.0000 0.13180  0.38090  0.11690  Biso   1.000  C
  C54      1.0000 0.86820  0.61910  0.11690  Biso   1.000  C
  C55      1.0000 0.38090  0.86820  0.11690  Biso   1.000  C
  C56      1.0000 0.61910  0.13180  0.11690  Biso   1.000  C
  C57      1.0000 0.36820  0.88090  0.38310  Biso   1.000  C
  C58      1.0000 0.63180  0.11910  0.38310  Biso   1.000  C
  C59      1.0000 0.11910  0.36820  0.38310  Biso   1.000  C
  C60      1.0000 0.88090  0.63180  0.38310  Biso   1.000  C
  C61      1.0000 0.63180  0.88090  0.61690  Biso   1.000  C
  C62      1.0000 0.36820  0.11910  0.61690  Biso   1.000  C
  C63      1.0000 0.88090  0.36820  0.61690  Biso   1.000  C
  C64      1.0000 0.11910  0.63180  0.61690  Biso   1.000  C
  H17      1.0000 0.89650  0.38760  0.89720  Biso   1.000  H
  H18      1.0000 0.10350  0.61240  0.89720  Biso   1.000  H
  H19      1.0000 0.61240  0.89650  0.89720  Biso   1.000  H
  H20      1.0000 0.38760  0.10350  0.89720  Biso   1.000  H
  H21      1.0000 0.10350  0.38760  0.10280  Biso   1.000  H
  H22      1.0000 0.89650  0.61240  0.10280  Biso   1.000  H
  H23      1.0000 0.38760  0.89650  0.10280  Biso   1.000  H
  H24      1.0000 0.61240  0.10350  0.10280  Biso   1.000  H
  H25      1.0000 0.39650  0.88760  0.39720  Biso   1.000  H
  H26      1.0000 0.60350  0.11240  0.39720  Biso   1.000  H
  H27      1.0000 0.11240  0.39650  0.39720  Biso   1.000  H
  H28      1.0000 0.88760  0.60350  0.39720  Biso   1.000  H
  H29      1.0000 0.60350  0.88760  0.60280  Biso   1.000  H
  H30      1.0000 0.39650  0.11240  0.60280  Biso   1.000  H
  H31      1.0000 0.88760  0.39650  0.60280  Biso   1.000  H
  H32      1.0000 0.11240  0.60350  0.60280  Biso   1.000  H
  C65      1.0000 0.86600  0.35000  0.84550  Biso   1.000  C
  C66      1.0000 0.13400  0.65000  0.84550  Biso   1.000  C
  C67      1.0000 0.65000  0.86600  0.84550  Biso   1.000  C
  C68      1.0000 0.35000  0.13400  0.84550  Biso   1.000  C
  C69      1.0000 0.13400  0.35000  0.15450  Biso   1.000  C
  C70      1.0000 0.86600  0.65000  0.15450  Biso   1.000  C
  C71      1.0000 0.35000  0.86600  0.15450  Biso   1.000  C
  C72      1.0000 0.65000  0.13400  0.15450  Biso   1.000  C
  C73      1.0000 0.36600  0.85000  0.34550  Biso   1.000  C
  C74      1.0000 0.63400  0.15000  0.34550  Biso   1.000  C
  C75      1.0000 0.15000  0.36600  0.34550  Biso   1.000  C
  C76      1.0000 0.85000  0.63400  0.34550  Biso   1.000  C
  C77      1.0000 0.63400  0.85000  0.65450  Biso   1.000  C
  C78      1.0000 0.36600  0.15000  0.65450  Biso   1.000  C
  C79      1.0000 0.85000  0.36600  0.65450  Biso   1.000  C
  C80      1.0000 0.15000  0.63400  0.65450  Biso   1.000  C
  C81      1.0000 0.82360  0.34010  0.82450  Biso   1.000  C
  C82      1.0000 0.17640  0.65990  0.82450  Biso   1.000  C
  C83      1.0000 0.65990  0.82360  0.82450  Biso   1.000  C
  C84      1.0000 0.34010  0.17640  0.82450  Biso   1.000  C
  C85      1.0000 0.17640  0.34010  0.17550  Biso   1.000  C
  C86      1.0000 0.82360  0.65990  0.17550  Biso   1.000  C
  C87      1.0000 0.34010  0.82360  0.17550  Biso   1.000  C
  C88      1.0000 0.65990  0.17640  0.17550  Biso   1.000  C
  C89      1.0000 0.32360  0.84010  0.32450  Biso   1.000  C
  C90      1.0000 0.67640  0.15990  0.32450  Biso   1.000  C
  C91      1.0000 0.15990  0.32360  0.32450  Biso   1.000  C
  C92      1.0000 0.84010  0.67640  0.32450  Biso   1.000  C
  C93      1.0000 0.67640  0.84010  0.67550  Biso   1.000  C
  C94      1.0000 0.32360  0.15990  0.67550  Biso   1.000  C
  C95      1.0000 0.84010  0.32360  0.67550  Biso   1.000  C
  C96      1.0000 0.15990  0.67640  0.67550  Biso   1.000  C
  H33      1.0000 0.82220  0.31940  0.79940  Biso   1.000  H
  H34      1.0000 0.17780  0.68060  0.79940  Biso   1.000  H
  H35      1.0000 0.68060  0.82220  0.79940  Biso   1.000  H
  H36      1.0000 0.31940  0.17780  0.79940  Biso   1.000  H
  H37      1.0000 0.17780  0.31940  0.20060  Biso   1.000  H
  H38      1.0000 0.82220  0.68060  0.20060  Biso   1.000  H
  H39      1.0000 0.31940  0.82220  0.20060  Biso   1.000  H
  H40      1.0000 0.68060  0.17780  0.20060  Biso   1.000  H
  H41      1.0000 0.32220  0.81940  0.29940  Biso   1.000  H
  H42      1.0000 0.67780  0.18060  0.29940  Biso   1.000  H
  H43      1.0000 0.18060  0.32220  0.29940  Biso   1.000  H
  H44      1.0000 0.81940  0.67780  0.29940  Biso   1.000  H
  H45      1.0000 0.67780  0.81940  0.70060  Biso   1.000  H
  H46      1.0000 0.32220  0.18060  0.70060  Biso   1.000  H
  H47      1.0000 0.81940  0.32220  0.70060  Biso   1.000  H
  H48      1.0000 0.18060  0.67780  0.70060  Biso   1.000  H
  C97      1.0000 0.73890  0.34460  0.82310  Biso   1.000  C
  C98      1.0000 0.26110  0.65540  0.82310  Biso   1.000  C
  C99      1.0000 0.65540  0.73890  0.82310  Biso   1.000  C
  C100     1.0000 0.34460  0.26110  0.82310  Biso   1.000  C
  C101     1.0000 0.26110  0.34460  0.17690  Biso   1.000  C
  C102     1.0000 0.73890  0.65540  0.17690  Biso   1.000  C
  C103     1.0000 0.34460  0.73890  0.17690  Biso   1.000  C
  C104     1.0000 0.65540  0.26110  0.17690  Biso   1.000  C
  C105     1.0000 0.23890  0.84460  0.32310  Biso   1.000  C
  C106     1.0000 0.76110  0.15540  0.32310  Biso   1.000  C
  C107     1.0000 0.15540  0.23890  0.32310  Biso   1.000  C
  C108     1.0000 0.84460  0.76110  0.32310  Biso   1.000  C
  C109     1.0000 0.76110  0.84460  0.67690  Biso   1.000  C
  C110     1.0000 0.23890  0.15540  0.67690  Biso   1.000  C
  C111     1.0000 0.84460  0.23890  0.67690  Biso   1.000  C
  C112     1.0000 0.15540  0.76110  0.67690  Biso   1.000  C
  C113     1.0000 0.83000  0.43790  0.93840  Biso   1.000  C
  C114     1.0000 0.17000  0.56210  0.93840  Biso   1.000  C
  C115     1.0000 0.56210  0.83000  0.93840  Biso   1.000  C
  C116     1.0000 0.43790  0.17000  0.93840  Biso   1.000  C
  C117     1.0000 0.17000  0.43790  0.06160  Biso   1.000  C
  C118     1.0000 0.83000  0.56210  0.06160  Biso   1.000  C
  C119     1.0000 0.43790  0.83000  0.06160  Biso   1.000  C
  C120     1.0000 0.56210  0.17000  0.06160  Biso   1.000  C
  C121     1.0000 0.33000  0.93790  0.43840  Biso   1.000  C
  C122     1.0000 0.67000  0.06210  0.43840  Biso   1.000  C
  C123     1.0000 0.06210  0.33000  0.43840  Biso   1.000  C
  C124     1.0000 0.93790  0.67000  0.43840  Biso   1.000  C
  C125     1.0000 0.67000  0.93790  0.56160  Biso   1.000  C
  C126     1.0000 0.33000  0.06210  0.56160  Biso   1.000  C
  C127     1.0000 0.93790  0.33000  0.56160  Biso   1.000  C
  C128     1.0000 0.06210  0.67000  0.56160  Biso   1.000  C
  C129     1.0000 0.91090  0.30970  0.78710  Biso   1.000  C
  C130     1.0000 0.08910  0.69030  0.78710  Biso   1.000  C
  C131     1.0000 0.69030  0.91090  0.78710  Biso   1.000  C
  C132     1.0000 0.30970  0.08910  0.78710  Biso   1.000  C
  C133     1.0000 0.08910  0.30970  0.21290  Biso   1.000  C
  C134     1.0000 0.91090  0.69030  0.21290  Biso   1.000  C
  C135     1.0000 0.30970  0.91090  0.21290  Biso   1.000  C
  C136     1.0000 0.69030  0.08910  0.21290  Biso   1.000  C
  C137     1.0000 0.41090  0.80970  0.28710  Biso   1.000  C
  C138     1.0000 0.58910  0.19030  0.28710  Biso   1.000  C
  C139     1.0000 0.19030  0.41090  0.28710  Biso   1.000  C
  C140     1.0000 0.80970  0.58910  0.28710  Biso   1.000  C
  C141     1.0000 0.58910  0.80970  0.71290  Biso   1.000  C
  C142     1.0000 0.41090  0.19030  0.71290  Biso   1.000  C
  C143     1.0000 0.80970  0.41090  0.71290  Biso   1.000  C
  C144     1.0000 0.19030  0.58910  0.71290  Biso   1.000  C
  H49      1.0000 0.88730  0.32130  0.76580  Biso   1.000  H
  H50      1.0000 0.11270  0.67870  0.76580  Biso   1.000  H
  H51      1.0000 0.67870  0.88730  0.76580  Biso   1.000  H
  H52      1.0000 0.32130  0.11270  0.76580  Biso   1.000  H
  H53      1.0000 0.11270  0.32130  0.23420  Biso   1.000  H
  H54      1.0000 0.88730  0.67870  0.23420  Biso   1.000  H
  H55      1.0000 0.32130  0.88730  0.23420  Biso   1.000  H
  H56      1.0000 0.67870  0.11270  0.23420  Biso   1.000  H
  H57      1.0000 0.38730  0.82130  0.26580  Biso   1.000  H
  H58      1.0000 0.61270  0.17870  0.26580  Biso   1.000  H
  H59      1.0000 0.17870  0.38730  0.26580  Biso   1.000  H
  H60      1.0000 0.82130  0.61270  0.26580  Biso   1.000  H
  H61      1.0000 0.61270  0.82130  0.73420  Biso   1.000  H
  H62      1.0000 0.38730  0.17870  0.73420  Biso   1.000  H
  H63      1.0000 0.82130  0.38730  0.73420  Biso   1.000  H
  H64      1.0000 0.17870  0.61270  0.73420  Biso   1.000  H
  H65      1.0000 0.90260  0.27820  0.79530  Biso   1.000  H
  H66      1.0000 0.09740  0.72180  0.79530  Biso   1.000  H
  H67      1.0000 0.72180  0.90260  0.79530  Biso   1.000  H
  H68      1.0000 0.27820  0.09740  0.79530  Biso   1.000  H
  H69      1.0000 0.09740  0.27820  0.20470  Biso   1.000  H
  H70      1.0000 0.90260  0.72180  0.20470  Biso   1.000  H
  H71      1.0000 0.27820  0.90260  0.20470  Biso   1.000  H
  H72      1.0000 0.72180  0.09740  0.20470  Biso   1.000  H
  H73      1.0000 0.40260  0.77820  0.29530  Biso   1.000  H
  H74      1.0000 0.59740  0.22180  0.29530  Biso   1.000  H
  H75      1.0000 0.22180  0.40260  0.29530  Biso   1.000  H
  H76      1.0000 0.77820  0.59740  0.29530  Biso   1.000  H
  H77      1.0000 0.59740  0.77820  0.70470  Biso   1.000  H
  H78      1.0000 0.40260  0.22180  0.70470  Biso   1.000  H
  H79      1.0000 0.77820  0.40260  0.70470  Biso   1.000  H
  H80      1.0000 0.22180  0.59740  0.70470  Biso   1.000  H
  C145     1.0000 0.95650  0.30860  0.76090  Biso   1.000  C
  C146     1.0000 0.04350  0.69140  0.76090  Biso   1.000  C
  C147     1.0000 0.69140  0.95650  0.76090  Biso   1.000  C
  C148     1.0000 0.30860  0.04350  0.76090  Biso   1.000  C
  C149     1.0000 0.04350  0.30860  0.23910  Biso   1.000  C
  C150     1.0000 0.95650  0.69140  0.23910  Biso   1.000  C
  C151     1.0000 0.30860  0.95650  0.23910  Biso   1.000  C
  C152     1.0000 0.69140  0.04350  0.23910  Biso   1.000  C
  C153     1.0000 0.45650  0.80860  0.26090  Biso   1.000  C
  C154     1.0000 0.54350  0.19140  0.26090  Biso   1.000  C
  C155     1.0000 0.19140  0.45650  0.26090  Biso   1.000  C
  C156     1.0000 0.80860  0.54350  0.26090  Biso   1.000  C
  C157     1.0000 0.54350  0.80860  0.73910  Biso   1.000  C
  C158     1.0000 0.45650  0.19140  0.73910  Biso   1.000  C
  C159     1.0000 0.80860  0.45650  0.73910  Biso   1.000  C
  C160     1.0000 0.19140  0.54350  0.73910  Biso   1.000  C
  C161     1.0000 0.99780  0.30750  0.78610  Biso   1.000  C
  C162     1.0000 0.00220  0.69250  0.78610  Biso   1.000  C
  C163     1.0000 0.69250  0.99780  0.78610  Biso   1.000  C
  C164     1.0000 0.30750  0.00220  0.78610  Biso   1.000  C
  C165     1.0000 0.00220  0.30750  0.21390  Biso   1.000  C
  C166     1.0000 0.99780  0.69250  0.21390  Biso   1.000  C
  C167     1.0000 0.30750  0.99780  0.21390  Biso   1.000  C
  C168     1.0000 0.69250  0.00220  0.21390  Biso   1.000  C
  C169     1.0000 0.49780  0.80750  0.28610  Biso   1.000  C
  C170     1.0000 0.50220  0.19250  0.28610  Biso   1.000  C
  C171     1.0000 0.19250  0.49780  0.28610  Biso   1.000  C
  C172     1.0000 0.80750  0.50220  0.28610  Biso   1.000  C
  C173     1.0000 0.50220  0.80750  0.71390  Biso   1.000  C
  C174     1.0000 0.49780  0.19250  0.71390  Biso   1.000  C
  C175     1.0000 0.80750  0.49780  0.71390  Biso   1.000  C
  C176     1.0000 0.19250  0.50220  0.71390  Biso   1.000  C
  H81      1.0000 0.99780  0.29900  0.81770  Biso   1.000  H
  H82      1.0000 0.00220  0.70100  0.81770  Biso   1.000  H
  H83      1.0000 0.70100  0.99780  0.81770  Biso   1.000  H
  H84      1.0000 0.29900  0.00220  0.81770  Biso   1.000  H
  H85      1.0000 0.00220  0.29900  0.18230  Biso   1.000  H
  H86      1.0000 0.99780  0.70100  0.18230  Biso   1.000  H
  H87      1.0000 0.29900  0.99780  0.18230  Biso   1.000  H
  H88      1.0000 0.70100  0.00220  0.18230  Biso   1.000  H
  H89      1.0000 0.49780  0.79900  0.31770  Biso   1.000  H
  H90      1.0000 0.50220  0.20100  0.31770  Biso   1.000  H
  H91      1.0000 0.20100  0.49780  0.31770  Biso   1.000  H
  H92      1.0000 0.79900  0.50220  0.31770  Biso   1.000  H
  H93      1.0000 0.50220  0.79900  0.68230  Biso   1.000  H
  H94      1.0000 0.49780  0.20100  0.68230  Biso   1.000  H
  H95      1.0000 0.79900  0.49780  0.68230  Biso   1.000  H
  H96      1.0000 0.20100  0.50220  0.68230  Biso   1.000  H
  C177     1.0000 0.03910  0.31910  0.76390  Biso   1.000  C
  C178     1.0000 0.96090  0.68090  0.76390  Biso   1.000  C
  C179     1.0000 0.68090  0.03910  0.76390  Biso   1.000  C
  C180     1.0000 0.31910  0.96090  0.76390  Biso   1.000  C
  C181     1.0000 0.96090  0.31910  0.23610  Biso   1.000  C
  C182     1.0000 0.03910  0.68090  0.23610  Biso   1.000  C
  C183     1.0000 0.31910  0.03910  0.23610  Biso   1.000  C
  C184     1.0000 0.68090  0.96090  0.23610  Biso   1.000  C
  C185     1.0000 0.53910  0.81910  0.26390  Biso   1.000  C
  C186     1.0000 0.46090  0.18090  0.26390  Biso   1.000  C
  C187     1.0000 0.18090  0.53910  0.26390  Biso   1.000  C
  C188     1.0000 0.81910  0.46090  0.26390  Biso   1.000  C
  C189     1.0000 0.46090  0.81910  0.73610  Biso   1.000  C
  C190     1.0000 0.53910  0.18090  0.73610  Biso   1.000  C
  C191     1.0000 0.81910  0.53910  0.73610  Biso   1.000  C
  C192     1.0000 0.18090  0.46090  0.73610  Biso   1.000  C
  C193     1.0000 0.99780  0.33290  0.69130  Biso   1.000  C
  C194     1.0000 0.00220  0.66710  0.69130  Biso   1.000  C
  C195     1.0000 0.66710  0.99780  0.69130  Biso   1.000  C
  C196     1.0000 0.33290  0.00220  0.69130  Biso   1.000  C
  C197     1.0000 0.00220  0.33290  0.30870  Biso   1.000  C
  C198     1.0000 0.99780  0.66710  0.30870  Biso   1.000  C
  C199     1.0000 0.33290  0.99780  0.30870  Biso   1.000  C
  C200     1.0000 0.66710  0.00220  0.30870  Biso   1.000  C
  C201     1.0000 0.49780  0.83290  0.19130  Biso   1.000  C
  C202     1.0000 0.50220  0.16710  0.19130  Biso   1.000  C
  C203     1.0000 0.16710  0.49780  0.19130  Biso   1.000  C
  C204     1.0000 0.83290  0.50220  0.19130  Biso   1.000  C
  C205     1.0000 0.50220  0.83290  0.80870  Biso   1.000  C
  C206     1.0000 0.49780  0.16710  0.80870  Biso   1.000  C
  C207     1.0000 0.83290  0.49780  0.80870  Biso   1.000  C
  C208     1.0000 0.16710  0.50220  0.80870  Biso   1.000  C
  C209     1.0000 0.95650  0.32130  0.71350  Biso   1.000  C
  C210     1.0000 0.04350  0.67870  0.71350  Biso   1.000  C
  C211     1.0000 0.67870  0.95650  0.71350  Biso   1.000  C
  C212     1.0000 0.32130  0.04350  0.71350  Biso   1.000  C
  C213     1.0000 0.04350  0.32130  0.28650  Biso   1.000  C
  C214     1.0000 0.95650  0.67870  0.28650  Biso   1.000  C
  C215     1.0000 0.32130  0.95650  0.28650  Biso   1.000  C
  C216     1.0000 0.67870  0.04350  0.28650  Biso   1.000  C
  C217     1.0000 0.45650  0.82130  0.21350  Biso   1.000  C
  C218     1.0000 0.54350  0.17870  0.21350  Biso   1.000  C
  C219     1.0000 0.17870  0.45650  0.21350  Biso   1.000  C
  C220     1.0000 0.82130  0.54350  0.21350  Biso   1.000  C
  C221     1.0000 0.54350  0.82130  0.78650  Biso   1.000  C
  C222     1.0000 0.45650  0.17870  0.78650  Biso   1.000  C
  C223     1.0000 0.82130  0.45650  0.78650  Biso   1.000  C
  C224     1.0000 0.17870  0.54350  0.78650  Biso   1.000  C
  H97      1.0000 0.92880  0.32200  0.69670  Biso   1.000  H
  H98      1.0000 0.07120  0.67800  0.69670  Biso   1.000  H
  H99      1.0000 0.67800  0.92880  0.69670  Biso   1.000  H
  H100     1.0000 0.32200  0.07120  0.69670  Biso   1.000  H
  H101     1.0000 0.07120  0.32200  0.30330  Biso   1.000  H
  H102     1.0000 0.92880  0.67800  0.30330  Biso   1.000  H
  H103     1.0000 0.32200  0.92880  0.30330  Biso   1.000  H
  H104     1.0000 0.67800  0.07120  0.30330  Biso   1.000  H
  H105     1.0000 0.42880  0.82200  0.19670  Biso   1.000  H
  H106     1.0000 0.57120  0.17800  0.19670  Biso   1.000  H
  H107     1.0000 0.17800  0.42880  0.19670  Biso   1.000  H
  H108     1.0000 0.82200  0.57120  0.19670  Biso   1.000  H
  H109     1.0000 0.57120  0.82200  0.80330  Biso   1.000  H
  H110     1.0000 0.42880  0.17800  0.80330  Biso   1.000  H
  H111     1.0000 0.82200  0.42880  0.80330  Biso   1.000  H
  H112     1.0000 0.17800  0.57120  0.80330  Biso   1.000  H
  C225     1.0000 0.04050  0.31220  0.71580  Biso   1.000  C
  C226     1.0000 0.95950  0.68780  0.71580  Biso   1.000  C
  C227     1.0000 0.68780  0.04050  0.71580  Biso   1.000  C
  C228     1.0000 0.31220  0.95950  0.71580  Biso   1.000  C
  C229     1.0000 0.95950  0.31220  0.28420  Biso   1.000  C
  C230     1.0000 0.04050  0.68780  0.28420  Biso   1.000  C
  C231     1.0000 0.31220  0.04050  0.28420  Biso   1.000  C
  C232     1.0000 0.68780  0.95950  0.28420  Biso   1.000  C
  C233     1.0000 0.54050  0.81220  0.21580  Biso   1.000  C
  C234     1.0000 0.45950  0.18780  0.21580  Biso   1.000  C
  C235     1.0000 0.18780  0.54050  0.21580  Biso   1.000  C
  C236     1.0000 0.81220  0.45950  0.21580  Biso   1.000  C
  C237     1.0000 0.45950  0.81220  0.78420  Biso   1.000  C
  C238     1.0000 0.54050  0.18780  0.78420  Biso   1.000  C
  C239     1.0000 0.81220  0.54050  0.78420  Biso   1.000  C
  C240     1.0000 0.18780  0.45950  0.78420  Biso   1.000  C
  H113     1.0000 0.06810  0.31520  0.69920  Biso   1.000  H
  H114     1.0000 0.93190  0.68480  0.69920  Biso   1.000  H
  H115     1.0000 0.68480  0.06810  0.69920  Biso   1.000  H
  H116     1.0000 0.31520  0.93190  0.69920  Biso   1.000  H
  H117     1.0000 0.93190  0.31520  0.30080  Biso   1.000  H
  H118     1.0000 0.06810  0.68480  0.30080  Biso   1.000  H
  H119     1.0000 0.31520  0.06810  0.30080  Biso   1.000  H
  H120     1.0000 0.68480  0.93190  0.30080  Biso   1.000  H
  H121     1.0000 0.56810  0.81520  0.19920  Biso   1.000  H
  H122     1.0000 0.43190  0.18480  0.19920  Biso   1.000  H
  H123     1.0000 0.18480  0.56810  0.19920  Biso   1.000  H
  H124     1.0000 0.81520  0.43190  0.19920  Biso   1.000  H
  H125     1.0000 0.43190  0.81520  0.80080  Biso   1.000  H
  H126     1.0000 0.56810  0.18480  0.80080  Biso   1.000  H
  H127     1.0000 0.81520  0.56810  0.80080  Biso   1.000  H
  H128     1.0000 0.18480  0.43190  0.80080  Biso   1.000  H
  O81      1.0000 0.25790  0.32770  0.77910  Biso   1.000  O
  O82      1.0000 0.74210  0.67230  0.77910  Biso   1.000  O
  O83      1.0000 0.67230  0.25790  0.77910  Biso   1.000  O
  O84      1.0000 0.32770  0.74210  0.77910  Biso   1.000  O
  O85      1.0000 0.74210  0.32770  0.22090  Biso   1.000  O
  O86      1.0000 0.25790  0.67230  0.22090  Biso   1.000  O
  O87      1.0000 0.32770  0.25790  0.22090  Biso   1.000  O
  O88      1.0000 0.67230  0.74210  0.22090  Biso   1.000  O
  O89      1.0000 0.75790  0.82770  0.27910  Biso   1.000  O
  O90      1.0000 0.24210  0.17230  0.27910  Biso   1.000  O
  O91      1.0000 0.17230  0.75790  0.27910  Biso   1.000  O
  O92      1.0000 0.82770  0.24210  0.27910  Biso   1.000  O
  O93      1.0000 0.24210  0.82770  0.72090  Biso   1.000  O
  O94      1.0000 0.75790  0.17230  0.72090  Biso   1.000  O
  O95      1.0000 0.82770  0.75790  0.72090  Biso   1.000  O
  O96      1.0000 0.17230  0.24210  0.72090  Biso   1.000  O
  O97      1.0000 0.29510  0.36790  0.83530  Biso   1.000  O
  O98      1.0000 0.70490  0.63210  0.83530  Biso   1.000  O
  O99      1.0000 0.63210  0.29510  0.83530  Biso   1.000  O
  O100     1.0000 0.36790  0.70490  0.83530  Biso   1.000  O
  O101     1.0000 0.70490  0.36790  0.16470  Biso   1.000  O
  O102     1.0000 0.29510  0.63210  0.16470  Biso   1.000  O
  O103     1.0000 0.36790  0.29510  0.16470  Biso   1.000  O
  O104     1.0000 0.63210  0.70490  0.16470  Biso   1.000  O
  O105     1.0000 0.79510  0.86790  0.33530  Biso   1.000  O
  O106     1.0000 0.20490  0.13210  0.33530  Biso   1.000  O
  O107     1.0000 0.13210  0.79510  0.33530  Biso   1.000  O
  O108     1.0000 0.86790  0.20490  0.33530  Biso   1.000  O
  O109     1.0000 0.20490  0.86790  0.66470  Biso   1.000  O
  O110     1.0000 0.79510  0.13210  0.66470  Biso   1.000  O
  O111     1.0000 0.86790  0.79510  0.66470  Biso   1.000  O
  O112     1.0000 0.13210  0.20490  0.66470  Biso   1.000  O
  O113     1.0000 0.21050  0.45290  0.95270  Biso   1.000  O
  O114     1.0000 0.78950  0.54710  0.95270  Biso   1.000  O
  O115     1.0000 0.54710  0.21050  0.95270  Biso   1.000  O
  O116     1.0000 0.45290  0.78950  0.95270  Biso   1.000  O
  O117     1.0000 0.78950  0.45290  0.04730  Biso   1.000  O
  O118     1.0000 0.21050  0.54710  0.04730  Biso   1.000  O
  O119     1.0000 0.45290  0.21050  0.04730  Biso   1.000  O
  O120     1.0000 0.54710  0.78950  0.04730  Biso   1.000  O
  O121     1.0000 0.71050  0.95290  0.45270  Biso   1.000  O
  O122     1.0000 0.28950  0.04710  0.45270  Biso   1.000  O
  O123     1.0000 0.04710  0.71050  0.45270  Biso   1.000  O
  O124     1.0000 0.95290  0.28950  0.45270  Biso   1.000  O
  O125     1.0000 0.28950  0.95290  0.54730  Biso   1.000  O
  O126     1.0000 0.71050  0.04710  0.54730  Biso   1.000  O
  O127     1.0000 0.95290  0.71050  0.54730  Biso   1.000  O
  O128     1.0000 0.04710  0.28950  0.54730  Biso   1.000  O
  O129     1.0000 0.13230  0.45450  0.94950  Biso   1.000  O
  O130     1.0000 0.86770  0.54550  0.94950  Biso   1.000  O
  O131     1.0000 0.54550  0.13230  0.94950  Biso   1.000  O
  O132     1.0000 0.45450  0.86770  0.94950  Biso   1.000  O
  O133     1.0000 0.86770  0.45450  0.05050  Biso   1.000  O
  O134     1.0000 0.13230  0.54550  0.05050  Biso   1.000  O
  O135     1.0000 0.45450  0.13230  0.05050  Biso   1.000  O
  O136     1.0000 0.54550  0.86770  0.05050  Biso   1.000  O
  O137     1.0000 0.63230  0.95450  0.44950  Biso   1.000  O
  O138     1.0000 0.36770  0.04550  0.44950  Biso   1.000  O
  O139     1.0000 0.04550  0.63230  0.44950  Biso   1.000  O
  O140     1.0000 0.95450  0.36770  0.44950  Biso   1.000  O
  O141     1.0000 0.36770  0.95450  0.55050  Biso   1.000  O
  O142     1.0000 0.63230  0.04550  0.55050  Biso   1.000  O
  O143     1.0000 0.95450  0.63230  0.55050  Biso   1.000  O
  O144     1.0000 0.04550  0.36770  0.55050  Biso   1.000  O
  O145     1.0000 0.08720  0.33960  0.83100  Biso   1.000  O
  O146     1.0000 0.91280  0.66040  0.83100  Biso   1.000  O
  O147     1.0000 0.66040  0.08720  0.83100  Biso   1.000  O
  O148     1.0000 0.33960  0.91280  0.83100  Biso   1.000  O
  O149     1.0000 0.91280  0.33960  0.16900  Biso   1.000  O
  O150     1.0000 0.08720  0.66040  0.16900  Biso   1.000  O
  O151     1.0000 0.33960  0.08720  0.16900  Biso   1.000  O
  O152     1.0000 0.66040  0.91280  0.16900  Biso   1.000  O
  O153     1.0000 0.58720  0.83960  0.33100  Biso   1.000  O
  O154     1.0000 0.41280  0.16040  0.33100  Biso   1.000  O
  O155     1.0000 0.16040  0.58720  0.33100  Biso   1.000  O
  O156     1.0000 0.83960  0.41280  0.33100  Biso   1.000  O
  O157     1.0000 0.41280  0.83960  0.66900  Biso   1.000  O
  O158     1.0000 0.58720  0.16040  0.66900  Biso   1.000  O
  O159     1.0000 0.83960  0.58720  0.66900  Biso   1.000  O
  O160     1.0000 0.16040  0.41280  0.66900  Biso   1.000  O
  C241     1.0000 0.21640  0.35410  0.84520  Biso   1.000  C
  C242     1.0000 0.78360  0.64590  0.84520  Biso   1.000  C
  C243     1.0000 0.64590  0.21640  0.84520  Biso   1.000  C
  C244     1.0000 0.35410  0.78360  0.84520  Biso   1.000  C
  C245     1.0000 0.78360  0.35410  0.15480  Biso   1.000  C
  C246     1.0000 0.21640  0.64590  0.15480  Biso   1.000  C
  C247     1.0000 0.35410  0.21640  0.15480  Biso   1.000  C
  C248     1.0000 0.64590  0.78360  0.15480  Biso   1.000  C
  C249     1.0000 0.71640  0.85410  0.34520  Biso   1.000  C
  C250     1.0000 0.28360  0.14590  0.34520  Biso   1.000  C
  C251     1.0000 0.14590  0.71640  0.34520  Biso   1.000  C
  C252     1.0000 0.85410  0.28360  0.34520  Biso   1.000  C
  C253     1.0000 0.28360  0.85410  0.65480  Biso   1.000  C
  C254     1.0000 0.71640  0.14590  0.65480  Biso   1.000  C
  C255     1.0000 0.85410  0.71640  0.65480  Biso   1.000  C
  C256     1.0000 0.14590  0.28360  0.65480  Biso   1.000  C
  C257     1.0000 0.21510  0.38830  0.87970  Biso   1.000  C
  C258     1.0000 0.78490  0.61170  0.87970  Biso   1.000  C
  C259     1.0000 0.61170  0.21510  0.87970  Biso   1.000  C
  C260     1.0000 0.38830  0.78490  0.87970  Biso   1.000  C
  C261     1.0000 0.78490  0.38830  0.12030  Biso   1.000  C
  C262     1.0000 0.21510  0.61170  0.12030  Biso   1.000  C
  C263     1.0000 0.38830  0.21510  0.12030  Biso   1.000  C
  C264     1.0000 0.61170  0.78490  0.12030  Biso   1.000  C
  C265     1.0000 0.71510  0.88830  0.37970  Biso   1.000  C
  C266     1.0000 0.28490  0.11170  0.37970  Biso   1.000  C
  C267     1.0000 0.11170  0.71510  0.37970  Biso   1.000  C
  C268     1.0000 0.88830  0.28490  0.37970  Biso   1.000  C
  C269     1.0000 0.28490  0.88830  0.62030  Biso   1.000  C
  C270     1.0000 0.71510  0.11170  0.62030  Biso   1.000  C
  C271     1.0000 0.88830  0.71510  0.62030  Biso   1.000  C
  C272     1.0000 0.11170  0.28490  0.62030  Biso   1.000  C
  H129     1.0000 0.24260  0.40010  0.89200  Biso   1.000  H
  H130     1.0000 0.75740  0.59990  0.89200  Biso   1.000  H
  H131     1.0000 0.59990  0.24260  0.89200  Biso   1.000  H
  H132     1.0000 0.40010  0.75740  0.89200  Biso   1.000  H
  H133     1.0000 0.75740  0.40010  0.10800  Biso   1.000  H
  H134     1.0000 0.24260  0.59990  0.10800  Biso   1.000  H
  H135     1.0000 0.40010  0.24260  0.10800  Biso   1.000  H
  H136     1.0000 0.59990  0.75740  0.10800  Biso   1.000  H
  H137     1.0000 0.74260  0.90010  0.39200  Biso   1.000  H
  H138     1.0000 0.25740  0.09990  0.39200  Biso   1.000  H
  H139     1.0000 0.09990  0.74260  0.39200  Biso   1.000  H
  H140     1.0000 0.90010  0.25740  0.39200  Biso   1.000  H
  H141     1.0000 0.25740  0.90010  0.60800  Biso   1.000  H
  H142     1.0000 0.74260  0.09990  0.60800  Biso   1.000  H
  H143     1.0000 0.90010  0.74260  0.60800  Biso   1.000  H
  H144     1.0000 0.09990  0.25740  0.60800  Biso   1.000  H
  C273     1.0000 0.17280  0.40490  0.89580  Biso   1.000  C
  C274     1.0000 0.82720  0.59510  0.89580  Biso   1.000  C
  C275     1.0000 0.59510  0.17280  0.89580  Biso   1.000  C
  C276     1.0000 0.40490  0.82720  0.89580  Biso   1.000  C
  C277     1.0000 0.82720  0.40490  0.10420  Biso   1.000  C
  C278     1.0000 0.17280  0.59510  0.10420  Biso   1.000  C
  C279     1.0000 0.40490  0.17280  0.10420  Biso   1.000  C
  C280     1.0000 0.59510  0.82720  0.10420  Biso   1.000  C
  C281     1.0000 0.67280  0.90490  0.39580  Biso   1.000  C
  C282     1.0000 0.32720  0.09510  0.39580  Biso   1.000  C
  C283     1.0000 0.09510  0.67280  0.39580  Biso   1.000  C
  C284     1.0000 0.90490  0.32720  0.39580  Biso   1.000  C
  C285     1.0000 0.32720  0.90490  0.60420  Biso   1.000  C
  C286     1.0000 0.67280  0.09510  0.60420  Biso   1.000  C
  C287     1.0000 0.90490  0.67280  0.60420  Biso   1.000  C
  C288     1.0000 0.09510  0.32720  0.60420  Biso   1.000  C
  C289     1.0000 0.13180  0.38720  0.87750  Biso   1.000  C
  C290     1.0000 0.86820  0.61280  0.87750  Biso   1.000  C
  C291     1.0000 0.61280  0.13180  0.87750  Biso   1.000  C
  C292     1.0000 0.38720  0.86820  0.87750  Biso   1.000  C
  C293     1.0000 0.86820  0.38720  0.12250  Biso   1.000  C
  C294     1.0000 0.13180  0.61280  0.12250  Biso   1.000  C
  C295     1.0000 0.38720  0.13180  0.12250  Biso   1.000  C
  C296     1.0000 0.61280  0.86820  0.12250  Biso   1.000  C
  C297     1.0000 0.63180  0.88720  0.37750  Biso   1.000  C
  C298     1.0000 0.36820  0.11280  0.37750  Biso   1.000  C
  C299     1.0000 0.11280  0.63180  0.37750  Biso   1.000  C
  C300     1.0000 0.88720  0.36820  0.37750  Biso   1.000  C
  C301     1.0000 0.36820  0.88720  0.62250  Biso   1.000  C
  C302     1.0000 0.63180  0.11280  0.62250  Biso   1.000  C
  C303     1.0000 0.88720  0.63180  0.62250  Biso   1.000  C
  C304     1.0000 0.11280  0.36820  0.62250  Biso   1.000  C
  H145     1.0000 0.10350  0.39830  0.88820  Biso   1.000  H
  H146     1.0000 0.89650  0.60170  0.88820  Biso   1.000  H
  H147     1.0000 0.60170  0.10350  0.88820  Biso   1.000  H
  H148     1.0000 0.39830  0.89650  0.88820  Biso   1.000  H
  H149     1.0000 0.89650  0.39830  0.11180  Biso   1.000  H
  H150     1.0000 0.10350  0.60170  0.11180  Biso   1.000  H
  H151     1.0000 0.39830  0.10350  0.11180  Biso   1.000  H
  H152     1.0000 0.60170  0.89650  0.11180  Biso   1.000  H
  H153     1.0000 0.60350  0.89830  0.38820  Biso   1.000  H
  H154     1.0000 0.39650  0.10170  0.38820  Biso   1.000  H
  H155     1.0000 0.10170  0.60350  0.38820  Biso   1.000  H
  H156     1.0000 0.89830  0.39650  0.38820  Biso   1.000  H
  H157     1.0000 0.39650  0.89830  0.61180  Biso   1.000  H
  H158     1.0000 0.60350  0.10170  0.61180  Biso   1.000  H
  H159     1.0000 0.89830  0.60350  0.61180  Biso   1.000  H
  H160     1.0000 0.10170  0.39650  0.61180  Biso   1.000  H
  C305     1.0000 0.13310  0.35300  0.84300  Biso   1.000  C
  C306     1.0000 0.86690  0.64700  0.84300  Biso   1.000  C
  C307     1.0000 0.64700  0.13310  0.84300  Biso   1.000  C
  C308     1.0000 0.35300  0.86690  0.84300  Biso   1.000  C
  C309     1.0000 0.86690  0.35300  0.15700  Biso   1.000  C
  C310     1.0000 0.13310  0.64700  0.15700  Biso   1.000  C
  C311     1.0000 0.35300  0.13310  0.15700  Biso   1.000  C
  C312     1.0000 0.64700  0.86690  0.15700  Biso   1.000  C
  C313     1.0000 0.63310  0.85300  0.34300  Biso   1.000  C
  C314     1.0000 0.36690  0.14700  0.34300  Biso   1.000  C
  C315     1.0000 0.14700  0.63310  0.34300  Biso   1.000  C
  C316     1.0000 0.85300  0.36690  0.34300  Biso   1.000  C
  C317     1.0000 0.36690  0.85300  0.65700  Biso   1.000  C
  C318     1.0000 0.63310  0.14700  0.65700  Biso   1.000  C
  C319     1.0000 0.85300  0.63310  0.65700  Biso   1.000  C
  C320     1.0000 0.14700  0.36690  0.65700  Biso   1.000  C
  C321     1.0000 0.17550  0.33640  0.82680  Biso   1.000  C
  C322     1.0000 0.82450  0.66360  0.82680  Biso   1.000  C
  C323     1.0000 0.66360  0.17550  0.82680  Biso   1.000  C
  C324     1.0000 0.33640  0.82450  0.82680  Biso   1.000  C
  C325     1.0000 0.82450  0.33640  0.17320  Biso   1.000  C
  C326     1.0000 0.17550  0.66360  0.17320  Biso   1.000  C
  C327     1.0000 0.33640  0.17550  0.17320  Biso   1.000  C
  C328     1.0000 0.66360  0.82450  0.17320  Biso   1.000  C
  C329     1.0000 0.67550  0.83640  0.32680  Biso   1.000  C
  C330     1.0000 0.32450  0.16360  0.32680  Biso   1.000  C
  C331     1.0000 0.16360  0.67550  0.32680  Biso   1.000  C
  C332     1.0000 0.83640  0.32450  0.32680  Biso   1.000  C
  C333     1.0000 0.32450  0.83640  0.67320  Biso   1.000  C
  C334     1.0000 0.67550  0.16360  0.67320  Biso   1.000  C
  C335     1.0000 0.83640  0.67550  0.67320  Biso   1.000  C
  C336     1.0000 0.16360  0.32450  0.67320  Biso   1.000  C
  H161     1.0000 0.17630  0.31350  0.80370  Biso   1.000  H
  H162     1.0000 0.82370  0.68650  0.80370  Biso   1.000  H
  H163     1.0000 0.68650  0.17630  0.80370  Biso   1.000  H
  H164     1.0000 0.31350  0.82370  0.80370  Biso   1.000  H
  H165     1.0000 0.82370  0.31350  0.19630  Biso   1.000  H
  H166     1.0000 0.17630  0.68650  0.19630  Biso   1.000  H
  H167     1.0000 0.31350  0.17630  0.19630  Biso   1.000  H
  H168     1.0000 0.68650  0.82370  0.19630  Biso   1.000  H
  H169     1.0000 0.67630  0.81350  0.30370  Biso   1.000  H
  H170     1.0000 0.32370  0.18650  0.30370  Biso   1.000  H
  H171     1.0000 0.18650  0.67630  0.30370  Biso   1.000  H
  H172     1.0000 0.81350  0.32370  0.30370  Biso   1.000  H
  H173     1.0000 0.32370  0.81350  0.69630  Biso   1.000  H
  H174     1.0000 0.67630  0.18650  0.69630  Biso   1.000  H
  H175     1.0000 0.81350  0.67630  0.69630  Biso   1.000  H
  H176     1.0000 0.18650  0.32370  0.69630  Biso   1.000  H
  C337     1.0000 0.25940  0.35300  0.81560  Biso   1.000  C
  C338     1.0000 0.74060  0.64700  0.81560  Biso   1.000  C
  C339     1.0000 0.64700  0.25940  0.81560  Biso   1.000  C
  C340     1.0000 0.35300  0.74060  0.81560  Biso   1.000  C
  C341     1.0000 0.74060  0.35300  0.18440  Biso   1.000  C
  C342     1.0000 0.25940  0.64700  0.18440  Biso   1.000  C
  C343     1.0000 0.35300  0.25940  0.18440  Biso   1.000  C
  C344     1.0000 0.64700  0.74060  0.18440  Biso   1.000  C
  C345     1.0000 0.75940  0.85300  0.31560  Biso   1.000  C
  C346     1.0000 0.24060  0.14700  0.31560  Biso   1.000  C
  C347     1.0000 0.14700  0.75940  0.31560  Biso   1.000  C
  C348     1.0000 0.85300  0.24060  0.31560  Biso   1.000  C
  C349     1.0000 0.24060  0.85300  0.68440  Biso   1.000  C
  C350     1.0000 0.75940  0.14700  0.68440  Biso   1.000  C
  C351     1.0000 0.85300  0.75940  0.68440  Biso   1.000  C
  C352     1.0000 0.14700  0.24060  0.68440  Biso   1.000  C
  C353     1.0000 0.17190  0.44190  0.93470  Biso   1.000  C
  C354     1.0000 0.82810  0.55810  0.93470  Biso   1.000  C
  C355     1.0000 0.55810  0.17190  0.93470  Biso   1.000  C
  C356     1.0000 0.44190  0.82810  0.93470  Biso   1.000  C
  C357     1.0000 0.82810  0.44190  0.06530  Biso   1.000  C
  C358     1.0000 0.17190  0.55810  0.06530  Biso   1.000  C
  C359     1.0000 0.44190  0.17190  0.06530  Biso   1.000  C
  C360     1.0000 0.55810  0.82810  0.06530  Biso   1.000  C
  C361     1.0000 0.67190  0.94190  0.43470  Biso   1.000  C
  C362     1.0000 0.32810  0.05810  0.43470  Biso   1.000  C
  C363     1.0000 0.05810  0.67190  0.43470  Biso   1.000  C
  C364     1.0000 0.94190  0.32810  0.43470  Biso   1.000  C
  C365     1.0000 0.32810  0.94190  0.56530  Biso   1.000  C
  C366     1.0000 0.67190  0.05810  0.56530  Biso   1.000  C
  C367     1.0000 0.94190  0.67190  0.56530  Biso   1.000  C
  C368     1.0000 0.05810  0.32810  0.56530  Biso   1.000  C
  C369     1.0000 0.08430  0.31620  0.78980  Biso   1.000  C
  C370     1.0000 0.91570  0.68380  0.78980  Biso   1.000  C
  C371     1.0000 0.68380  0.08430  0.78980  Biso   1.000  C
  C372     1.0000 0.31620  0.91570  0.78980  Biso   1.000  C
  C373     1.0000 0.91570  0.31620  0.21020  Biso   1.000  C
  C374     1.0000 0.08430  0.68380  0.21020  Biso   1.000  C
  C375     1.0000 0.31620  0.08430  0.21020  Biso   1.000  C
  C376     1.0000 0.68380  0.91570  0.21020  Biso   1.000  C
  C377     1.0000 0.58430  0.81620  0.28980  Biso   1.000  C
  C378     1.0000 0.41570  0.18380  0.28980  Biso   1.000  C
  C379     1.0000 0.18380  0.58430  0.28980  Biso   1.000  C
  C380     1.0000 0.81620  0.41570  0.28980  Biso   1.000  C
  C381     1.0000 0.41570  0.81620  0.71020  Biso   1.000  C
  C382     1.0000 0.58430  0.18380  0.71020  Biso   1.000  C
  C383     1.0000 0.81620  0.58430  0.71020  Biso   1.000  C
  C384     1.0000 0.18380  0.41570  0.71020  Biso   1.000  C
  H177     1.0000 0.09060  0.28380  0.79620  Biso   1.000  H
  H178     1.0000 0.90940  0.71620  0.79620  Biso   1.000  H
  H179     1.0000 0.71620  0.09060  0.79620  Biso   1.000  H
  H180     1.0000 0.28380  0.90940  0.79620  Biso   1.000  H
  H181     1.0000 0.90940  0.28380  0.20380  Biso   1.000  H
  H182     1.0000 0.09060  0.71620  0.20380  Biso   1.000  H
  H183     1.0000 0.28380  0.09060  0.20380  Biso   1.000  H
  H184     1.0000 0.71620  0.90940  0.20380  Biso   1.000  H
  H185     1.0000 0.59060  0.78380  0.29620  Biso   1.000  H
  H186     1.0000 0.40940  0.21620  0.29620  Biso   1.000  H
  H187     1.0000 0.21620  0.59060  0.29620  Biso   1.000  H
  H188     1.0000 0.78380  0.40940  0.29620  Biso   1.000  H
  H189     1.0000 0.40940  0.78380  0.70380  Biso   1.000  H
  H190     1.0000 0.59060  0.21620  0.70380  Biso   1.000  H
  H191     1.0000 0.78380  0.59060  0.70380  Biso   1.000  H
  H192     1.0000 0.21620  0.40940  0.70380  Biso   1.000  H
  H193     1.0000 0.10850  0.32730  0.76900  Biso   1.000  H
  H194     1.0000 0.89150  0.67270  0.76900  Biso   1.000  H
  H195     1.0000 0.67270  0.10850  0.76900  Biso   1.000  H
  H196     1.0000 0.32730  0.89150  0.76900  Biso   1.000  H
  H197     1.0000 0.89150  0.32730  0.23100  Biso   1.000  H
  H198     1.0000 0.10850  0.67270  0.23100  Biso   1.000  H
  H199     1.0000 0.32730  0.10850  0.23100  Biso   1.000  H
  H200     1.0000 0.67270  0.89150  0.23100  Biso   1.000  H
  H201     1.0000 0.60850  0.82730  0.26900  Biso   1.000  H
  H202     1.0000 0.39150  0.17270  0.26900  Biso   1.000  H
  H203     1.0000 0.17270  0.60850  0.26900  Biso   1.000  H
  H204     1.0000 0.82730  0.39150  0.26900  Biso   1.000  H
  H205     1.0000 0.39150  0.82730  0.73100  Biso   1.000  H
  H206     1.0000 0.60850  0.17270  0.73100  Biso   1.000  H
  H207     1.0000 0.82730  0.60850  0.73100  Biso   1.000  H
  H208     1.0000 0.17270  0.39150  0.73100  Biso   1.000  H
  O161     1.0000 0.68660  0.37950  0.71370  Biso   1.000  O
  O162     1.0000 0.31340  0.62050  0.71370  Biso   1.000  O
  O163     1.0000 0.62050  0.68660  0.71370  Biso   1.000  O
  O164     1.0000 0.37950  0.31340  0.71370  Biso   1.000  O
  O165     1.0000 0.31340  0.37950  0.28630  Biso   1.000  O
  O166     1.0000 0.68660  0.62050  0.28630  Biso   1.000  O
  O167     1.0000 0.37950  0.68660  0.28630  Biso   1.000  O
  O168     1.0000 0.62050  0.31340  0.28630  Biso   1.000  O
  O169     1.0000 0.18660  0.87950  0.21370  Biso   1.000  O
  O170     1.0000 0.81340  0.12050  0.21370  Biso   1.000  O
  O171     1.0000 0.12050  0.18660  0.21370  Biso   1.000  O
  O172     1.0000 0.87950  0.81340  0.21370  Biso   1.000  O
  O173     1.0000 0.81340  0.87950  0.78630  Biso   1.000  O
  O174     1.0000 0.18660  0.12050  0.78630  Biso   1.000  O
  O175     1.0000 0.87950  0.18660  0.78630  Biso   1.000  O
  O176     1.0000 0.12050  0.81340  0.78630  Biso   1.000  O
  O177     1.0000 0.64710  0.41610  0.77110  Biso   1.000  O
  O178     1.0000 0.35290  0.58390  0.77110  Biso   1.000  O
  O179     1.0000 0.58390  0.64710  0.77110  Biso   1.000  O
  O180     1.0000 0.41610  0.35290  0.77110  Biso   1.000  O
  O181     1.0000 0.35290  0.41610  0.22890  Biso   1.000  O
  O182     1.0000 0.64710  0.58390  0.22890  Biso   1.000  O
  O183     1.0000 0.41610  0.64710  0.22890  Biso   1.000  O
  O184     1.0000 0.58390  0.35290  0.22890  Biso   1.000  O
  O185     1.0000 0.14710  0.91610  0.27110  Biso   1.000  O
  O186     1.0000 0.85290  0.08390  0.27110  Biso   1.000  O
  O187     1.0000 0.08390  0.14710  0.27110  Biso   1.000  O
  O188     1.0000 0.91610  0.85290  0.27110  Biso   1.000  O
  O189     1.0000 0.85290  0.91610  0.72890  Biso   1.000  O
  O190     1.0000 0.14710  0.08390  0.72890  Biso   1.000  O
  O191     1.0000 0.91610  0.14710  0.72890  Biso   1.000  O
  O192     1.0000 0.08390  0.85290  0.72890  Biso   1.000  O
  O193     1.0000 0.65590  0.58640  0.77990  Biso   1.000  O
  O194     1.0000 0.34410  0.41360  0.77990  Biso   1.000  O
  O195     1.0000 0.41360  0.65590  0.77990  Biso   1.000  O
  O196     1.0000 0.58640  0.34410  0.77990  Biso   1.000  O
  O197     1.0000 0.34410  0.58640  0.22010  Biso   1.000  O
  O198     1.0000 0.65590  0.41360  0.22010  Biso   1.000  O
  O199     1.0000 0.58640  0.65590  0.22010  Biso   1.000  O
  O200     1.0000 0.41360  0.34410  0.22010  Biso   1.000  O
  O201     1.0000 0.15590  0.08640  0.27990  Biso   1.000  O
  O202     1.0000 0.84410  0.91360  0.27990  Biso   1.000  O
  O203     1.0000 0.91360  0.15590  0.27990  Biso   1.000  O
  O204     1.0000 0.08640  0.84410  0.27990  Biso   1.000  O
  O205     1.0000 0.84410  0.08640  0.72010  Biso   1.000  O
  O206     1.0000 0.15590  0.91360  0.72010  Biso   1.000  O
  O207     1.0000 0.08640  0.15590  0.72010  Biso   1.000  O
  O208     1.0000 0.91360  0.84410  0.72010  Biso   1.000  O
  O209     1.0000 0.69370  0.62390  0.72240  Biso   1.000  O
  O210     1.0000 0.30630  0.37610  0.72240  Biso   1.000  O
  O211     1.0000 0.37610  0.69370  0.72240  Biso   1.000  O
  O212     1.0000 0.62390  0.30630  0.72240  Biso   1.000  O
  O213     1.0000 0.30630  0.62390  0.27760  Biso   1.000  O
  O214     1.0000 0.69370  0.37610  0.27760  Biso   1.000  O
  O215     1.0000 0.62390  0.69370  0.27760  Biso   1.000  O
  O216     1.0000 0.37610  0.30630  0.27760  Biso   1.000  O
  O217     1.0000 0.19370  0.12390  0.22240  Biso   1.000  O
  O218     1.0000 0.80630  0.87610  0.22240  Biso   1.000  O
  O219     1.0000 0.87610  0.19370  0.22240  Biso   1.000  O
  O220     1.0000 0.12390  0.80630  0.22240  Biso   1.000  O
  O221     1.0000 0.80630  0.12390  0.77760  Biso   1.000  O
  O222     1.0000 0.19370  0.87610  0.77760  Biso   1.000  O
  O223     1.0000 0.12390  0.19370  0.77760  Biso   1.000  O
  O224     1.0000 0.87610  0.80630  0.77760  Biso   1.000  O
  O225     1.0000 0.73780  0.49960  0.60360  Biso   1.000  O
  O226     1.0000 0.26220  0.50040  0.60360  Biso   1.000  O
  O227     1.0000 0.50040  0.73780  0.60360  Biso   1.000  O
  O228     1.0000 0.49960  0.26220  0.60360  Biso   1.000  O
  O229     1.0000 0.26220  0.49960  0.39640  Biso   1.000  O
  O230     1.0000 0.73780  0.50040  0.39640  Biso   1.000  O
  O231     1.0000 0.49960  0.73780  0.39640  Biso   1.000  O
  O232     1.0000 0.50040  0.26220  0.39640  Biso   1.000  O
  O233     1.0000 0.23780  0.99960  0.10360  Biso   1.000  O
  O234     1.0000 0.76220  0.00040  0.10360  Biso   1.000  O
  O235     1.0000 0.00040  0.23780  0.10360  Biso   1.000  O
  O236     1.0000 0.99960  0.76220  0.10360  Biso   1.000  O
  O237     1.0000 0.76220  0.99960  0.89640  Biso   1.000  O
  O238     1.0000 0.23780  0.00040  0.89640  Biso   1.000  O
  O239     1.0000 0.99960  0.23780  0.89640  Biso   1.000  O
  O240     1.0000 0.00040  0.76220  0.89640  Biso   1.000  O
  C385     1.0000 0.68270  0.45880  0.71450  Biso   1.000  C
  C386     1.0000 0.31730  0.54120  0.71450  Biso   1.000  C
  C387     1.0000 0.54120  0.68270  0.71450  Biso   1.000  C
  C388     1.0000 0.45880  0.31730  0.71450  Biso   1.000  C
  C389     1.0000 0.31730  0.45880  0.28550  Biso   1.000  C
  C390     1.0000 0.68270  0.54120  0.28550  Biso   1.000  C
  C391     1.0000 0.45880  0.68270  0.28550  Biso   1.000  C
  C392     1.0000 0.54120  0.31730  0.28550  Biso   1.000  C
  C393     1.0000 0.18270  0.95880  0.21450  Biso   1.000  C
  C394     1.0000 0.81730  0.04120  0.21450  Biso   1.000  C
  C395     1.0000 0.04120  0.18270  0.21450  Biso   1.000  C
  C396     1.0000 0.95880  0.81730  0.21450  Biso   1.000  C
  C397     1.0000 0.81730  0.95880  0.78550  Biso   1.000  C
  C398     1.0000 0.18270  0.04120  0.78550  Biso   1.000  C
  C399     1.0000 0.95880  0.18270  0.78550  Biso   1.000  C
  C400     1.0000 0.04120  0.81730  0.78550  Biso   1.000  C
  C401     1.0000 0.67360  0.50090  0.73640  Biso   1.000  C
  C402     1.0000 0.32640  0.49910  0.73640  Biso   1.000  C
  C403     1.0000 0.49910  0.67360  0.73640  Biso   1.000  C
  C404     1.0000 0.50090  0.32640  0.73640  Biso   1.000  C
  C405     1.0000 0.32640  0.50090  0.26360  Biso   1.000  C
  C406     1.0000 0.67360  0.49910  0.26360  Biso   1.000  C
  C407     1.0000 0.50090  0.67360  0.26360  Biso   1.000  C
  C408     1.0000 0.49910  0.32640  0.26360  Biso   1.000  C
  C409     1.0000 0.17360  0.00090  0.23640  Biso   1.000  C
  C410     1.0000 0.82640  0.99910  0.23640  Biso   1.000  C
  C411     1.0000 0.99910  0.17360  0.23640  Biso   1.000  C
  C412     1.0000 0.00090  0.82640  0.23640  Biso   1.000  C
  C413     1.0000 0.82640  0.00090  0.76360  Biso   1.000  C
  C414     1.0000 0.17360  0.99910  0.76360  Biso   1.000  C
  C415     1.0000 0.00090  0.17360  0.76360  Biso   1.000  C
  C416     1.0000 0.99910  0.82640  0.76360  Biso   1.000  C
  H209     1.0000 0.65960  0.50150  0.76600  Biso   1.000  H
  H210     1.0000 0.34040  0.49850  0.76600  Biso   1.000  H
  H211     1.0000 0.49850  0.65960  0.76600  Biso   1.000  H
  H212     1.0000 0.50150  0.34040  0.76600  Biso   1.000  H
  H213     1.0000 0.34040  0.50150  0.23400  Biso   1.000  H
  H214     1.0000 0.65960  0.49850  0.23400  Biso   1.000  H
  H215     1.0000 0.50150  0.65960  0.23400  Biso   1.000  H
  H216     1.0000 0.49850  0.34040  0.23400  Biso   1.000  H
  H217     1.0000 0.15960  0.00150  0.26600  Biso   1.000  H
  H218     1.0000 0.84040  0.99850  0.26600  Biso   1.000  H
  H219     1.0000 0.99850  0.15960  0.26600  Biso   1.000  H
  H220     1.0000 0.00150  0.84040  0.26600  Biso   1.000  H
  H221     1.0000 0.84040  0.00150  0.73400  Biso   1.000  H
  H222     1.0000 0.15960  0.99850  0.73400  Biso   1.000  H
  H223     1.0000 0.00150  0.15960  0.73400  Biso   1.000  H
  H224     1.0000 0.99850  0.84040  0.73400  Biso   1.000  H
  C417     1.0000 0.68540  0.54210  0.71410  Biso   1.000  C
  C418     1.0000 0.31460  0.45790  0.71410  Biso   1.000  C
  C419     1.0000 0.45790  0.68540  0.71410  Biso   1.000  C
  C420     1.0000 0.54210  0.31460  0.71410  Biso   1.000  C
  C421     1.0000 0.31460  0.54210  0.28590  Biso   1.000  C
  C422     1.0000 0.68540  0.45790  0.28590  Biso   1.000  C
  C423     1.0000 0.54210  0.68540  0.28590  Biso   1.000  C
  C424     1.0000 0.45790  0.31460  0.28590  Biso   1.000  C
  C425     1.0000 0.18540  0.04210  0.21410  Biso   1.000  C
  C426     1.0000 0.81460  0.95790  0.21410  Biso   1.000  C
  C427     1.0000 0.95790  0.18540  0.21410  Biso   1.000  C
  C428     1.0000 0.04210  0.81460  0.21410  Biso   1.000  C
  C429     1.0000 0.81460  0.04210  0.78590  Biso   1.000  C
  C430     1.0000 0.18540  0.95790  0.78590  Biso   1.000  C
  C431     1.0000 0.04210  0.18540  0.78590  Biso   1.000  C
  C432     1.0000 0.95790  0.81460  0.78590  Biso   1.000  C
  C433     1.0000 0.70630  0.54120  0.66990  Biso   1.000  C
  C434     1.0000 0.29370  0.45880  0.66990  Biso   1.000  C
  C435     1.0000 0.45880  0.70630  0.66990  Biso   1.000  C
  C436     1.0000 0.54120  0.29370  0.66990  Biso   1.000  C
  C437     1.0000 0.29370  0.54120  0.33010  Biso   1.000  C
  C438     1.0000 0.70630  0.45880  0.33010  Biso   1.000  C
  C439     1.0000 0.54120  0.70630  0.33010  Biso   1.000  C
  C440     1.0000 0.45880  0.29370  0.33010  Biso   1.000  C
  C441     1.0000 0.20630  0.04120  0.16990  Biso   1.000  C
  C442     1.0000 0.79370  0.95880  0.16990  Biso   1.000  C
  C443     1.0000 0.95880  0.20630  0.16990  Biso   1.000  C
  C444     1.0000 0.04120  0.79370  0.16990  Biso   1.000  C
  C445     1.0000 0.79370  0.04120  0.83010  Biso   1.000  C
  C446     1.0000 0.20630  0.95880  0.83010  Biso   1.000  C
  C447     1.0000 0.04120  0.20630  0.83010  Biso   1.000  C
  C448     1.0000 0.95880  0.79370  0.83010  Biso   1.000  C
  H225     1.0000 0.71420  0.56880  0.65490  Biso   1.000  H
  H226     1.0000 0.28580  0.43120  0.65490  Biso   1.000  H
  H227     1.0000 0.43120  0.71420  0.65490  Biso   1.000  H
  H228     1.0000 0.56880  0.28580  0.65490  Biso   1.000  H
  H229     1.0000 0.28580  0.56880  0.34510  Biso   1.000  H
  H230     1.0000 0.71420  0.43120  0.34510  Biso   1.000  H
  H231     1.0000 0.56880  0.71420  0.34510  Biso   1.000  H
  H232     1.0000 0.43120  0.28580  0.34510  Biso   1.000  H
  H233     1.0000 0.21420  0.06880  0.15490  Biso   1.000  H
  H234     1.0000 0.78580  0.93120  0.15490  Biso   1.000  H
  H235     1.0000 0.93120  0.21420  0.15490  Biso   1.000  H
  H236     1.0000 0.06880  0.78580  0.15490  Biso   1.000  H
  H237     1.0000 0.78580  0.06880  0.84510  Biso   1.000  H
  H238     1.0000 0.21420  0.93120  0.84510  Biso   1.000  H
  H239     1.0000 0.06880  0.21420  0.84510  Biso   1.000  H
  H240     1.0000 0.93120  0.78580  0.84510  Biso   1.000  H
  C449     1.0000 0.71540  0.49910  0.64800  Biso   1.000  C
  C450     1.0000 0.28460  0.50090  0.64800  Biso   1.000  C
  C451     1.0000 0.50090  0.71540  0.64800  Biso   1.000  C
  C452     1.0000 0.49910  0.28460  0.64800  Biso   1.000  C
  C453     1.0000 0.28460  0.49910  0.35200  Biso   1.000  C
  C454     1.0000 0.71540  0.50090  0.35200  Biso   1.000  C
  C455     1.0000 0.49910  0.71540  0.35200  Biso   1.000  C
  C456     1.0000 0.50090  0.28460  0.35200  Biso   1.000  C
  C457     1.0000 0.21540  0.99910  0.14800  Biso   1.000  C
  C458     1.0000 0.78460  0.00090  0.14800  Biso   1.000  C
  C459     1.0000 0.00090  0.21540  0.14800  Biso   1.000  C
  C460     1.0000 0.99910  0.78460  0.14800  Biso   1.000  C
  C461     1.0000 0.78460  0.99910  0.85200  Biso   1.000  C
  C462     1.0000 0.21540  0.00090  0.85200  Biso   1.000  C
  C463     1.0000 0.99910  0.21540  0.85200  Biso   1.000  C
  C464     1.0000 0.00090  0.78460  0.85200  Biso   1.000  C
  C465     1.0000 0.70360  0.45790  0.67030  Biso   1.000  C
  C466     1.0000 0.29640  0.54210  0.67030  Biso   1.000  C
  C467     1.0000 0.54210  0.70360  0.67030  Biso   1.000  C
  C468     1.0000 0.45790  0.29640  0.67030  Biso   1.000  C
  C469     1.0000 0.29640  0.45790  0.32970  Biso   1.000  C
  C470     1.0000 0.70360  0.54210  0.32970  Biso   1.000  C
  C471     1.0000 0.45790  0.70360  0.32970  Biso   1.000  C
  C472     1.0000 0.54210  0.29640  0.32970  Biso   1.000  C
  C473     1.0000 0.20360  0.95790  0.17030  Biso   1.000  C
  C474     1.0000 0.79640  0.04210  0.17030  Biso   1.000  C
  C475     1.0000 0.04210  0.20360  0.17030  Biso   1.000  C
  C476     1.0000 0.95790  0.79640  0.17030  Biso   1.000  C
  C477     1.0000 0.79640  0.95790  0.82970  Biso   1.000  C
  C478     1.0000 0.20360  0.04210  0.82970  Biso   1.000  C
  C479     1.0000 0.95790  0.20360  0.82970  Biso   1.000  C
  C480     1.0000 0.04210  0.79640  0.82970  Biso   1.000  C
  H241     1.0000 0.70970  0.42980  0.65560  Biso   1.000  H
  H242     1.0000 0.29030  0.57020  0.65560  Biso   1.000  H
  H243     1.0000 0.57020  0.70970  0.65560  Biso   1.000  H
  H244     1.0000 0.42980  0.29030  0.65560  Biso   1.000  H
  H245     1.0000 0.29030  0.42980  0.34440  Biso   1.000  H
  H246     1.0000 0.70970  0.57020  0.34440  Biso   1.000  H
  H247     1.0000 0.42980  0.70970  0.34440  Biso   1.000  H
  H248     1.0000 0.57020  0.29030  0.34440  Biso   1.000  H
  H249     1.0000 0.20970  0.92980  0.15560  Biso   1.000  H
  H250     1.0000 0.79030  0.07020  0.15560  Biso   1.000  H
  H251     1.0000 0.07020  0.20970  0.15560  Biso   1.000  H
  H252     1.0000 0.92980  0.79030  0.15560  Biso   1.000  H
  H253     1.0000 0.79030  0.92980  0.84440  Biso   1.000  H
  H254     1.0000 0.20970  0.07020  0.84440  Biso   1.000  H
  H255     1.0000 0.92980  0.20970  0.84440  Biso   1.000  H
  H256     1.0000 0.07020  0.79030  0.84440  Biso   1.000  H
  C481     1.0000 0.66720  0.41410  0.73300  Biso   1.000  C
  C482     1.0000 0.33280  0.58590  0.73300  Biso   1.000  C
  C483     1.0000 0.58590  0.66720  0.73300  Biso   1.000  C
  C484     1.0000 0.41410  0.33280  0.73300  Biso   1.000  C
  C485     1.0000 0.33280  0.41410  0.26700  Biso   1.000  C
  C486     1.0000 0.66720  0.58590  0.26700  Biso   1.000  C
  C487     1.0000 0.41410  0.66720  0.26700  Biso   1.000  C
  C488     1.0000 0.58590  0.33280  0.26700  Biso   1.000  C
  C489     1.0000 0.16720  0.91410  0.23300  Biso   1.000  C
  C490     1.0000 0.83280  0.08590  0.23300  Biso   1.000  C
  C491     1.0000 0.08590  0.16720  0.23300  Biso   1.000  C
  C492     1.0000 0.91410  0.83280  0.23300  Biso   1.000  C
  C493     1.0000 0.83280  0.91410  0.76700  Biso   1.000  C
  C494     1.0000 0.16720  0.08590  0.76700  Biso   1.000  C
  C495     1.0000 0.91410  0.16720  0.76700  Biso   1.000  C
  C496     1.0000 0.08590  0.83280  0.76700  Biso   1.000  C
  C497     1.0000 0.68040  0.58710  0.74310  Biso   1.000  C
  C498     1.0000 0.31960  0.41290  0.74310  Biso   1.000  C
  C499     1.0000 0.41290  0.68040  0.74310  Biso   1.000  C
  C500     1.0000 0.58710  0.31960  0.74310  Biso   1.000  C
  C501     1.0000 0.31960  0.58710  0.25690  Biso   1.000  C
  C502     1.0000 0.68040  0.41290  0.25690  Biso   1.000  C
  C503     1.0000 0.58710  0.68040  0.25690  Biso   1.000  C
  C504     1.0000 0.41290  0.31960  0.25690  Biso   1.000  C
  C505     1.0000 0.18040  0.08710  0.24310  Biso   1.000  C
  C506     1.0000 0.81960  0.91290  0.24310  Biso   1.000  C
  C507     1.0000 0.91290  0.18040  0.24310  Biso   1.000  C
  C508     1.0000 0.08710  0.81960  0.24310  Biso   1.000  C
  C509     1.0000 0.81960  0.08710  0.75690  Biso   1.000  C
  C510     1.0000 0.18040  0.91290  0.75690  Biso   1.000  C
  C511     1.0000 0.08710  0.18040  0.75690  Biso   1.000  C
  C512     1.0000 0.91290  0.81960  0.75690  Biso   1.000  C
  C513     1.0000 0.75860  0.46560  0.58080  Biso   1.000  C
  C514     1.0000 0.24140  0.53440  0.58080  Biso   1.000  C
  C515     1.0000 0.53440  0.75860  0.58080  Biso   1.000  C
  C516     1.0000 0.46560  0.24140  0.58080  Biso   1.000  C
  C517     1.0000 0.24140  0.46560  0.41920  Biso   1.000  C
  C518     1.0000 0.75860  0.53440  0.41920  Biso   1.000  C
  C519     1.0000 0.46560  0.75860  0.41920  Biso   1.000  C
  C520     1.0000 0.53440  0.24140  0.41920  Biso   1.000  C
  C521     1.0000 0.25860  0.96560  0.08080  Biso   1.000  C
  C522     1.0000 0.74140  0.03440  0.08080  Biso   1.000  C
  C523     1.0000 0.03440  0.25860  0.08080  Biso   1.000  C
  C524     1.0000 0.96560  0.74140  0.08080  Biso   1.000  C
  C525     1.0000 0.74140  0.96560  0.91920  Biso   1.000  C
  C526     1.0000 0.25860  0.03440  0.91920  Biso   1.000  C
  C527     1.0000 0.96560  0.25860  0.91920  Biso   1.000  C
  C528     1.0000 0.03440  0.74140  0.91920  Biso   1.000  C
  H257     1.0000 0.73570  0.44340  0.57010  Biso   1.000  H
  H258     1.0000 0.26430  0.55660  0.57010  Biso   1.000  H
  H259     1.0000 0.55660  0.73570  0.57010  Biso   1.000  H
  H260     1.0000 0.44340  0.26430  0.57010  Biso   1.000  H
  H261     1.0000 0.26430  0.44340  0.42990  Biso   1.000  H
  H262     1.0000 0.73570  0.55660  0.42990  Biso   1.000  H
  H263     1.0000 0.44340  0.73570  0.42990  Biso   1.000  H
  H264     1.0000 0.55660  0.26430  0.42990  Biso   1.000  H
  H265     1.0000 0.23570  0.94340  0.07010  Biso   1.000  H
  H266     1.0000 0.76430  0.05660  0.07010  Biso   1.000  H
  H267     1.0000 0.05660  0.23570  0.07010  Biso   1.000  H
  H268     1.0000 0.94340  0.76430  0.07010  Biso   1.000  H
  H269     1.0000 0.76430  0.94340  0.92990  Biso   1.000  H
  H270     1.0000 0.23570  0.05660  0.92990  Biso   1.000  H
  H271     1.0000 0.94340  0.23570  0.92990  Biso   1.000  H
  H272     1.0000 0.05660  0.76430  0.92990  Biso   1.000  H
  H273     1.0000 0.77960  0.44980  0.60210  Biso   1.000  H
  H274     1.0000 0.22040  0.55020  0.60210  Biso   1.000  H
  H275     1.0000 0.55020  0.77960  0.60210  Biso   1.000  H
  H276     1.0000 0.44980  0.22040  0.60210  Biso   1.000  H
  H277     1.0000 0.22040  0.44980  0.39790  Biso   1.000  H
  H278     1.0000 0.77960  0.55020  0.39790  Biso   1.000  H
  H279     1.0000 0.44980  0.77960  0.39790  Biso   1.000  H
  H280     1.0000 0.55020  0.22040  0.39790  Biso   1.000  H
  H281     1.0000 0.27960  0.94980  0.10210  Biso   1.000  H
  H282     1.0000 0.72040  0.05020  0.10210  Biso   1.000  H
  H283     1.0000 0.05020  0.27960  0.10210  Biso   1.000  H
  H284     1.0000 0.94980  0.72040  0.10210  Biso   1.000  H
  H285     1.0000 0.72040  0.94980  0.89790  Biso   1.000  H
  H286     1.0000 0.27960  0.05020  0.89790  Biso   1.000  H
  H287     1.0000 0.94980  0.27960  0.89790  Biso   1.000  H
  H288     1.0000 0.05020  0.72040  0.89790  Biso   1.000  H
  C529     1.0000 0.78560  0.48390  0.53840  Biso   1.000  C
  C530     1.0000 0.21440  0.51610  0.53840  Biso   1.000  C
  C531     1.0000 0.51610  0.78560  0.53840  Biso   1.000  C
  C532     1.0000 0.48390  0.21440  0.53840  Biso   1.000  C
  C533     1.0000 0.21440  0.48390  0.46160  Biso   1.000  C
  C534     1.0000 0.78560  0.51610  0.46160  Biso   1.000  C
  C535     1.0000 0.48390  0.78560  0.46160  Biso   1.000  C
  C536     1.0000 0.51610  0.21440  0.46160  Biso   1.000  C
  C537     1.0000 0.28560  0.98390  0.03840  Biso   1.000  C
  C538     1.0000 0.71440  0.01610  0.03840  Biso   1.000  C
  C539     1.0000 0.01610  0.28560  0.03840  Biso   1.000  C
  C540     1.0000 0.98390  0.71440  0.03840  Biso   1.000  C
  C541     1.0000 0.71440  0.98390  0.96160  Biso   1.000  C
  C542     1.0000 0.28560  0.01610  0.96160  Biso   1.000  C
  C543     1.0000 0.98390  0.28560  0.96160  Biso   1.000  C
  C544     1.0000 0.01610  0.71440  0.96160  Biso   1.000  C
  C545     1.0000 0.75990  0.50000  0.50000  Biso   1.000  C
  C546     1.0000 0.24010  0.50000  0.50000  Biso   1.000  C
  C547     1.0000 0.50000  0.75990  0.50000  Biso   1.000  C
  C548     1.0000 0.50000  0.24010  0.50000  Biso   1.000  C
  C549     1.0000 0.25990  0.00000  0.00000  Biso   1.000  C
  C550     1.0000 0.74010  0.00000  0.00000  Biso   1.000  C
  C551     1.0000 0.00000  0.25990  0.00000  Biso   1.000  C
  C552     1.0000 0.00000  0.74010  0.00000  Biso   1.000  C
  H289     1.0000 0.72770  0.50000  0.50000  Biso   1.000  H
  H290     1.0000 0.27230  0.50000  0.50000  Biso   1.000  H
  H291     1.0000 0.50000  0.72770  0.50000  Biso   1.000  H
  H292     1.0000 0.50000  0.27230  0.50000  Biso   1.000  H
  H293     1.0000 0.22770  0.00000  0.00000  Biso   1.000  H
  H294     1.0000 0.77230  0.00000  0.00000  Biso   1.000  H
  H295     1.0000 0.00000  0.22770  0.00000  Biso   1.000  H
  H296     1.0000 0.00000  0.77230  0.00000  Biso   1.000  H
  C553     1.0000 0.85900  0.50000  0.50000  Biso   1.000  C
  C554     1.0000 0.14100  0.50000  0.50000  Biso   1.000  C
  C555     1.0000 0.50000  0.85900  0.50000  Biso   1.000  C
  C556     1.0000 0.50000  0.14100  0.50000  Biso   1.000  C
  C557     1.0000 0.35900  0.00000  0.00000  Biso   1.000  C
  C558     1.0000 0.64100  0.00000  0.00000  Biso   1.000  C
  C559     1.0000 0.00000  0.35900  0.00000  Biso   1.000  C
  C560     1.0000 0.00000  0.64100  0.00000  Biso   1.000  C
  H297     1.0000 0.89120  0.50000  0.50000  Biso   1.000  H
  H298     1.0000 0.10880  0.50000  0.50000  Biso   1.000  H
  H299     1.0000 0.50000  0.89120  0.50000  Biso   1.000  H
  H300     1.0000 0.50000  0.10880  0.50000  Biso   1.000  H
  H301     1.0000 0.39120  0.00000  0.00000  Biso   1.000  H
  H302     1.0000 0.60880  0.00000  0.00000  Biso   1.000  H
  H303     1.0000 0.00000  0.39120  0.00000  Biso   1.000  H
  H304     1.0000 0.00000  0.60880  0.00000  Biso   1.000  H
  C561     1.0000 0.83330  0.48650  0.54030  Biso   1.000  C
  C562     1.0000 0.16670  0.51350  0.54030  Biso   1.000  C
  C563     1.0000 0.51350  0.83330  0.54030  Biso   1.000  C
  C564     1.0000 0.48650  0.16670  0.54030  Biso   1.000  C
  C565     1.0000 0.16670  0.48650  0.45970  Biso   1.000  C
  C566     1.0000 0.83330  0.51350  0.45970  Biso   1.000  C
  C567     1.0000 0.48650  0.83330  0.45970  Biso   1.000  C
  C568     1.0000 0.51350  0.16670  0.45970  Biso   1.000  C
  C569     1.0000 0.33330  0.98650  0.04030  Biso   1.000  C
  C570     1.0000 0.66670  0.01350  0.04030  Biso   1.000  C
  C571     1.0000 0.01350  0.33330  0.04030  Biso   1.000  C
  C572     1.0000 0.98650  0.66670  0.04030  Biso   1.000  C
  C573     1.0000 0.66670  0.98650  0.95970  Biso   1.000  C
  C574     1.0000 0.33330  0.01350  0.95970  Biso   1.000  C
  C575     1.0000 0.98650  0.33330  0.95970  Biso   1.000  C
  C576     1.0000 0.01350  0.66670  0.95970  Biso   1.000  C
  H305     1.0000 0.84870  0.47930  0.56820  Biso   1.000  H
  H306     1.0000 0.15130  0.52070  0.56820  Biso   1.000  H
  H307     1.0000 0.52070  0.84870  0.56820  Biso   1.000  H
  H308     1.0000 0.47930  0.15130  0.56820  Biso   1.000  H
  H309     1.0000 0.15130  0.47930  0.43180  Biso   1.000  H
  H310     1.0000 0.84870  0.52070  0.43180  Biso   1.000  H
  H311     1.0000 0.47930  0.84870  0.43180  Biso   1.000  H
  H312     1.0000 0.52070  0.15130  0.43180  Biso   1.000  H
  H313     1.0000 0.34870  0.97930  0.06820  Biso   1.000  H
  H314     1.0000 0.65130  0.02070  0.06820  Biso   1.000  H
  H315     1.0000 0.02070  0.34870  0.06820  Biso   1.000  H
  H316     1.0000 0.97930  0.65130  0.06820  Biso   1.000  H
  H317     1.0000 0.65130  0.97930  0.93180  Biso   1.000  H
  H318     1.0000 0.34870  0.02070  0.93180  Biso   1.000  H
  H319     1.0000 0.97930  0.34870  0.93180  Biso   1.000  H
  H320     1.0000 0.02070  0.65130  0.93180  Biso   1.000  H
  O241     1.0000 0.70770  0.50000  0.00000  Biso   1.000  O
  O242     1.0000 0.29230  0.50000  0.00000  Biso   1.000  O
  O243     1.0000 0.50000  0.70770  0.00000  Biso   1.000  O
  O244     1.0000 0.50000  0.29230  0.00000  Biso   1.000  O
  O245     1.0000 0.20770  0.00000  0.50000  Biso   1.000  O
  O246     1.0000 0.79230  0.00000  0.50000  Biso   1.000  O
  O247     1.0000 0.00000  0.20770  0.50000  Biso   1.000  O
  O248     1.0000 0.00000  0.79230  0.50000  Biso   1.000  O
  O249     1.0000 0.94750  0.50000  0.00000  Biso   1.000  O
  O250     1.0000 0.05250  0.50000  0.00000  Biso   1.000  O
  O251     1.0000 0.50000  0.94750  0.00000  Biso   1.000  O
  O252     1.0000 0.50000  0.05250  0.00000  Biso   1.000  O
  O253     1.0000 0.44750  0.00000  0.50000  Biso   1.000  O
  O254     1.0000 0.55250  0.00000  0.50000  Biso   1.000  O
  O255     1.0000 0.00000  0.44750  0.50000  Biso   1.000  O
  O256     1.0000 0.00000  0.55250  0.50000  Biso   1.000  O
  O257     1.0000 0.60130  0.38480  0.87210  Biso   1.000  O
  O258     1.0000 0.39870  0.61520  0.87210  Biso   1.000  O
  O259     1.0000 0.61520  0.60130  0.87210  Biso   1.000  O
  O260     1.0000 0.38480  0.39870  0.87210  Biso   1.000  O
  O261     1.0000 0.39870  0.38480  0.12790  Biso   1.000  O
  O262     1.0000 0.60130  0.61520  0.12790  Biso   1.000  O
  O263     1.0000 0.38480  0.60130  0.12790  Biso   1.000  O
  O264     1.0000 0.61520  0.39870  0.12790  Biso   1.000  O
  O265     1.0000 0.10130  0.88480  0.37210  Biso   1.000  O
  O266     1.0000 0.89870  0.11520  0.37210  Biso   1.000  O
  O267     1.0000 0.11520  0.10130  0.37210  Biso   1.000  O
  O268     1.0000 0.88480  0.89870  0.37210  Biso   1.000  O
  O269     1.0000 0.89870  0.88480  0.62790  Biso   1.000  O
  O270     1.0000 0.10130  0.11520  0.62790  Biso   1.000  O
  O271     1.0000 0.88480  0.10130  0.62790  Biso   1.000  O
  O272     1.0000 0.11520  0.89870  0.62790  Biso   1.000  O
  O273     1.0000 0.71770  0.27860  0.68610  Biso   1.000  O
  O274     1.0000 0.28230  0.72140  0.68610  Biso   1.000  O
  O275     1.0000 0.72140  0.71770  0.68610  Biso   1.000  O
  O276     1.0000 0.27860  0.28230  0.68610  Biso   1.000  O
  O277     1.0000 0.28230  0.27860  0.31390  Biso   1.000  O
  O278     1.0000 0.71770  0.72140  0.31390  Biso   1.000  O
  O279     1.0000 0.27860  0.71770  0.31390  Biso   1.000  O
  O280     1.0000 0.72140  0.28230  0.31390  Biso   1.000  O
  O281     1.0000 0.21770  0.77860  0.18610  Biso   1.000  O
  O282     1.0000 0.78230  0.22140  0.18610  Biso   1.000  O
  O283     1.0000 0.22140  0.21770  0.18610  Biso   1.000  O
  O284     1.0000 0.77860  0.78230  0.18610  Biso   1.000  O
  O285     1.0000 0.78230  0.77860  0.81390  Biso   1.000  O
  O286     1.0000 0.21770  0.22140  0.81390  Biso   1.000  O
  O287     1.0000 0.77860  0.21770  0.81390  Biso   1.000  O
  O288     1.0000 0.22140  0.78230  0.81390  Biso   1.000  O
  S1       1.0000 0.69910  0.27590  0.63570  Biso   1.000  S
  S2       1.0000 0.30090  0.72410  0.63570  Biso   1.000  S
  S3       1.0000 0.72410  0.69910  0.63570  Biso   1.000  S
  S4       1.0000 0.27590  0.30090  0.63570  Biso   1.000  S
  S5       1.0000 0.30090  0.27590  0.36430  Biso   1.000  S
  S6       1.0000 0.69910  0.72410  0.36430  Biso   1.000  S
  S7       1.0000 0.27590  0.69910  0.36430  Biso   1.000  S
  S8       1.0000 0.72410  0.30090  0.36430  Biso   1.000  S
  S9       1.0000 0.19910  0.77590  0.13570  Biso   1.000  S
  S10      1.0000 0.80090  0.22410  0.13570  Biso   1.000  S
  S11      1.0000 0.22410  0.19910  0.13570  Biso   1.000  S
  S12      1.0000 0.77590  0.80090  0.13570  Biso   1.000  S
  S13      1.0000 0.80090  0.77590  0.86430  Biso   1.000  S
  S14      1.0000 0.19910  0.22410  0.86430  Biso   1.000  S
  S15      1.0000 0.77590  0.19910  0.86430  Biso   1.000  S
  S16      1.0000 0.22410  0.80090  0.86430  Biso   1.000  S
  C577     1.0000 0.70170  0.33390  0.61490  Biso   1.000  C
  C578     1.0000 0.29830  0.66610  0.61490  Biso   1.000  C
  C579     1.0000 0.66610  0.70170  0.61490  Biso   1.000  C
  C580     1.0000 0.33390  0.29830  0.61490  Biso   1.000  C
  C581     1.0000 0.29830  0.33390  0.38510  Biso   1.000  C
  C582     1.0000 0.70170  0.66610  0.38510  Biso   1.000  C
  C583     1.0000 0.33390  0.70170  0.38510  Biso   1.000  C
  C584     1.0000 0.66610  0.29830  0.38510  Biso   1.000  C
  C585     1.0000 0.20170  0.83390  0.11490  Biso   1.000  C
  C586     1.0000 0.79830  0.16610  0.11490  Biso   1.000  C
  C587     1.0000 0.16610  0.20170  0.11490  Biso   1.000  C
  C588     1.0000 0.83390  0.79830  0.11490  Biso   1.000  C
  C589     1.0000 0.79830  0.83390  0.88510  Biso   1.000  C
  C590     1.0000 0.20170  0.16610  0.88510  Biso   1.000  C
  C591     1.0000 0.83390  0.20170  0.88510  Biso   1.000  C
  C592     1.0000 0.16610  0.79830  0.88510  Biso   1.000  C
  H321     1.0000 0.70360  0.35470  0.64130  Biso   1.000  H
  H322     1.0000 0.29640  0.64530  0.64130  Biso   1.000  H
  H323     1.0000 0.64530  0.70360  0.64130  Biso   1.000  H
  H324     1.0000 0.35470  0.29640  0.64130  Biso   1.000  H
  H325     1.0000 0.29640  0.35470  0.35870  Biso   1.000  H
  H326     1.0000 0.70360  0.64530  0.35870  Biso   1.000  H
  H327     1.0000 0.35470  0.70360  0.35870  Biso   1.000  H
  H328     1.0000 0.64530  0.29640  0.35870  Biso   1.000  H
  H329     1.0000 0.20360  0.85470  0.14130  Biso   1.000  H
  H330     1.0000 0.79640  0.14530  0.14130  Biso   1.000  H
  H331     1.0000 0.14530  0.20360  0.14130  Biso   1.000  H
  H332     1.0000 0.85470  0.79640  0.14130  Biso   1.000  H
  H333     1.0000 0.79640  0.85470  0.85870  Biso   1.000  H
  H334     1.0000 0.20360  0.14530  0.85870  Biso   1.000  H
  H335     1.0000 0.85470  0.20360  0.85870  Biso   1.000  H
  H336     1.0000 0.14530  0.79640  0.85870  Biso   1.000  H
  H337     1.0000 0.67430  0.34060  0.59690  Biso   1.000  H
  H338     1.0000 0.32570  0.65940  0.59690  Biso   1.000  H
  H339     1.0000 0.65940  0.67430  0.59690  Biso   1.000  H
  H340     1.0000 0.34060  0.32570  0.59690  Biso   1.000  H
  H341     1.0000 0.32570  0.34060  0.40310  Biso   1.000  H
  H342     1.0000 0.67430  0.65940  0.40310  Biso   1.000  H
  H343     1.0000 0.34060  0.67430  0.40310  Biso   1.000  H
  H344     1.0000 0.65940  0.32570  0.40310  Biso   1.000  H
  H345     1.0000 0.17430  0.84060  0.09690  Biso   1.000  H
  H346     1.0000 0.82570  0.15940  0.09690  Biso   1.000  H
  H347     1.0000 0.15940  0.17430  0.09690  Biso   1.000  H
  H348     1.0000 0.84060  0.82570  0.09690  Biso   1.000  H
  H349     1.0000 0.82570  0.84060  0.90310  Biso   1.000  H
  H350     1.0000 0.17430  0.15940  0.90310  Biso   1.000  H
  H351     1.0000 0.84060  0.17430  0.90310  Biso   1.000  H
  H352     1.0000 0.15940  0.82570  0.90310  Biso   1.000  H
  H353     1.0000 0.72850  0.33770  0.59530  Biso   1.000  H
  H354     1.0000 0.27150  0.66230  0.59530  Biso   1.000  H
  H355     1.0000 0.66230  0.72850  0.59530  Biso   1.000  H
  H356     1.0000 0.33770  0.27150  0.59530  Biso   1.000  H
  H357     1.0000 0.27150  0.33770  0.40470  Biso   1.000  H
  H358     1.0000 0.72850  0.66230  0.40470  Biso   1.000  H
  H359     1.0000 0.33770  0.72850  0.40470  Biso   1.000  H
  H360     1.0000 0.66230  0.27150  0.40470  Biso   1.000  H
  H361     1.0000 0.22850  0.83770  0.09530  Biso   1.000  H
  H362     1.0000 0.77150  0.16230  0.09530  Biso   1.000  H
  H363     1.0000 0.16230  0.22850  0.09530  Biso   1.000  H
  H364     1.0000 0.83770  0.77150  0.09530  Biso   1.000  H
  H365     1.0000 0.77150  0.83770  0.90470  Biso   1.000  H
  H366     1.0000 0.22850  0.16230  0.90470  Biso   1.000  H
  H367     1.0000 0.83770  0.22850  0.90470  Biso   1.000  H
  H368     1.0000 0.16230  0.77150  0.90470  Biso   1.000  H
  C593     1.0000 0.74580  0.25200  0.60280  Biso   1.000  C
  C594     1.0000 0.25420  0.74800  0.60280  Biso   1.000  C
  C595     1.0000 0.74800  0.74580  0.60280  Biso   1.000  C
  C596     1.0000 0.25200  0.25420  0.60280  Biso   1.000  C
  C597     1.0000 0.25420  0.25200  0.39720  Biso   1.000  C
  C598     1.0000 0.74580  0.74800  0.39720  Biso   1.000  C
  C599     1.0000 0.25200  0.74580  0.39720  Biso   1.000  C
  C600     1.0000 0.74800  0.25420  0.39720  Biso   1.000  C
  C601     1.0000 0.24580  0.75200  0.10280  Biso   1.000  C
  C602     1.0000 0.75420  0.24800  0.10280  Biso   1.000  C
  C603     1.0000 0.24800  0.24580  0.10280  Biso   1.000  C
  C604     1.0000 0.75200  0.75420  0.10280  Biso   1.000  C
  C605     1.0000 0.75420  0.75200  0.89720  Biso   1.000  C
  C606     1.0000 0.24580  0.24800  0.89720  Biso   1.000  C
  C607     1.0000 0.75200  0.24580  0.89720  Biso   1.000  C
  C608     1.0000 0.24800  0.75420  0.89720  Biso   1.000  C
  H369     1.0000 0.75730  0.27470  0.58100  Biso   1.000  H
  H370     1.0000 0.24270  0.72530  0.58100  Biso   1.000  H
  H371     1.0000 0.72530  0.75730  0.58100  Biso   1.000  H
  H372     1.0000 0.27470  0.24270  0.58100  Biso   1.000  H
  H373     1.0000 0.24270  0.27470  0.41900  Biso   1.000  H
  H374     1.0000 0.75730  0.72530  0.41900  Biso   1.000  H
  H375     1.0000 0.27470  0.75730  0.41900  Biso   1.000  H
  H376     1.0000 0.72530  0.24270  0.41900  Biso   1.000  H
  H377     1.0000 0.25730  0.77470  0.08100  Biso   1.000  H
  H378     1.0000 0.74270  0.22530  0.08100  Biso   1.000  H
  H379     1.0000 0.22530  0.25730  0.08100  Biso   1.000  H
  H380     1.0000 0.77470  0.74270  0.08100  Biso   1.000  H
  H381     1.0000 0.74270  0.77470  0.91900  Biso   1.000  H
  H382     1.0000 0.25730  0.22530  0.91900  Biso   1.000  H
  H383     1.0000 0.77470  0.25730  0.91900  Biso   1.000  H
  H384     1.0000 0.22530  0.74270  0.91900  Biso   1.000  H
  H385     1.0000 0.73520  0.22530  0.58570  Biso   1.000  H
  H386     1.0000 0.26480  0.77470  0.58570  Biso   1.000  H
  H387     1.0000 0.77470  0.73520  0.58570  Biso   1.000  H
  H388     1.0000 0.22530  0.26480  0.58570  Biso   1.000  H
  H389     1.0000 0.26480  0.22530  0.41430  Biso   1.000  H
  H390     1.0000 0.73520  0.77470  0.41430  Biso   1.000  H
  H391     1.0000 0.22530  0.73520  0.41430  Biso   1.000  H
  H392     1.0000 0.77470  0.26480  0.41430  Biso   1.000  H
  H393     1.0000 0.23520  0.72530  0.08570  Biso   1.000  H
  H394     1.0000 0.76480  0.27470  0.08570  Biso   1.000  H
  H395     1.0000 0.27470  0.23520  0.08570  Biso   1.000  H
  H396     1.0000 0.72530  0.76480  0.08570  Biso   1.000  H
  H397     1.0000 0.76480  0.72530  0.91430  Biso   1.000  H
  H398     1.0000 0.23520  0.27470  0.91430  Biso   1.000  H
  H399     1.0000 0.72530  0.23520  0.91430  Biso   1.000  H
  H400     1.0000 0.27470  0.76480  0.91430  Biso   1.000  H
  H401     1.0000 0.77020  0.24300  0.62400  Biso   1.000  H
  H402     1.0000 0.22980  0.75700  0.62400  Biso   1.000  H
  H403     1.0000 0.75700  0.77020  0.62400  Biso   1.000  H
  H404     1.0000 0.24300  0.22980  0.62400  Biso   1.000  H
  H405     1.0000 0.22980  0.24300  0.37600  Biso   1.000  H
  H406     1.0000 0.77020  0.75700  0.37600  Biso   1.000  H
  H407     1.0000 0.24300  0.77020  0.37600  Biso   1.000  H
  H408     1.0000 0.75700  0.22980  0.37600  Biso   1.000  H
  H409     1.0000 0.27020  0.74300  0.12400  Biso   1.000  H
  H410     1.0000 0.72980  0.25700  0.12400  Biso   1.000  H
  H411     1.0000 0.25700  0.27020  0.12400  Biso   1.000  H
  H412     1.0000 0.74300  0.72980  0.12400  Biso   1.000  H
  H413     1.0000 0.72980  0.74300  0.87600  Biso   1.000  H
  H414     1.0000 0.27020  0.25700  0.87600  Biso   1.000  H
  H415     1.0000 0.74300  0.27020  0.87600  Biso   1.000  H
  H416     1.0000 0.25700  0.72980  0.87600  Biso   1.000  H
  O289     1.0000 0.44920  0.66800  0.91120  Biso   1.000  O
  O290     1.0000 0.55080  0.33200  0.91120  Biso   1.000  O
  O291     1.0000 0.33200  0.44920  0.91120  Biso   1.000  O
  O292     1.0000 0.66800  0.55080  0.91120  Biso   1.000  O
  O293     1.0000 0.55080  0.66800  0.08880  Biso   1.000  O
  O294     1.0000 0.44920  0.33200  0.08880  Biso   1.000  O
  O295     1.0000 0.66800  0.44920  0.08880  Biso   1.000  O
  O296     1.0000 0.33200  0.55080  0.08880  Biso   1.000  O
  O297     1.0000 0.94920  0.16800  0.41120  Biso   1.000  O
  O298     1.0000 0.05080  0.83200  0.41120  Biso   1.000  O
  O299     1.0000 0.83200  0.94920  0.41120  Biso   1.000  O
  O300     1.0000 0.16800  0.05080  0.41120  Biso   1.000  O
  O301     1.0000 0.05080  0.16800  0.58880  Biso   1.000  O
  O302     1.0000 0.94920  0.83200  0.58880  Biso   1.000  O
  O303     1.0000 0.16800  0.94920  0.58880  Biso   1.000  O
  O304     1.0000 0.83200  0.05080  0.58880  Biso   1.000  O
  S17      1.0000 0.49430  0.66210  0.88380  Biso   1.000  S
  S18      1.0000 0.50570  0.33790  0.88380  Biso   1.000  S
  S19      1.0000 0.33790  0.49430  0.88380  Biso   1.000  S
  S20      1.0000 0.66210  0.50570  0.88380  Biso   1.000  S
  S21      1.0000 0.50570  0.66210  0.11620  Biso   1.000  S
  S22      1.0000 0.49430  0.33790  0.11620  Biso   1.000  S
  S23      1.0000 0.66210  0.49430  0.11620  Biso   1.000  S
  S24      1.0000 0.33790  0.50570  0.11620  Biso   1.000  S
  S25      1.0000 0.99430  0.16210  0.38380  Biso   1.000  S
  S26      1.0000 0.00570  0.83790  0.38380  Biso   1.000  S
  S27      1.0000 0.83790  0.99430  0.38380  Biso   1.000  S
  S28      1.0000 0.16210  0.00570  0.38380  Biso   1.000  S
  S29      1.0000 0.00570  0.16210  0.61620  Biso   1.000  S
  S30      1.0000 0.99430  0.83790  0.61620  Biso   1.000  S
  S31      1.0000 0.16210  0.99430  0.61620  Biso   1.000  S
  S32      1.0000 0.83790  0.00570  0.61620  Biso   1.000  S
  C609     1.0000 0.50420  0.71740  0.85800  Biso   1.000  C
  C610     1.0000 0.49580  0.28260  0.85800  Biso   1.000  C
  C611     1.0000 0.28260  0.50420  0.85800  Biso   1.000  C
  C612     1.0000 0.71740  0.49580  0.85800  Biso   1.000  C
  C613     1.0000 0.49580  0.71740  0.14200  Biso   1.000  C
  C614     1.0000 0.50420  0.28260  0.14200  Biso   1.000  C
  C615     1.0000 0.71740  0.50420  0.14200  Biso   1.000  C
  C616     1.0000 0.28260  0.49580  0.14200  Biso   1.000  C
  C617     1.0000 0.00420  0.21740  0.35800  Biso   1.000  C
  C618     1.0000 0.99580  0.78260  0.35800  Biso   1.000  C
  C619     1.0000 0.78260  0.00420  0.35800  Biso   1.000  C
  C620     1.0000 0.21740  0.99580  0.35800  Biso   1.000  C
  C621     1.0000 0.99580  0.21740  0.64200  Biso   1.000  C
  C622     1.0000 0.00420  0.78260  0.64200  Biso   1.000  C
  C623     1.0000 0.21740  0.00420  0.64200  Biso   1.000  C
  C624     1.0000 0.78260  0.99580  0.64200  Biso   1.000  C
  H417     1.0000 0.48400  0.73980  0.87230  Biso   1.000  H
  H418     1.0000 0.51600  0.26020  0.87230  Biso   1.000  H
  H419     1.0000 0.26020  0.48400  0.87230  Biso   1.000  H
  H420     1.0000 0.73980  0.51600  0.87230  Biso   1.000  H
  H421     1.0000 0.51600  0.73980  0.12770  Biso   1.000  H
  H422     1.0000 0.48400  0.26020  0.12770  Biso   1.000  H
  H423     1.0000 0.73980  0.48400  0.12770  Biso   1.000  H
  H424     1.0000 0.26020  0.51600  0.12770  Biso   1.000  H
  H425     1.0000 0.98400  0.23980  0.37230  Biso   1.000  H
  H426     1.0000 0.01600  0.76020  0.37230  Biso   1.000  H
  H427     1.0000 0.76020  0.98400  0.37230  Biso   1.000  H
  H428     1.0000 0.23980  0.01600  0.37230  Biso   1.000  H
  H429     1.0000 0.01600  0.23980  0.62770  Biso   1.000  H
  H430     1.0000 0.98400  0.76020  0.62770  Biso   1.000  H
  H431     1.0000 0.23980  0.98400  0.62770  Biso   1.000  H
  H432     1.0000 0.76020  0.01600  0.62770  Biso   1.000  H
  H433     1.0000 0.49810  0.71590  0.82470  Biso   1.000  H
  H434     1.0000 0.50190  0.28410  0.82470  Biso   1.000  H
  H435     1.0000 0.28410  0.49810  0.82470  Biso   1.000  H
  H436     1.0000 0.71590  0.50190  0.82470  Biso   1.000  H
  H437     1.0000 0.50190  0.71590  0.17530  Biso   1.000  H
  H438     1.0000 0.49810  0.28410  0.17530  Biso   1.000  H
  H439     1.0000 0.71590  0.49810  0.17530  Biso   1.000  H
  H440     1.0000 0.28410  0.50190  0.17530  Biso   1.000  H
  H441     1.0000 0.99810  0.21590  0.32470  Biso   1.000  H
  H442     1.0000 0.00190  0.78410  0.32470  Biso   1.000  H
  H443     1.0000 0.78410  0.99810  0.32470  Biso   1.000  H
  H444     1.0000 0.21590  0.00190  0.32470  Biso   1.000  H
  H445     1.0000 0.00190  0.21590  0.67530  Biso   1.000  H
  H446     1.0000 0.99810  0.78410  0.67530  Biso   1.000  H
  H447     1.0000 0.21590  0.99810  0.67530  Biso   1.000  H
  H448     1.0000 0.78410  0.00190  0.67530  Biso   1.000  H
  H449     1.0000 0.53580  0.72640  0.86310  Biso   1.000  H
  H450     1.0000 0.46420  0.27360  0.86310  Biso   1.000  H
  H451     1.0000 0.27360  0.53580  0.86310  Biso   1.000  H
  H452     1.0000 0.72640  0.46420  0.86310  Biso   1.000  H
  H453     1.0000 0.46420  0.72640  0.13690  Biso   1.000  H
  H454     1.0000 0.53580  0.27360  0.13690  Biso   1.000  H
  H455     1.0000 0.72640  0.53580  0.13690  Biso   1.000  H
  H456     1.0000 0.27360  0.46420  0.13690  Biso   1.000  H
  H457     1.0000 0.03580  0.22640  0.36310  Biso   1.000  H
  H458     1.0000 0.96420  0.77360  0.36310  Biso   1.000  H
  H459     1.0000 0.77360  0.03580  0.36310  Biso   1.000  H
  H460     1.0000 0.22640  0.96420  0.36310  Biso   1.000  H
  H461     1.0000 0.96420  0.22640  0.63690  Biso   1.000  H
  H462     1.0000 0.03580  0.77360  0.63690  Biso   1.000  H
  H463     1.0000 0.22640  0.03580  0.63690  Biso   1.000  H
  H464     1.0000 0.77360  0.96420  0.63690  Biso   1.000  H
  C625     1.0000 0.53790  0.66320  0.92820  Biso   1.000  C
  C626     1.0000 0.46210  0.33680  0.92820  Biso   1.000  C
  C627     1.0000 0.33680  0.53790  0.92820  Biso   1.000  C
  C628     1.0000 0.66320  0.46210  0.92820  Biso   1.000  C
  C629     1.0000 0.46210  0.66320  0.07180  Biso   1.000  C
  C630     1.0000 0.53790  0.33680  0.07180  Biso   1.000  C
  C631     1.0000 0.66320  0.53790  0.07180  Biso   1.000  C
  C632     1.0000 0.33680  0.46210  0.07180  Biso   1.000  C
  C633     1.0000 0.03790  0.16320  0.42820  Biso   1.000  C
  C634     1.0000 0.96210  0.83680  0.42820  Biso   1.000  C
  C635     1.0000 0.83680  0.03790  0.42820  Biso   1.000  C
  C636     1.0000 0.16320  0.96210  0.42820  Biso   1.000  C
  C637     1.0000 0.96210  0.16320  0.57180  Biso   1.000  C
  C638     1.0000 0.03790  0.83680  0.57180  Biso   1.000  C
  C639     1.0000 0.16320  0.03790  0.57180  Biso   1.000  C
  C640     1.0000 0.83680  0.96210  0.57180  Biso   1.000  C
  H465     1.0000 0.52790  0.68230  0.95390  Biso   1.000  H
  H466     1.0000 0.47210  0.31770  0.95390  Biso   1.000  H
  H467     1.0000 0.31770  0.52790  0.95390  Biso   1.000  H
  H468     1.0000 0.68230  0.47210  0.95390  Biso   1.000  H
  H469     1.0000 0.47210  0.68230  0.04610  Biso   1.000  H
  H470     1.0000 0.52790  0.31770  0.04610  Biso   1.000  H
  H471     1.0000 0.68230  0.52790  0.04610  Biso   1.000  H
  H472     1.0000 0.31770  0.47210  0.04610  Biso   1.000  H
  H473     1.0000 0.02790  0.18230  0.45390  Biso   1.000  H
  H474     1.0000 0.97210  0.81770  0.45390  Biso   1.000  H
  H475     1.0000 0.81770  0.02790  0.45390  Biso   1.000  H
  H476     1.0000 0.18230  0.97210  0.45390  Biso   1.000  H
  H477     1.0000 0.97210  0.18230  0.54610  Biso   1.000  H
  H478     1.0000 0.02790  0.81770  0.54610  Biso   1.000  H
  H479     1.0000 0.18230  0.02790  0.54610  Biso   1.000  H
  H480     1.0000 0.81770  0.97210  0.54610  Biso   1.000  H
  H481     1.0000 0.56600  0.67550  0.91510  Biso   1.000  H
  H482     1.0000 0.43400  0.32450  0.91510  Biso   1.000  H
  H483     1.0000 0.32450  0.56600  0.91510  Biso   1.000  H
  H484     1.0000 0.67550  0.43400  0.91510  Biso   1.000  H
  H485     1.0000 0.43400  0.67550  0.08490  Biso   1.000  H
  H486     1.0000 0.56600  0.32450  0.08490  Biso   1.000  H
  H487     1.0000 0.67550  0.56600  0.08490  Biso   1.000  H
  H488     1.0000 0.32450  0.43400  0.08490  Biso   1.000  H
  H489     1.0000 0.06600  0.17550  0.41510  Biso   1.000  H
  H490     1.0000 0.93400  0.82450  0.41510  Biso   1.000  H
  H491     1.0000 0.82450  0.06600  0.41510  Biso   1.000  H
  H492     1.0000 0.17550  0.93400  0.41510  Biso   1.000  H
  H493     1.0000 0.93400  0.17550  0.58490  Biso   1.000  H
  H494     1.0000 0.06600  0.82450  0.58490  Biso   1.000  H
  H495     1.0000 0.17550  0.06600  0.58490  Biso   1.000  H
  H496     1.0000 0.82450  0.93400  0.58490  Biso   1.000  H
  H497     1.0000 0.54330  0.63230  0.93940  Biso   1.000  H
  H498     1.0000 0.45670  0.36770  0.93940  Biso   1.000  H
  H499     1.0000 0.36770  0.54330  0.93940  Biso   1.000  H
  H500     1.0000 0.63230  0.45670  0.93940  Biso   1.000  H
  H501     1.0000 0.45670  0.63230  0.06060  Biso   1.000  H
  H502     1.0000 0.54330  0.36770  0.06060  Biso   1.000  H
  H503     1.0000 0.63230  0.54330  0.06060  Biso   1.000  H
  H504     1.0000 0.36770  0.45670  0.06060  Biso   1.000  H
  H505     1.0000 0.04330  0.13230  0.43940  Biso   1.000  H
  H506     1.0000 0.95670  0.86770  0.43940  Biso   1.000  H
  H507     1.0000 0.86770  0.04330  0.43940  Biso   1.000  H
  H508     1.0000 0.13230  0.95670  0.43940  Biso   1.000  H
  H509     1.0000 0.95670  0.13230  0.56060  Biso   1.000  H
  H510     1.0000 0.04330  0.86770  0.56060  Biso   1.000  H
  H511     1.0000 0.13230  0.04330  0.56060  Biso   1.000  H
  H512     1.0000 0.86770  0.95670  0.56060  Biso   1.000  H
  O305     1.0000 0.99240  0.45160  0.92700  Biso   1.000  O
  O306     1.0000 0.00760  0.54840  0.92700  Biso   1.000  O
  O307     1.0000 0.54840  0.99240  0.92700  Biso   1.000  O
  O308     1.0000 0.45160  0.00760  0.92700  Biso   1.000  O
  O309     1.0000 0.00760  0.45160  0.07300  Biso   1.000  O
  O310     1.0000 0.99240  0.54840  0.07300  Biso   1.000  O
  O311     1.0000 0.45160  0.99240  0.07300  Biso   1.000  O
  O312     1.0000 0.54840  0.00760  0.07300  Biso   1.000  O
  O313     1.0000 0.49240  0.95160  0.42700  Biso   1.000  O
  O314     1.0000 0.50760  0.04840  0.42700  Biso   1.000  O
  O315     1.0000 0.04840  0.49240  0.42700  Biso   1.000  O
  O316     1.0000 0.95160  0.50760  0.42700  Biso   1.000  O
  O317     1.0000 0.50760  0.95160  0.57300  Biso   1.000  O
  O318     1.0000 0.49240  0.04840  0.57300  Biso   1.000  O
  O319     1.0000 0.95160  0.49240  0.57300  Biso   1.000  O
  O320     1.0000 0.04840  0.50760  0.57300  Biso   1.000  O
  O321     1.0000 0.64540  0.76710  0.49140  Biso   1.000  O
  O322     1.0000 0.35460  0.23290  0.49140  Biso   1.000  O
  O323     1.0000 0.23290  0.64540  0.49140  Biso   1.000  O
  O324     1.0000 0.76710  0.35460  0.49140  Biso   1.000  O
  O325     1.0000 0.35460  0.76710  0.50860  Biso   1.000  O
  O326     1.0000 0.64540  0.23290  0.50860  Biso   1.000  O
  O327     1.0000 0.76710  0.64540  0.50860  Biso   1.000  O
  O328     1.0000 0.23290  0.35460  0.50860  Biso   1.000  O
  O329     1.0000 0.14540  0.26710  0.99140  Biso   1.000  O
  O330     1.0000 0.85460  0.73290  0.99140  Biso   1.000  O
  O331     1.0000 0.73290  0.14540  0.99140  Biso   1.000  O
  O332     1.0000 0.26710  0.85460  0.99140  Biso   1.000  O
  O333     1.0000 0.85460  0.26710  0.00860  Biso   1.000  O
  O334     1.0000 0.14540  0.73290  0.00860  Biso   1.000  O
  O335     1.0000 0.26710  0.14540  0.00860  Biso   1.000  O
  O336     1.0000 0.73290  0.85460  0.00860  Biso   1.000  O
  O337     1.0000 0.35960  0.69220  0.96990  Biso   1.000  O
  O338     1.0000 0.64040  0.30780  0.96990  Biso   1.000  O
  O339     1.0000 0.30780  0.35960  0.96990  Biso   1.000  O
  O340     1.0000 0.69220  0.64040  0.96990  Biso   1.000  O
  O341     1.0000 0.64040  0.69220  0.03010  Biso   1.000  O
  O342     1.0000 0.35960  0.30780  0.03010  Biso   1.000  O
  O343     1.0000 0.69220  0.35960  0.03010  Biso   1.000  O
  O344     1.0000 0.30780  0.64040  0.03010  Biso   1.000  O
  O345     1.0000 0.85960  0.19220  0.46990  Biso   1.000  O
  O346     1.0000 0.14040  0.80780  0.46990  Biso   1.000  O
  O347     1.0000 0.80780  0.85960  0.46990  Biso   1.000  O
  O348     1.0000 0.19220  0.14040  0.46990  Biso   1.000  O
  O349     1.0000 0.14040  0.19220  0.53010  Biso   1.000  O
  O350     1.0000 0.85960  0.80780  0.53010  Biso   1.000  O
  O351     1.0000 0.19220  0.85960  0.53010  Biso   1.000  O
  O352     1.0000 0.80780  0.14040  0.53010  Biso   1.000  O
  O353     1.0000 0.05370  0.55370  0.75000  Biso   1.000  O
  O354     1.0000 0.94630  0.44630  0.75000  Biso   1.000  O
  O355     1.0000 0.44630  0.05370  0.75000  Biso   1.000  O
  O356     1.0000 0.55370  0.94630  0.75000  Biso   1.000  O
  O357     1.0000 0.94630  0.55370  0.25000  Biso   1.000  O
  O358     1.0000 0.05370  0.44630  0.25000  Biso   1.000  O
  O359     1.0000 0.55370  0.05370  0.25000  Biso   1.000  O
  O360     1.0000 0.44630  0.94630  0.25000  Biso   1.000  O
  C641     1.0000 0.96090  0.66820  0.71650  Biso   1.000  C
  C642     1.0000 0.03910  0.33180  0.71650  Biso   1.000  C
  C643     1.0000 0.33180  0.96090  0.71650  Biso   1.000  C
  C644     1.0000 0.66820  0.03910  0.71650  Biso   1.000  C
  C645     1.0000 0.03910  0.66820  0.28350  Biso   1.000  C
  C646     1.0000 0.96090  0.33180  0.28350  Biso   1.000  C
  C647     1.0000 0.66820  0.96090  0.28350  Biso   1.000  C
  C648     1.0000 0.33180  0.03910  0.28350  Biso   1.000  C
  C649     1.0000 0.46090  0.16820  0.21650  Biso   1.000  C
  C650     1.0000 0.53910  0.83180  0.21650  Biso   1.000  C
  C651     1.0000 0.83180  0.46090  0.21650  Biso   1.000  C
  C652     1.0000 0.16820  0.53910  0.21650  Biso   1.000  C
  C653     1.0000 0.53910  0.16820  0.78350  Biso   1.000  C
  C654     1.0000 0.46090  0.83180  0.78350  Biso   1.000  C
  C655     1.0000 0.16820  0.46090  0.78350  Biso   1.000  C
  C656     1.0000 0.83180  0.53910  0.78350  Biso   1.000  C
  H513     1.0000 0.93330  0.66040  0.70160  Biso   1.000  H
  H514     1.0000 0.06670  0.33960  0.70160  Biso   1.000  H
  H515     1.0000 0.33960  0.93330  0.70160  Biso   1.000  H
  H516     1.0000 0.66040  0.06670  0.70160  Biso   1.000  H
  H517     1.0000 0.06670  0.66040  0.29840  Biso   1.000  H
  H518     1.0000 0.93330  0.33960  0.29840  Biso   1.000  H
  H519     1.0000 0.66040  0.93330  0.29840  Biso   1.000  H
  H520     1.0000 0.33960  0.06670  0.29840  Biso   1.000  H
  H521     1.0000 0.43330  0.16040  0.20160  Biso   1.000  H
  H522     1.0000 0.56670  0.83960  0.20160  Biso   1.000  H
  H523     1.0000 0.83960  0.43330  0.20160  Biso   1.000  H
  H524     1.0000 0.16040  0.56670  0.20160  Biso   1.000  H
  H525     1.0000 0.56670  0.16040  0.79840  Biso   1.000  H
  H526     1.0000 0.43330  0.83960  0.79840  Biso   1.000  H
  H527     1.0000 0.16040  0.43330  0.79840  Biso   1.000  H
  H528     1.0000 0.83960  0.56670  0.79840  Biso   1.000  H
  H529     1.0000 0.00220  0.65860  0.65960  Biso   1.000  H
  H530     1.0000 0.99780  0.34140  0.65960  Biso   1.000  H
  H531     1.0000 0.34140  0.00220  0.65960  Biso   1.000  H
  H532     1.0000 0.65860  0.99780  0.65960  Biso   1.000  H
  H533     1.0000 0.99780  0.65860  0.34040  Biso   1.000  H
  H534     1.0000 0.00220  0.34140  0.34040  Biso   1.000  H
  H535     1.0000 0.65860  0.00220  0.34040  Biso   1.000  H
  H536     1.0000 0.34140  0.99780  0.34040  Biso   1.000  H
  H537     1.0000 0.50220  0.15860  0.15960  Biso   1.000  H
  H538     1.0000 0.49780  0.84140  0.15960  Biso   1.000  H
  H539     1.0000 0.84140  0.50220  0.15960  Biso   1.000  H
  H540     1.0000 0.15860  0.49780  0.15960  Biso   1.000  H
  H541     1.0000 0.49780  0.15860  0.84040  Biso   1.000  H
  H542     1.0000 0.50220  0.84140  0.84040  Biso   1.000  H
  H543     1.0000 0.15860  0.50220  0.84040  Biso   1.000  H
  H544     1.0000 0.84140  0.49780  0.84040  Biso   1.000  H
  C657     1.0000 0.04210  0.69690  0.76540  Biso   1.000  C
  C658     1.0000 0.95790  0.30310  0.76540  Biso   1.000  C
  C659     1.0000 0.30310  0.04210  0.76540  Biso   1.000  C
  C660     1.0000 0.69690  0.95790  0.76540  Biso   1.000  C
  C661     1.0000 0.95790  0.69690  0.23460  Biso   1.000  C
  C662     1.0000 0.04210  0.30310  0.23460  Biso   1.000  C
  C663     1.0000 0.69690  0.04210  0.23460  Biso   1.000  C
  C664     1.0000 0.30310  0.95790  0.23460  Biso   1.000  C
  C665     1.0000 0.54210  0.19690  0.26540  Biso   1.000  C
  C666     1.0000 0.45790  0.80310  0.26540  Biso   1.000  C
  C667     1.0000 0.80310  0.54210  0.26540  Biso   1.000  C
  C668     1.0000 0.19690  0.45790  0.26540  Biso   1.000  C
  C669     1.0000 0.45790  0.19690  0.73460  Biso   1.000  C
  C670     1.0000 0.54210  0.80310  0.73460  Biso   1.000  C
  C671     1.0000 0.19690  0.54210  0.73460  Biso   1.000  C
  C672     1.0000 0.80310  0.45790  0.73460  Biso   1.000  C
  C673     1.0000 0.00270  0.68070  0.78820  Biso   1.000  C
  C674     1.0000 0.99730  0.31930  0.78820  Biso   1.000  C
  C675     1.0000 0.31930  0.00270  0.78820  Biso   1.000  C
  C676     1.0000 0.68070  0.99730  0.78820  Biso   1.000  C
  C677     1.0000 0.99730  0.68070  0.21180  Biso   1.000  C
  C678     1.0000 0.00270  0.31930  0.21180  Biso   1.000  C
  C679     1.0000 0.68070  0.00270  0.21180  Biso   1.000  C
  C680     1.0000 0.31930  0.99730  0.21180  Biso   1.000  C
  C681     1.0000 0.50270  0.18070  0.28820  Biso   1.000  C
  C682     1.0000 0.49730  0.81930  0.28820  Biso   1.000  C
  C683     1.0000 0.81930  0.50270  0.28820  Biso   1.000  C
  C684     1.0000 0.18070  0.49730  0.28820  Biso   1.000  C
  C685     1.0000 0.49730  0.18070  0.71180  Biso   1.000  C
  C686     1.0000 0.50270  0.81930  0.71180  Biso   1.000  C
  C687     1.0000 0.18070  0.50270  0.71180  Biso   1.000  C
  C688     1.0000 0.81930  0.49730  0.71180  Biso   1.000  C
  H545     1.0000 0.00390  0.67290  0.82010  Biso   1.000  H
  H546     1.0000 0.99610  0.32710  0.82010  Biso   1.000  H
  H547     1.0000 0.32710  0.00390  0.82010  Biso   1.000  H
  H548     1.0000 0.67290  0.99610  0.82010  Biso   1.000  H
  H549     1.0000 0.99610  0.67290  0.17990  Biso   1.000  H
  H550     1.0000 0.00390  0.32710  0.17990  Biso   1.000  H
  H551     1.0000 0.67290  0.00390  0.17990  Biso   1.000  H
  H552     1.0000 0.32710  0.99610  0.17990  Biso   1.000  H
  H553     1.0000 0.50390  0.17290  0.32010  Biso   1.000  H
  H554     1.0000 0.49610  0.82710  0.32010  Biso   1.000  H
  H555     1.0000 0.82710  0.50390  0.32010  Biso   1.000  H
  H556     1.0000 0.17290  0.49610  0.32010  Biso   1.000  H
  H557     1.0000 0.49610  0.17290  0.67990  Biso   1.000  H
  H558     1.0000 0.50390  0.82710  0.67990  Biso   1.000  H
  H559     1.0000 0.17290  0.50390  0.67990  Biso   1.000  H
  H560     1.0000 0.82710  0.49610  0.67990  Biso   1.000  H
  C689     1.0000 0.96140  0.67620  0.76340  Biso   1.000  C
  C690     1.0000 0.03860  0.32380  0.76340  Biso   1.000  C
  C691     1.0000 0.32380  0.96140  0.76340  Biso   1.000  C
  C692     1.0000 0.67620  0.03860  0.76340  Biso   1.000  C
  C693     1.0000 0.03860  0.67620  0.23660  Biso   1.000  C
  C694     1.0000 0.96140  0.32380  0.23660  Biso   1.000  C
  C695     1.0000 0.67620  0.96140  0.23660  Biso   1.000  C
  C696     1.0000 0.32380  0.03860  0.23660  Biso   1.000  C
  C697     1.0000 0.46140  0.17620  0.26340  Biso   1.000  C
  C698     1.0000 0.53860  0.82380  0.26340  Biso   1.000  C
  C699     1.0000 0.82380  0.46140  0.26340  Biso   1.000  C
  C700     1.0000 0.17620  0.53860  0.26340  Biso   1.000  C
  C701     1.0000 0.53860  0.17620  0.73660  Biso   1.000  C
  C702     1.0000 0.46140  0.82380  0.73660  Biso   1.000  C
  C703     1.0000 0.17620  0.46140  0.73660  Biso   1.000  C
  C704     1.0000 0.82380  0.53860  0.73660  Biso   1.000  C
  C705     1.0000 0.99900  0.70400  0.69300  Biso   1.000  C
  C706     1.0000 0.00100  0.29600  0.69300  Biso   1.000  C
  C707     1.0000 0.29600  0.99900  0.69300  Biso   1.000  C
  C708     1.0000 0.70400  0.00100  0.69300  Biso   1.000  C
  C709     1.0000 0.00100  0.70400  0.30700  Biso   1.000  C
  C710     1.0000 0.99900  0.29600  0.30700  Biso   1.000  C
  C711     1.0000 0.70400  0.99900  0.30700  Biso   1.000  C
  C712     1.0000 0.29600  0.00100  0.30700  Biso   1.000  C
  C713     1.0000 0.49900  0.20400  0.19300  Biso   1.000  C
  C714     1.0000 0.50100  0.79600  0.19300  Biso   1.000  C
  C715     1.0000 0.79600  0.49900  0.19300  Biso   1.000  C
  C716     1.0000 0.20400  0.50100  0.19300  Biso   1.000  C
  C717     1.0000 0.50100  0.20400  0.80700  Biso   1.000  C
  C718     1.0000 0.49900  0.79600  0.80700  Biso   1.000  C
  C719     1.0000 0.20400  0.49900  0.80700  Biso   1.000  C
  C720     1.0000 0.79600  0.50100  0.80700  Biso   1.000  C
  H561     1.0000 0.99770  0.71180  0.66110  Biso   1.000  H
  H562     1.0000 0.00230  0.28820  0.66110  Biso   1.000  H
  H563     1.0000 0.28820  0.99770  0.66110  Biso   1.000  H
  H564     1.0000 0.71180  0.00230  0.66110  Biso   1.000  H
  H565     1.0000 0.00230  0.71180  0.33890  Biso   1.000  H
  H566     1.0000 0.99770  0.28820  0.33890  Biso   1.000  H
  H567     1.0000 0.71180  0.99770  0.33890  Biso   1.000  H
  H568     1.0000 0.28820  0.00230  0.33890  Biso   1.000  H
  H569     1.0000 0.49770  0.21180  0.16110  Biso   1.000  H
  H570     1.0000 0.50230  0.78820  0.16110  Biso   1.000  H
  H571     1.0000 0.78820  0.49770  0.16110  Biso   1.000  H
  H572     1.0000 0.21180  0.50230  0.16110  Biso   1.000  H
  H573     1.0000 0.50230  0.21180  0.83890  Biso   1.000  H
  H574     1.0000 0.49770  0.78820  0.83890  Biso   1.000  H
  H575     1.0000 0.21180  0.49770  0.83890  Biso   1.000  H
  H576     1.0000 0.78820  0.50230  0.83890  Biso   1.000  H
  C721     1.0000 0.04020  0.70860  0.71780  Biso   1.000  C
  C722     1.0000 0.95980  0.29140  0.71780  Biso   1.000  C
  C723     1.0000 0.29140  0.04020  0.71780  Biso   1.000  C
  C724     1.0000 0.70860  0.95980  0.71780  Biso   1.000  C
  C725     1.0000 0.95980  0.70860  0.28220  Biso   1.000  C
  C726     1.0000 0.04020  0.29140  0.28220  Biso   1.000  C
  C727     1.0000 0.70860  0.04020  0.28220  Biso   1.000  C
  C728     1.0000 0.29140  0.95980  0.28220  Biso   1.000  C
  C729     1.0000 0.54020  0.20860  0.21780  Biso   1.000  C
  C730     1.0000 0.45980  0.79140  0.21780  Biso   1.000  C
  C731     1.0000 0.79140  0.54020  0.21780  Biso   1.000  C
  C732     1.0000 0.20860  0.45980  0.21780  Biso   1.000  C
  C733     1.0000 0.45980  0.20860  0.78220  Biso   1.000  C
  C734     1.0000 0.54020  0.79140  0.78220  Biso   1.000  C
  C735     1.0000 0.20860  0.54020  0.78220  Biso   1.000  C
  C736     1.0000 0.79140  0.45980  0.78220  Biso   1.000  C
  H577     1.0000 0.06660  0.71940  0.70250  Biso   1.000  H
  H578     1.0000 0.93340  0.28060  0.70250  Biso   1.000  H
  H579     1.0000 0.28060  0.06660  0.70250  Biso   1.000  H
  H580     1.0000 0.71940  0.93340  0.70250  Biso   1.000  H
  H581     1.0000 0.93340  0.71940  0.29750  Biso   1.000  H
  H582     1.0000 0.06660  0.28060  0.29750  Biso   1.000  H
  H583     1.0000 0.71940  0.06660  0.29750  Biso   1.000  H
  H584     1.0000 0.28060  0.93340  0.29750  Biso   1.000  H
  H585     1.0000 0.56660  0.21940  0.20250  Biso   1.000  H
  H586     1.0000 0.43340  0.78060  0.20250  Biso   1.000  H
  H587     1.0000 0.78060  0.56660  0.20250  Biso   1.000  H
  H588     1.0000 0.21940  0.43340  0.20250  Biso   1.000  H
  H589     1.0000 0.43340  0.21940  0.79750  Biso   1.000  H
  H590     1.0000 0.56660  0.78060  0.79750  Biso   1.000  H
  H591     1.0000 0.21940  0.56660  0.79750  Biso   1.000  H
  H592     1.0000 0.78060  0.43340  0.79750  Biso   1.000  H
  O361     1.0000 0.99510  0.47600  0.88180  Biso   1.000  O
  O362     1.0000 0.00490  0.52400  0.88180  Biso   1.000  O
  O363     1.0000 0.52400  0.99510  0.88180  Biso   1.000  O
  O364     1.0000 0.47600  0.00490  0.88180  Biso   1.000  O
  O365     1.0000 0.00490  0.47600  0.11820  Biso   1.000  O
  O366     1.0000 0.99510  0.52400  0.11820  Biso   1.000  O
  O367     1.0000 0.47600  0.99510  0.11820  Biso   1.000  O
  O368     1.0000 0.52400  0.00490  0.11820  Biso   1.000  O
  O369     1.0000 0.49510  0.97600  0.38180  Biso   1.000  O
  O370     1.0000 0.50490  0.02400  0.38180  Biso   1.000  O
  O371     1.0000 0.02400  0.49510  0.38180  Biso   1.000  O
  O372     1.0000 0.97600  0.50490  0.38180  Biso   1.000  O
  O373     1.0000 0.50490  0.97600  0.61820  Biso   1.000  O
  O374     1.0000 0.49510  0.02400  0.61820  Biso   1.000  O
  O375     1.0000 0.97600  0.49510  0.61820  Biso   1.000  O
  O376     1.0000 0.02400  0.50490  0.61820  Biso   1.000  O
  O377     1.0000 0.96200  0.49600  0.93010  Biso   1.000  O
  O378     1.0000 0.03800  0.50400  0.93010  Biso   1.000  O
  O379     1.0000 0.50400  0.96200  0.93010  Biso   1.000  O
  O380     1.0000 0.49600  0.03800  0.93010  Biso   1.000  O
  O381     1.0000 0.03800  0.49600  0.06990  Biso   1.000  O
  O382     1.0000 0.96200  0.50400  0.06990  Biso   1.000  O
  O383     1.0000 0.49600  0.96200  0.06990  Biso   1.000  O
  O384     1.0000 0.50400  0.03800  0.06990  Biso   1.000  O
  O385     1.0000 0.46200  0.99600  0.43010  Biso   1.000  O
  O386     1.0000 0.53800  0.00400  0.43010  Biso   1.000  O
  O387     1.0000 0.00400  0.46200  0.43010  Biso   1.000  O
  O388     1.0000 0.99600  0.53800  0.43010  Biso   1.000  O
  O389     1.0000 0.53800  0.99600  0.56990  Biso   1.000  O
  O390     1.0000 0.46200  0.00400  0.56990  Biso   1.000  O
  O391     1.0000 0.99600  0.46200  0.56990  Biso   1.000  O
  O392     1.0000 0.00400  0.53800  0.56990  Biso   1.000  O
  O393     1.0000 0.84410  0.68160  0.99200  Biso   1.000  O
  O394     1.0000 0.15590  0.31840  0.99200  Biso   1.000  O
  O395     1.0000 0.31840  0.84410  0.99200  Biso   1.000  O
  O396     1.0000 0.68160  0.15590  0.99200  Biso   1.000  O
  O397     1.0000 0.15590  0.68160  0.00800  Biso   1.000  O
  O398     1.0000 0.84410  0.31840  0.00800  Biso   1.000  O
  O399     1.0000 0.68160  0.84410  0.00800  Biso   1.000  O
  O400     1.0000 0.31840  0.15590  0.00800  Biso   1.000  O
  O401     1.0000 0.34410  0.18160  0.49200  Biso   1.000  O
  O402     1.0000 0.65590  0.81840  0.49200  Biso   1.000  O
  O403     1.0000 0.81840  0.34410  0.49200  Biso   1.000  O
  O404     1.0000 0.18160  0.65590  0.49200  Biso   1.000  O
  O405     1.0000 0.65590  0.18160  0.50800  Biso   1.000  O
  O406     1.0000 0.34410  0.81840  0.50800  Biso   1.000  O
  O407     1.0000 0.18160  0.34410  0.50800  Biso   1.000  O
  O408     1.0000 0.81840  0.65590  0.50800  Biso   1.000  O
