data_image0
_cell_length_a       38.537
_cell_length_b       7.7738
_cell_length_c       26.5636
_cell_angle_alpha    90
_cell_angle_beta     116.924
_cell_angle_gamma    90

_symmetry_space_group_name_H-M    "P 1"
_symmetry_int_tables_number       1

loop_
  _symmetry_equiv_pos_as_xyz
  'x, y, z'

loop_
  _atom_site_label
  _atom_site_occupancy
  _atom_site_fract_x
  _atom_site_fract_y
  _atom_site_fract_z
  _atom_site_thermal_displace_type
  _atom_site_B_iso_or_equiv
  _atom_site_type_symbol
  Cu1      1.0000 0.04931  0.44631  0.40258  Biso   1.000  Cu
  Cu2      1.0000 0.54931  0.94631  0.40258  Biso   1.000  Cu
  Cu3      1.0000 0.95069  0.44631  0.09742  Biso   1.000  Cu
  Cu4      1.0000 0.45069  0.94631  0.09742  Biso   1.000  Cu
  Cu5      1.0000 0.95069  0.55369  0.59742  Biso   1.000  Cu
  Cu6      1.0000 0.45069  0.05369  0.59742  Biso   1.000  Cu
  Cu7      1.0000 0.04931  0.55369  0.90258  Biso   1.000  Cu
  Cu8      1.0000 0.54931  0.05369  0.90258  Biso   1.000  Cu
  Cu9      1.0000 0.92412  0.26093  0.35328  Biso   1.000  Cu
  Cu10     1.0000 0.42412  0.76093  0.35328  Biso   1.000  Cu
  Cu11     1.0000 0.07588  0.26093  0.14672  Biso   1.000  Cu
  Cu12     1.0000 0.57588  0.76093  0.14672  Biso   1.000  Cu
  Cu13     1.0000 0.07588  0.73907  0.64672  Biso   1.000  Cu
  Cu14     1.0000 0.57588  0.23907  0.64672  Biso   1.000  Cu
  Cu15     1.0000 0.92412  0.73907  0.85328  Biso   1.000  Cu
  Cu16     1.0000 0.42412  0.23907  0.85328  Biso   1.000  Cu
  Cu17     1.0000 0.93145  0.83341  0.34655  Biso   1.000  Cu
  Cu18     1.0000 0.43145  0.33341  0.34655  Biso   1.000  Cu
  Cu19     1.0000 0.06855  0.83341  0.15345  Biso   1.000  Cu
  Cu20     1.0000 0.56855  0.33341  0.15345  Biso   1.000  Cu
  Cu21     1.0000 0.06855  0.16659  0.65345  Biso   1.000  Cu
  Cu22     1.0000 0.56855  0.66659  0.65345  Biso   1.000  Cu
  Cu23     1.0000 0.93145  0.16659  0.84655  Biso   1.000  Cu
  Cu24     1.0000 0.43145  0.66659  0.84655  Biso   1.000  Cu
  Cl1      1.0000 0.14170  0.87900  0.42456  Biso   1.000  Cl
  Cl2      1.0000 0.64170  0.37900  0.42456  Biso   1.000  Cl
  Cl3      1.0000 0.85830  0.87900  0.07544  Biso   1.000  Cl
  Cl4      1.0000 0.35830  0.37900  0.07544  Biso   1.000  Cl
  Cl5      1.0000 0.85830  0.12100  0.57544  Biso   1.000  Cl
  Cl6      1.0000 0.35830  0.62100  0.57544  Biso   1.000  Cl
  Cl7      1.0000 0.14170  0.12100  0.92456  Biso   1.000  Cl
  Cl8      1.0000 0.64170  0.62100  0.92456  Biso   1.000  Cl
  Cl9      1.0000 0.25962  0.45760  0.55094  Biso   1.000  Cl
  Cl10     1.0000 0.75962  0.95760  0.55094  Biso   1.000  Cl
  Cl11     1.0000 0.74038  0.45760  0.94906  Biso   1.000  Cl
  Cl12     1.0000 0.24038  0.95760  0.94906  Biso   1.000  Cl
  Cl13     1.0000 0.74038  0.54240  0.44906  Biso   1.000  Cl
  Cl14     1.0000 0.24038  0.04240  0.44906  Biso   1.000  Cl
  Cl15     1.0000 0.25962  0.54240  0.05094  Biso   1.000  Cl
  Cl16     1.0000 0.75962  0.04240  0.05094  Biso   1.000  Cl
  Cl17     1.0000 0.88792  0.22180  0.15908  Biso   1.000  Cl
  Cl18     1.0000 0.38792  0.72180  0.15908  Biso   1.000  Cl
  Cl19     1.0000 0.11208  0.22180  0.34092  Biso   1.000  Cl
  Cl20     1.0000 0.61208  0.72180  0.34092  Biso   1.000  Cl
  Cl21     1.0000 0.11208  0.77820  0.84092  Biso   1.000  Cl
  Cl22     1.0000 0.61208  0.27820  0.84092  Biso   1.000  Cl
  Cl23     1.0000 0.88792  0.77820  0.65908  Biso   1.000  Cl
  Cl24     1.0000 0.38792  0.27820  0.65908  Biso   1.000  Cl
  Cl25     1.0000 0.75556  0.57040  0.10934  Biso   1.000  Cl
  Cl26     1.0000 0.25556  0.07040  0.10934  Biso   1.000  Cl
  Cl27     1.0000 0.24444  0.57040  0.39066  Biso   1.000  Cl
  Cl28     1.0000 0.74444  0.07040  0.39066  Biso   1.000  Cl
  Cl29     1.0000 0.24444  0.42960  0.89066  Biso   1.000  Cl
  Cl30     1.0000 0.74444  0.92960  0.89066  Biso   1.000  Cl
  Cl31     1.0000 0.75556  0.42960  0.60934  Biso   1.000  Cl
  Cl32     1.0000 0.25556  0.92960  0.60934  Biso   1.000  Cl
  Cl33     1.0000 0.83991  0.09800  0.39426  Biso   1.000  Cl
  Cl34     1.0000 0.33991  0.59800  0.39426  Biso   1.000  Cl
  Cl35     1.0000 0.16009  0.09800  0.10574  Biso   1.000  Cl
  Cl36     1.0000 0.66009  0.59800  0.10574  Biso   1.000  Cl
  Cl37     1.0000 0.16009  0.90200  0.60574  Biso   1.000  Cl
  Cl38     1.0000 0.66009  0.40200  0.60574  Biso   1.000  Cl
  Cl39     1.0000 0.83991  0.90200  0.89426  Biso   1.000  Cl
  Cl40     1.0000 0.33991  0.40200  0.89426  Biso   1.000  Cl
  Cl41     1.0000 0.73363  0.11870  0.17574  Biso   1.000  Cl
  Cl42     1.0000 0.23363  0.61870  0.17574  Biso   1.000  Cl
  Cl43     1.0000 0.26637  0.11870  0.32426  Biso   1.000  Cl
  Cl44     1.0000 0.76637  0.61870  0.32426  Biso   1.000  Cl
  Cl45     1.0000 0.26637  0.88130  0.82426  Biso   1.000  Cl
  Cl46     1.0000 0.76637  0.38130  0.82426  Biso   1.000  Cl
  Cl47     1.0000 0.73363  0.88130  0.67574  Biso   1.000  Cl
  Cl48     1.0000 0.23363  0.38130  0.67574  Biso   1.000  Cl
  N1       1.0000 0.08135  0.25660  0.44920  Biso   1.000  N
  N2       1.0000 0.58135  0.75660  0.44920  Biso   1.000  N
  N3       1.0000 0.91865  0.25660  0.05080  Biso   1.000  N
  N4       1.0000 0.41865  0.75660  0.05080  Biso   1.000  N
  N5       1.0000 0.91865  0.74340  0.55080  Biso   1.000  N
  N6       1.0000 0.41865  0.24340  0.55080  Biso   1.000  N
  N7       1.0000 0.08135  0.74340  0.94920  Biso   1.000  N
  N8       1.0000 0.58135  0.24340  0.94920  Biso   1.000  N
  N9       1.0000 0.88916  0.43360  0.35760  Biso   1.000  N
  N10      1.0000 0.38916  0.93360  0.35760  Biso   1.000  N
  N11      1.0000 0.11084  0.43360  0.14240  Biso   1.000  N
  N12      1.0000 0.61084  0.93360  0.14240  Biso   1.000  N
  N13      1.0000 0.11084  0.56640  0.64240  Biso   1.000  N
  N14      1.0000 0.61084  0.06640  0.64240  Biso   1.000  N
  N15      1.0000 0.88916  0.56640  0.85760  Biso   1.000  N
  N16      1.0000 0.38916  0.06640  0.85760  Biso   1.000  N
  N17      1.0000 0.90412  0.81450  0.26480  Biso   1.000  N
  N18      1.0000 0.40412  0.31450  0.26480  Biso   1.000  N
  N19      1.0000 0.09588  0.81450  0.23520  Biso   1.000  N
  N20      1.0000 0.59588  0.31450  0.23520  Biso   1.000  N
  N21      1.0000 0.09588  0.18550  0.73520  Biso   1.000  N
  N22      1.0000 0.59588  0.68550  0.73520  Biso   1.000  N
  N23      1.0000 0.90412  0.18550  0.76480  Biso   1.000  N
  N24      1.0000 0.40412  0.68550  0.76480  Biso   1.000  N
  O1       1.0000 0.00196  0.31980  0.38490  Biso   1.000  O
  O2       1.0000 0.50196  0.81980  0.38490  Biso   1.000  O
  O3       1.0000 0.99804  0.31980  0.11510  Biso   1.000  O
  O4       1.0000 0.49804  0.81980  0.11510  Biso   1.000  O
  O5       1.0000 0.99804  0.68020  0.61510  Biso   1.000  O
  O6       1.0000 0.49804  0.18020  0.61510  Biso   1.000  O
  O7       1.0000 0.00196  0.68020  0.88490  Biso   1.000  O
  O8       1.0000 0.50196  0.18020  0.88490  Biso   1.000  O
  O9       1.0000 0.96317  0.09920  0.34990  Biso   1.000  O
  O10      1.0000 0.46317  0.59920  0.34990  Biso   1.000  O
  O11      1.0000 0.03683  0.09920  0.15010  Biso   1.000  O
  O12      1.0000 0.53683  0.59920  0.15010  Biso   1.000  O
  O13      1.0000 0.03683  0.90080  0.65010  Biso   1.000  O
  O14      1.0000 0.53683  0.40080  0.65010  Biso   1.000  O
  O15      1.0000 0.96317  0.90080  0.84990  Biso   1.000  O
  O16      1.0000 0.46317  0.40080  0.84990  Biso   1.000  O
  O17      1.0000 0.09214  0.59280  0.42220  Biso   1.000  O
  O18      1.0000 0.59214  0.09280  0.42220  Biso   1.000  O
  O19      1.0000 0.90786  0.59280  0.07780  Biso   1.000  O
  O20      1.0000 0.40786  0.09280  0.07780  Biso   1.000  O
  O21      1.0000 0.90786  0.40720  0.57780  Biso   1.000  O
  O22      1.0000 0.40786  0.90720  0.57780  Biso   1.000  O
  O23      1.0000 0.09214  0.40720  0.92220  Biso   1.000  O
  O24      1.0000 0.59214  0.90720  0.92220  Biso   1.000  O
  O25      1.0000 0.94691  0.20450  0.43270  Biso   1.000  O
  O26      1.0000 0.44691  0.70450  0.43270  Biso   1.000  O
  O27      1.0000 0.05309  0.20450  0.06730  Biso   1.000  O
  O28      1.0000 0.55309  0.70450  0.06730  Biso   1.000  O
  O29      1.0000 0.05309  0.79550  0.56730  Biso   1.000  O
  O30      1.0000 0.55309  0.29550  0.56730  Biso   1.000  O
  O31      1.0000 0.94691  0.79550  0.93270  Biso   1.000  O
  O32      1.0000 0.44691  0.29550  0.93270  Biso   1.000  O
  O33      1.0000 0.97019  0.27680  0.52290  Biso   1.000  O
  O34      1.0000 0.47019  0.77680  0.52290  Biso   1.000  O
  O35      1.0000 0.02981  0.27680  0.97710  Biso   1.000  O
  O36      1.0000 0.52981  0.77680  0.97710  Biso   1.000  O
  O37      1.0000 0.02981  0.72320  0.47710  Biso   1.000  O
  O38      1.0000 0.52981  0.22320  0.47710  Biso   1.000  O
  O39      1.0000 0.97019  0.72320  0.02290  Biso   1.000  O
  O40      1.0000 0.47019  0.22320  0.02290  Biso   1.000  O
  O41      1.0000 0.90318  0.27810  0.27400  Biso   1.000  O
  O42      1.0000 0.40318  0.77810  0.27400  Biso   1.000  O
  O43      1.0000 0.09682  0.27810  0.22600  Biso   1.000  O
  O44      1.0000 0.59682  0.77810  0.22600  Biso   1.000  O
  O45      1.0000 0.09682  0.72190  0.72600  Biso   1.000  O
  O46      1.0000 0.59682  0.22190  0.72600  Biso   1.000  O
  O47      1.0000 0.90318  0.72190  0.77400  Biso   1.000  O
  O48      1.0000 0.40318  0.22190  0.77400  Biso   1.000  O
  O49      1.0000 0.97323  0.68300  0.35520  Biso   1.000  O
  O50      1.0000 0.47323  0.18300  0.35520  Biso   1.000  O
  O51      1.0000 0.02677  0.68300  0.14480  Biso   1.000  O
  O52      1.0000 0.52677  0.18300  0.14480  Biso   1.000  O
  O53      1.0000 0.02677  0.31700  0.64480  Biso   1.000  O
  O54      1.0000 0.52677  0.81700  0.64480  Biso   1.000  O
  O55      1.0000 0.97323  0.31700  0.85520  Biso   1.000  O
  O56      1.0000 0.47323  0.81700  0.85520  Biso   1.000  O
  O57      1.0000 0.01788  0.57760  0.33470  Biso   1.000  O
  O58      1.0000 0.51788  0.07760  0.33470  Biso   1.000  O
  O59      1.0000 0.98212  0.57760  0.16530  Biso   1.000  O
  O60      1.0000 0.48212  0.07760  0.16530  Biso   1.000  O
  O61      1.0000 0.98212  0.42240  0.66530  Biso   1.000  O
  O62      1.0000 0.48212  0.92240  0.66530  Biso   1.000  O
  O63      1.0000 0.01788  0.42240  0.83470  Biso   1.000  O
  O64      1.0000 0.51788  0.92240  0.83470  Biso   1.000  O
  O65      1.0000 0.88991  0.95300  0.35050  Biso   1.000  O
  O66      1.0000 0.38991  0.45300  0.35050  Biso   1.000  O
  O67      1.0000 0.11009  0.95300  0.14950  Biso   1.000  O
  O68      1.0000 0.61009  0.45300  0.14950  Biso   1.000  O
  O69      1.0000 0.11009  0.04700  0.64950  Biso   1.000  O
  O70      1.0000 0.61009  0.54700  0.64950  Biso   1.000  O
  O71      1.0000 0.88991  0.04700  0.85050  Biso   1.000  O
  O72      1.0000 0.38991  0.54700  0.85050  Biso   1.000  O
  O73      1.0000 0.95795  0.85940  0.43040  Biso   1.000  O
  O74      1.0000 0.45795  0.35940  0.43040  Biso   1.000  O
  O75      1.0000 0.04205  0.85940  0.06960  Biso   1.000  O
  O76      1.0000 0.54205  0.35940  0.06960  Biso   1.000  O
  O77      1.0000 0.04205  0.14060  0.56960  Biso   1.000  O
  O78      1.0000 0.54205  0.64060  0.56960  Biso   1.000  O
  O79      1.0000 0.95795  0.14060  0.93040  Biso   1.000  O
  O80      1.0000 0.45795  0.64060  0.93040  Biso   1.000  O
  H1       1.0000 0.95660  0.96810  0.43240  Biso   1.000  H
  H2       1.0000 0.45660  0.46810  0.43240  Biso   1.000  H
  H3       1.0000 0.04340  0.96810  0.06760  Biso   1.000  H
  H4       1.0000 0.54340  0.46810  0.06760  Biso   1.000  H
  H5       1.0000 0.04340  0.03190  0.56760  Biso   1.000  H
  H6       1.0000 0.54340  0.53190  0.56760  Biso   1.000  H
  H7       1.0000 0.95660  0.03190  0.93240  Biso   1.000  H
  H8       1.0000 0.45660  0.53190  0.93240  Biso   1.000  H
  H9       1.0000 0.98140  0.83170  0.45180  Biso   1.000  H
  H10      1.0000 0.48140  0.33170  0.45180  Biso   1.000  H
  H11      1.0000 0.01860  0.83170  0.04820  Biso   1.000  H
  H12      1.0000 0.51860  0.33170  0.04820  Biso   1.000  H
  H13      1.0000 0.01860  0.16830  0.54820  Biso   1.000  H
  H14      1.0000 0.51860  0.66830  0.54820  Biso   1.000  H
  H15      1.0000 0.98140  0.16830  0.95180  Biso   1.000  H
  H16      1.0000 0.48140  0.66830  0.95180  Biso   1.000  H
  O81      1.0000 0.98390  0.20600  0.24530  Biso   1.000  O
  O82      1.0000 0.48390  0.70600  0.24530  Biso   1.000  O
  O83      1.0000 0.01610  0.20600  0.25470  Biso   1.000  O
  O84      1.0000 0.51610  0.70600  0.25470  Biso   1.000  O
  O85      1.0000 0.01610  0.79400  0.75470  Biso   1.000  O
  O86      1.0000 0.51610  0.29400  0.75470  Biso   1.000  O
  O87      1.0000 0.98390  0.79400  0.74530  Biso   1.000  O
  O88      1.0000 0.48390  0.29400  0.74530  Biso   1.000  O
  H17      1.0000 0.97020  0.14840  0.21560  Biso   1.000  H
  H18      1.0000 0.47020  0.64840  0.21560  Biso   1.000  H
  H19      1.0000 0.02980  0.14840  0.28440  Biso   1.000  H
  H20      1.0000 0.52980  0.64840  0.28440  Biso   1.000  H
  H21      1.0000 0.02980  0.85160  0.78440  Biso   1.000  H
  H22      1.0000 0.52980  0.35160  0.78440  Biso   1.000  H
  H23      1.0000 0.97020  0.85160  0.71560  Biso   1.000  H
  H24      1.0000 0.47020  0.35160  0.71560  Biso   1.000  H
  H25      1.0000 0.96600  0.26060  0.24880  Biso   1.000  H
  H26      1.0000 0.46600  0.76060  0.24880  Biso   1.000  H
  H27      1.0000 0.03400  0.26060  0.25120  Biso   1.000  H
  H28      1.0000 0.53400  0.76060  0.25120  Biso   1.000  H
  H29      1.0000 0.03400  0.73940  0.75120  Biso   1.000  H
  H30      1.0000 0.53400  0.23940  0.75120  Biso   1.000  H
  H31      1.0000 0.96600  0.73940  0.74880  Biso   1.000  H
  H32      1.0000 0.46600  0.23940  0.74880  Biso   1.000  H
  C1       1.0000 0.99690  0.16290  0.37360  Biso   1.000  C
  C2       1.0000 0.49690  0.66290  0.37360  Biso   1.000  C
  C3       1.0000 0.00310  0.16290  0.12640  Biso   1.000  C
  C4       1.0000 0.50310  0.66290  0.12640  Biso   1.000  C
  C5       1.0000 0.00310  0.83710  0.62640  Biso   1.000  C
  C6       1.0000 0.50310  0.33710  0.62640  Biso   1.000  C
  C7       1.0000 0.99690  0.83710  0.87360  Biso   1.000  C
  C8       1.0000 0.49690  0.33710  0.87360  Biso   1.000  C
  C9       1.0000 0.03180  0.04600  0.39190  Biso   1.000  C
  C10      1.0000 0.53180  0.54600  0.39190  Biso   1.000  C
  C11      1.0000 0.96820  0.04600  0.10810  Biso   1.000  C
  C12      1.0000 0.46820  0.54600  0.10810  Biso   1.000  C
  C13      1.0000 0.96820  0.95400  0.60810  Biso   1.000  C
  C14      1.0000 0.46820  0.45400  0.60810  Biso   1.000  C
  C15      1.0000 0.03180  0.95400  0.89190  Biso   1.000  C
  C16      1.0000 0.53180  0.45400  0.89190  Biso   1.000  C
  H33      1.0000 0.02390  0.92770  0.39210  Biso   1.000  H
  H34      1.0000 0.52390  0.42770  0.39210  Biso   1.000  H
  H35      1.0000 0.97610  0.92770  0.10790  Biso   1.000  H
  H36      1.0000 0.47610  0.42770  0.10790  Biso   1.000  H
  H37      1.0000 0.97610  0.07230  0.60790  Biso   1.000  H
  H38      1.0000 0.47610  0.57230  0.60790  Biso   1.000  H
  H39      1.0000 0.02390  0.07230  0.89210  Biso   1.000  H
  H40      1.0000 0.52390  0.57230  0.89210  Biso   1.000  H
  H41      1.0000 0.04260  0.05500  0.36530  Biso   1.000  H
  H42      1.0000 0.54260  0.55500  0.36530  Biso   1.000  H
  H43      1.0000 0.95740  0.05500  0.13470  Biso   1.000  H
  H44      1.0000 0.45740  0.55500  0.13470  Biso   1.000  H
  H45      1.0000 0.95740  0.94500  0.63470  Biso   1.000  H
  H46      1.0000 0.45740  0.44500  0.63470  Biso   1.000  H
  H47      1.0000 0.04260  0.94500  0.86530  Biso   1.000  H
  H48      1.0000 0.54260  0.44500  0.86530  Biso   1.000  H
  C17      1.0000 0.06200  0.09340  0.44910  Biso   1.000  C
  C18      1.0000 0.56200  0.59340  0.44910  Biso   1.000  C
  C19      1.0000 0.93800  0.09340  0.05090  Biso   1.000  C
  C20      1.0000 0.43800  0.59340  0.05090  Biso   1.000  C
  C21      1.0000 0.93800  0.90660  0.55090  Biso   1.000  C
  C22      1.0000 0.43800  0.40660  0.55090  Biso   1.000  C
  C23      1.0000 0.06200  0.90660  0.94910  Biso   1.000  C
  C24      1.0000 0.56200  0.40660  0.94910  Biso   1.000  C
  H49      1.0000 0.05000  0.10350  0.47420  Biso   1.000  H
  H50      1.0000 0.55000  0.60350  0.47420  Biso   1.000  H
  H51      1.0000 0.95000  0.10350  0.02580  Biso   1.000  H
  H52      1.0000 0.45000  0.60350  0.02580  Biso   1.000  H
  H53      1.0000 0.95000  0.89650  0.52580  Biso   1.000  H
  H54      1.0000 0.45000  0.39650  0.52580  Biso   1.000  H
  H55      1.0000 0.05000  0.89650  0.97420  Biso   1.000  H
  H56      1.0000 0.55000  0.39650  0.97420  Biso   1.000  H
  H57      1.0000 0.08130  0.00250  0.46360  Biso   1.000  H
  H58      1.0000 0.58130  0.50250  0.46360  Biso   1.000  H
  H59      1.0000 0.91870  0.00250  0.03640  Biso   1.000  H
  H60      1.0000 0.41870  0.50250  0.03640  Biso   1.000  H
  H61      1.0000 0.91870  0.99750  0.53640  Biso   1.000  H
  H62      1.0000 0.41870  0.49750  0.53640  Biso   1.000  H
  H63      1.0000 0.08130  0.99750  0.96360  Biso   1.000  H
  H64      1.0000 0.58130  0.49750  0.96360  Biso   1.000  H
  C25      1.0000 0.11850  0.26140  0.47740  Biso   1.000  C
  C26      1.0000 0.61850  0.76140  0.47740  Biso   1.000  C
  C27      1.0000 0.88150  0.26140  0.02260  Biso   1.000  C
  C28      1.0000 0.38150  0.76140  0.02260  Biso   1.000  C
  C29      1.0000 0.88150  0.73860  0.52260  Biso   1.000  C
  C30      1.0000 0.38150  0.23860  0.52260  Biso   1.000  C
  C31      1.0000 0.11850  0.73860  0.97740  Biso   1.000  C
  C32      1.0000 0.61850  0.23860  0.97740  Biso   1.000  C
  H65      1.0000 0.13050  0.16260  0.49740  Biso   1.000  H
  H66      1.0000 0.63050  0.66260  0.49740  Biso   1.000  H
  H67      1.0000 0.86950  0.16260  0.00260  Biso   1.000  H
  H68      1.0000 0.36950  0.66260  0.00260  Biso   1.000  H
  H69      1.0000 0.86950  0.83740  0.50260  Biso   1.000  H
  H70      1.0000 0.36950  0.33740  0.50260  Biso   1.000  H
  H71      1.0000 0.13050  0.83740  0.99740  Biso   1.000  H
  H72      1.0000 0.63050  0.33740  0.99740  Biso   1.000  H
  C33      1.0000 0.14350  0.40100  0.48140  Biso   1.000  C
  C34      1.0000 0.64350  0.90100  0.48140  Biso   1.000  C
  C35      1.0000 0.85650  0.40100  0.01860  Biso   1.000  C
  C36      1.0000 0.35650  0.90100  0.01860  Biso   1.000  C
  C37      1.0000 0.85650  0.59900  0.51860  Biso   1.000  C
  C38      1.0000 0.35650  0.09900  0.51860  Biso   1.000  C
  C39      1.0000 0.14350  0.59900  0.98140  Biso   1.000  C
  C40      1.0000 0.64350  0.09900  0.98140  Biso   1.000  C
  C41      1.0000 0.12875  0.55860  0.45280  Biso   1.000  C
  C42      1.0000 0.62875  0.05860  0.45280  Biso   1.000  C
  C43      1.0000 0.87125  0.55860  0.04720  Biso   1.000  C
  C44      1.0000 0.37125  0.05860  0.04720  Biso   1.000  C
  C45      1.0000 0.87125  0.44140  0.54720  Biso   1.000  C
  C46      1.0000 0.37125  0.94140  0.54720  Biso   1.000  C
  C47      1.0000 0.12875  0.44140  0.95280  Biso   1.000  C
  C48      1.0000 0.62875  0.94140  0.95280  Biso   1.000  C
  C49      1.0000 0.15750  0.68290  0.45950  Biso   1.000  C
  C50      1.0000 0.65750  0.18290  0.45950  Biso   1.000  C
  C51      1.0000 0.84250  0.68290  0.04050  Biso   1.000  C
  C52      1.0000 0.34250  0.18290  0.04050  Biso   1.000  C
  C53      1.0000 0.84250  0.31710  0.54050  Biso   1.000  C
  C54      1.0000 0.34250  0.81710  0.54050  Biso   1.000  C
  C55      1.0000 0.15750  0.31710  0.95950  Biso   1.000  C
  C56      1.0000 0.65750  0.81710  0.95950  Biso   1.000  C
  C57      1.0000 0.19680  0.65370  0.48950  Biso   1.000  C
  C58      1.0000 0.69680  0.15370  0.48950  Biso   1.000  C
  C59      1.0000 0.80320  0.65370  0.01050  Biso   1.000  C
  C60      1.0000 0.30320  0.15370  0.01050  Biso   1.000  C
  C61      1.0000 0.80320  0.34630  0.51050  Biso   1.000  C
  C62      1.0000 0.30320  0.84630  0.51050  Biso   1.000  C
  C63      1.0000 0.19680  0.34630  0.98950  Biso   1.000  C
  C64      1.0000 0.69680  0.84630  0.98950  Biso   1.000  C
  H73      1.0000 0.21460  0.73820  0.49200  Biso   1.000  H
  H74      1.0000 0.71460  0.23820  0.49200  Biso   1.000  H
  H75      1.0000 0.78540  0.73820  0.00800  Biso   1.000  H
  H76      1.0000 0.28540  0.23820  0.00800  Biso   1.000  H
  H77      1.0000 0.78540  0.26180  0.50800  Biso   1.000  H
  H78      1.0000 0.28540  0.76180  0.50800  Biso   1.000  H
  H79      1.0000 0.21460  0.26180  0.99200  Biso   1.000  H
  H80      1.0000 0.71460  0.76180  0.99200  Biso   1.000  H
  C65      1.0000 0.20940  0.49700  0.51590  Biso   1.000  C
  C66      1.0000 0.70940  0.99700  0.51590  Biso   1.000  C
  C67      1.0000 0.79060  0.49700  0.98410  Biso   1.000  C
  C68      1.0000 0.29060  0.99700  0.98410  Biso   1.000  C
  C69      1.0000 0.79060  0.50300  0.48410  Biso   1.000  C
  C70      1.0000 0.29060  0.00300  0.48410  Biso   1.000  C
  C71      1.0000 0.20940  0.50300  0.01590  Biso   1.000  C
  C72      1.0000 0.70940  0.00300  0.01590  Biso   1.000  C
  C73      1.0000 0.18370  0.37220  0.51250  Biso   1.000  C
  C74      1.0000 0.68370  0.87220  0.51250  Biso   1.000  C
  C75      1.0000 0.81630  0.37220  0.98750  Biso   1.000  C
  C76      1.0000 0.31630  0.87220  0.98750  Biso   1.000  C
  C77      1.0000 0.81630  0.62780  0.48750  Biso   1.000  C
  C78      1.0000 0.31630  0.12780  0.48750  Biso   1.000  C
  C79      1.0000 0.18370  0.62780  0.01250  Biso   1.000  C
  C80      1.0000 0.68370  0.12780  0.01250  Biso   1.000  C
  H81      1.0000 0.19280  0.26770  0.53080  Biso   1.000  H
  H82      1.0000 0.69280  0.76770  0.53080  Biso   1.000  H
  H83      1.0000 0.80720  0.26770  0.96920  Biso   1.000  H
  H84      1.0000 0.30720  0.76770  0.96920  Biso   1.000  H
  H85      1.0000 0.80720  0.73230  0.46920  Biso   1.000  H
  H86      1.0000 0.30720  0.23230  0.46920  Biso   1.000  H
  H87      1.0000 0.19280  0.73230  0.03080  Biso   1.000  H
  H88      1.0000 0.69280  0.23230  0.03080  Biso   1.000  H
  C81      1.0000 0.95340  0.31250  0.47240  Biso   1.000  C
  C82      1.0000 0.45340  0.81250  0.47240  Biso   1.000  C
  C83      1.0000 0.04660  0.31250  0.02760  Biso   1.000  C
  C84      1.0000 0.54660  0.81250  0.02760  Biso   1.000  C
  C85      1.0000 0.04660  0.68750  0.52760  Biso   1.000  C
  C86      1.0000 0.54660  0.18750  0.52760  Biso   1.000  C
  C87      1.0000 0.95340  0.68750  0.97240  Biso   1.000  C
  C88      1.0000 0.45340  0.18750  0.97240  Biso   1.000  C
  C89      1.0000 0.94020  0.49270  0.45470  Biso   1.000  C
  C90      1.0000 0.44020  0.99270  0.45470  Biso   1.000  C
  C91      1.0000 0.05980  0.49270  0.04530  Biso   1.000  C
  C92      1.0000 0.55980  0.99270  0.04530  Biso   1.000  C
  C93      1.0000 0.05980  0.50730  0.54530  Biso   1.000  C
  C94      1.0000 0.55980  0.00730  0.54530  Biso   1.000  C
  C95      1.0000 0.94020  0.50730  0.95470  Biso   1.000  C
  C96      1.0000 0.44020  0.00730  0.95470  Biso   1.000  C
  H89      1.0000 0.95530  0.54180  0.43740  Biso   1.000  H
  H90      1.0000 0.45530  0.04180  0.43740  Biso   1.000  H
  H91      1.0000 0.04470  0.54180  0.06260  Biso   1.000  H
  H92      1.0000 0.54470  0.04180  0.06260  Biso   1.000  H
  H93      1.0000 0.04470  0.45820  0.56260  Biso   1.000  H
  H94      1.0000 0.54470  0.95820  0.56260  Biso   1.000  H
  H95      1.0000 0.95530  0.45820  0.93740  Biso   1.000  H
  H96      1.0000 0.45530  0.95820  0.93740  Biso   1.000  H
  H97      1.0000 0.94520  0.56050  0.48800  Biso   1.000  H
  H98      1.0000 0.44520  0.06050  0.48800  Biso   1.000  H
  H99      1.0000 0.05480  0.56050  0.01200  Biso   1.000  H
  H100     1.0000 0.55480  0.06050  0.01200  Biso   1.000  H
  H101     1.0000 0.05480  0.43950  0.51200  Biso   1.000  H
  H102     1.0000 0.55480  0.93950  0.51200  Biso   1.000  H
  H103     1.0000 0.94520  0.43950  0.98800  Biso   1.000  H
  H104     1.0000 0.44520  0.93950  0.98800  Biso   1.000  H
  C97      1.0000 0.89730  0.50400  0.41350  Biso   1.000  C
  C98      1.0000 0.39730  0.00400  0.41350  Biso   1.000  C
  C99      1.0000 0.10270  0.50400  0.08650  Biso   1.000  C
  C100     1.0000 0.60270  0.00400  0.08650  Biso   1.000  C
  C101     1.0000 0.10270  0.49600  0.58650  Biso   1.000  C
  C102     1.0000 0.60270  0.99600  0.58650  Biso   1.000  C
  C103     1.0000 0.89730  0.49600  0.91350  Biso   1.000  C
  C104     1.0000 0.39730  0.99600  0.91350  Biso   1.000  C
  H105     1.0000 0.88230  0.44080  0.42850  Biso   1.000  H
  H106     1.0000 0.38230  0.94080  0.42850  Biso   1.000  H
  H107     1.0000 0.11770  0.44080  0.07150  Biso   1.000  H
  H108     1.0000 0.61770  0.94080  0.07150  Biso   1.000  H
  H109     1.0000 0.11770  0.55920  0.57150  Biso   1.000  H
  H110     1.0000 0.61770  0.05920  0.57150  Biso   1.000  H
  H111     1.0000 0.88230  0.55920  0.92850  Biso   1.000  H
  H112     1.0000 0.38230  0.05920  0.92850  Biso   1.000  H
  H113     1.0000 0.88910  0.62330  0.40930  Biso   1.000  H
  H114     1.0000 0.38910  0.12330  0.40930  Biso   1.000  H
  H115     1.0000 0.11090  0.62330  0.09070  Biso   1.000  H
  H116     1.0000 0.61090  0.12330  0.09070  Biso   1.000  H
  H117     1.0000 0.11090  0.37670  0.59070  Biso   1.000  H
  H118     1.0000 0.61090  0.87670  0.59070  Biso   1.000  H
  H119     1.0000 0.88910  0.37670  0.90930  Biso   1.000  H
  H120     1.0000 0.38910  0.87670  0.90930  Biso   1.000  H
  C105     1.0000 0.85860  0.48740  0.31430  Biso   1.000  C
  C106     1.0000 0.35860  0.98740  0.31430  Biso   1.000  C
  C107     1.0000 0.14140  0.48740  0.18570  Biso   1.000  C
  C108     1.0000 0.64140  0.98740  0.18570  Biso   1.000  C
  C109     1.0000 0.14140  0.51260  0.68570  Biso   1.000  C
  C110     1.0000 0.64140  0.01260  0.68570  Biso   1.000  C
  C111     1.0000 0.85860  0.51260  0.81430  Biso   1.000  C
  C112     1.0000 0.35860  0.01260  0.81430  Biso   1.000  C
  H121     1.0000 0.84270  0.56310  0.32150  Biso   1.000  H
  H122     1.0000 0.34270  0.06310  0.32150  Biso   1.000  H
  H123     1.0000 0.15730  0.56310  0.17850  Biso   1.000  H
  H124     1.0000 0.65730  0.06310  0.17850  Biso   1.000  H
  H125     1.0000 0.15730  0.43690  0.67850  Biso   1.000  H
  H126     1.0000 0.65730  0.93690  0.67850  Biso   1.000  H
  H127     1.0000 0.84270  0.43690  0.82150  Biso   1.000  H
  H128     1.0000 0.34270  0.93690  0.82150  Biso   1.000  H
  C113     1.0000 0.84640  0.44350  0.25610  Biso   1.000  C
  C114     1.0000 0.34640  0.94350  0.25610  Biso   1.000  C
  C115     1.0000 0.15360  0.44350  0.24390  Biso   1.000  C
  C116     1.0000 0.65360  0.94350  0.24390  Biso   1.000  C
  C117     1.0000 0.15360  0.55650  0.74390  Biso   1.000  C
  C118     1.0000 0.65360  0.05650  0.74390  Biso   1.000  C
  C119     1.0000 0.84640  0.55650  0.75610  Biso   1.000  C
  C120     1.0000 0.34640  0.05650  0.75610  Biso   1.000  C
  C121     1.0000 0.87080  0.34670  0.23970  Biso   1.000  C
  C122     1.0000 0.37080  0.84670  0.23970  Biso   1.000  C
  C123     1.0000 0.12920  0.34670  0.26030  Biso   1.000  C
  C124     1.0000 0.62920  0.84670  0.26030  Biso   1.000  C
  C125     1.0000 0.12920  0.65330  0.76030  Biso   1.000  C
  C126     1.0000 0.62920  0.15330  0.76030  Biso   1.000  C
  C127     1.0000 0.87080  0.65330  0.73970  Biso   1.000  C
  C128     1.0000 0.37080  0.15330  0.73970  Biso   1.000  C
  C129     1.0000 0.85770  0.33010  0.18060  Biso   1.000  C
  C130     1.0000 0.35770  0.83010  0.18060  Biso   1.000  C
  C131     1.0000 0.14230  0.33010  0.31940  Biso   1.000  C
  C132     1.0000 0.64230  0.83010  0.31940  Biso   1.000  C
  C133     1.0000 0.14230  0.66990  0.81940  Biso   1.000  C
  C134     1.0000 0.64230  0.16990  0.81940  Biso   1.000  C
  C135     1.0000 0.85770  0.66990  0.68060  Biso   1.000  C
  C136     1.0000 0.35770  0.16990  0.68060  Biso   1.000  C
  C137     1.0000 0.82300  0.39690  0.14150  Biso   1.000  C
  C138     1.0000 0.32300  0.89690  0.14150  Biso   1.000  C
  C139     1.0000 0.17700  0.39690  0.35850  Biso   1.000  C
  C140     1.0000 0.67700  0.89690  0.35850  Biso   1.000  C
  C141     1.0000 0.17700  0.60310  0.85850  Biso   1.000  C
  C142     1.0000 0.67700  0.10310  0.85850  Biso   1.000  C
  C143     1.0000 0.82300  0.60310  0.64150  Biso   1.000  C
  C144     1.0000 0.32300  0.10310  0.64150  Biso   1.000  C
  H129     1.0000 0.81520  0.38200  0.10310  Biso   1.000  H
  H130     1.0000 0.31520  0.88200  0.10310  Biso   1.000  H
  H131     1.0000 0.18480  0.38200  0.39690  Biso   1.000  H
  H132     1.0000 0.68480  0.88200  0.39690  Biso   1.000  H
  H133     1.0000 0.18480  0.61800  0.89690  Biso   1.000  H
  H134     1.0000 0.68480  0.11800  0.89690  Biso   1.000  H
  H135     1.0000 0.81520  0.61800  0.60310  Biso   1.000  H
  H136     1.0000 0.31520  0.11800  0.60310  Biso   1.000  H
  C145     1.0000 0.79970  0.48600  0.15920  Biso   1.000  C
  C146     1.0000 0.29970  0.98600  0.15920  Biso   1.000  C
  C147     1.0000 0.20030  0.48600  0.34080  Biso   1.000  C
  C148     1.0000 0.70030  0.98600  0.34080  Biso   1.000  C
  C149     1.0000 0.20030  0.51400  0.84080  Biso   1.000  C
  C150     1.0000 0.70030  0.01400  0.84080  Biso   1.000  C
  C151     1.0000 0.79970  0.51400  0.65920  Biso   1.000  C
  C152     1.0000 0.29970  0.01400  0.65920  Biso   1.000  C
  C153     1.0000 0.81130  0.51140  0.21570  Biso   1.000  C
  C154     1.0000 0.31130  0.01140  0.21570  Biso   1.000  C
  C155     1.0000 0.18870  0.51140  0.28430  Biso   1.000  C
  C156     1.0000 0.68870  0.01140  0.28430  Biso   1.000  C
  C157     1.0000 0.18870  0.48860  0.78430  Biso   1.000  C
  C158     1.0000 0.68870  0.98860  0.78430  Biso   1.000  C
  C159     1.0000 0.81130  0.48860  0.71570  Biso   1.000  C
  C160     1.0000 0.31130  0.98860  0.71570  Biso   1.000  C
  H137     1.0000 0.79560  0.57460  0.22710  Biso   1.000  H
  H138     1.0000 0.29560  0.07460  0.22710  Biso   1.000  H
  H139     1.0000 0.20440  0.57460  0.27290  Biso   1.000  H
  H140     1.0000 0.70440  0.07460  0.27290  Biso   1.000  H
  H141     1.0000 0.20440  0.42540  0.77290  Biso   1.000  H
  H142     1.0000 0.70440  0.92540  0.77290  Biso   1.000  H
  H143     1.0000 0.79560  0.42540  0.72710  Biso   1.000  H
  H144     1.0000 0.29560  0.92540  0.72710  Biso   1.000  H
  C161     1.0000 0.98480  0.65070  0.32160  Biso   1.000  C
  C162     1.0000 0.48480  0.15070  0.32160  Biso   1.000  C
  C163     1.0000 0.01520  0.65070  0.17840  Biso   1.000  C
  C164     1.0000 0.51520  0.15070  0.17840  Biso   1.000  C
  C165     1.0000 0.01520  0.34930  0.67840  Biso   1.000  C
  C166     1.0000 0.51520  0.84930  0.67840  Biso   1.000  C
  C167     1.0000 0.98480  0.34930  0.82160  Biso   1.000  C
  C168     1.0000 0.48480  0.84930  0.82160  Biso   1.000  C
  C169     1.0000 0.96720  0.77000  0.27150  Biso   1.000  C
  C170     1.0000 0.46720  0.27000  0.27150  Biso   1.000  C
  C171     1.0000 0.03280  0.77000  0.22850  Biso   1.000  C
  C172     1.0000 0.53280  0.27000  0.22850  Biso   1.000  C
  C173     1.0000 0.03280  0.23000  0.72850  Biso   1.000  C
  C174     1.0000 0.53280  0.73000  0.72850  Biso   1.000  C
  C175     1.0000 0.96720  0.23000  0.77150  Biso   1.000  C
  C176     1.0000 0.46720  0.73000  0.77150  Biso   1.000  C
  H145     1.0000 0.97160  0.88830  0.28490  Biso   1.000  H
  H146     1.0000 0.47160  0.38830  0.28490  Biso   1.000  H
  H147     1.0000 0.02840  0.88830  0.21510  Biso   1.000  H
  H148     1.0000 0.52840  0.38830  0.21510  Biso   1.000  H
  H149     1.0000 0.02840  0.11170  0.71510  Biso   1.000  H
  H150     1.0000 0.52840  0.61170  0.71510  Biso   1.000  H
  H151     1.0000 0.97160  0.11170  0.78490  Biso   1.000  H
  H152     1.0000 0.47160  0.61170  0.78490  Biso   1.000  H
  H153     1.0000 0.98040  0.75390  0.24830  Biso   1.000  H
  H154     1.0000 0.48040  0.25390  0.24830  Biso   1.000  H
  H155     1.0000 0.01960  0.75390  0.25170  Biso   1.000  H
  H156     1.0000 0.51960  0.25390  0.25170  Biso   1.000  H
  H157     1.0000 0.01960  0.24610  0.75170  Biso   1.000  H
  H158     1.0000 0.51960  0.74610  0.75170  Biso   1.000  H
  H159     1.0000 0.98040  0.24610  0.74830  Biso   1.000  H
  H160     1.0000 0.48040  0.74610  0.74830  Biso   1.000  H
  C177     1.0000 0.95560  0.61010  0.26100  Biso   1.000  C
  C178     1.0000 0.45560  0.11010  0.26100  Biso   1.000  C
  C179     1.0000 0.04440  0.61010  0.23900  Biso   1.000  C
  C180     1.0000 0.54440  0.11010  0.23900  Biso   1.000  C
  C181     1.0000 0.04440  0.38990  0.73900  Biso   1.000  C
  C182     1.0000 0.54440  0.88990  0.73900  Biso   1.000  C
  C183     1.0000 0.95560  0.38990  0.76100  Biso   1.000  C
  C184     1.0000 0.45560  0.88990  0.76100  Biso   1.000  C
  H161     1.0000 0.96930  0.60030  0.23820  Biso   1.000  H
  H162     1.0000 0.46930  0.10030  0.23820  Biso   1.000  H
  H163     1.0000 0.03070  0.60030  0.26180  Biso   1.000  H
  H164     1.0000 0.53070  0.10030  0.26180  Biso   1.000  H
  H165     1.0000 0.03070  0.39970  0.76180  Biso   1.000  H
  H166     1.0000 0.53070  0.89970  0.76180  Biso   1.000  H
  H167     1.0000 0.96930  0.39970  0.73820  Biso   1.000  H
  H168     1.0000 0.46930  0.89970  0.73820  Biso   1.000  H
  H169     1.0000 0.94350  0.50000  0.26000  Biso   1.000  H
  H170     1.0000 0.44350  0.00000  0.26000  Biso   1.000  H
  H171     1.0000 0.05650  0.50000  0.24000  Biso   1.000  H
  H172     1.0000 0.55650  0.00000  0.24000  Biso   1.000  H
  H173     1.0000 0.05650  0.50000  0.74000  Biso   1.000  H
  H174     1.0000 0.55650  0.00000  0.74000  Biso   1.000  H
  H175     1.0000 0.94350  0.50000  0.76000  Biso   1.000  H
  H176     1.0000 0.44350  0.00000  0.76000  Biso   1.000  H
  C185     1.0000 0.92490  0.74380  0.23630  Biso   1.000  C
  C186     1.0000 0.42490  0.24380  0.23630  Biso   1.000  C
  C187     1.0000 0.07510  0.74380  0.26370  Biso   1.000  C
  C188     1.0000 0.57510  0.24380  0.26370  Biso   1.000  C
  C189     1.0000 0.07510  0.25620  0.76370  Biso   1.000  C
  C190     1.0000 0.57510  0.75620  0.76370  Biso   1.000  C
  C191     1.0000 0.92490  0.25620  0.73630  Biso   1.000  C
  C192     1.0000 0.42490  0.75620  0.73630  Biso   1.000  C
  H177     1.0000 0.91660  0.79980  0.20000  Biso   1.000  H
  H178     1.0000 0.41660  0.29980  0.20000  Biso   1.000  H
  H179     1.0000 0.08340  0.79980  0.30000  Biso   1.000  H
  H180     1.0000 0.58340  0.29980  0.30000  Biso   1.000  H
  H181     1.0000 0.08340  0.20020  0.80000  Biso   1.000  H
  H182     1.0000 0.58340  0.70020  0.80000  Biso   1.000  H
  H183     1.0000 0.91660  0.20020  0.70000  Biso   1.000  H
  H184     1.0000 0.41660  0.70020  0.70000  Biso   1.000  H
  H185     1.0000 0.91940  0.62190  0.22970  Biso   1.000  H
  H186     1.0000 0.41940  0.12190  0.22970  Biso   1.000  H
  H187     1.0000 0.08060  0.62190  0.27030  Biso   1.000  H
  H188     1.0000 0.58060  0.12190  0.27030  Biso   1.000  H
  H189     1.0000 0.08060  0.37810  0.77030  Biso   1.000  H
  H190     1.0000 0.58060  0.87810  0.77030  Biso   1.000  H
  H191     1.0000 0.91940  0.37810  0.72970  Biso   1.000  H
  H192     1.0000 0.41940  0.87810  0.72970  Biso   1.000  H
  H193     1.0000 0.93940  0.83990  0.23190  Biso   1.000  H
  H194     1.0000 0.43940  0.33990  0.23190  Biso   1.000  H
  H195     1.0000 0.06060  0.83990  0.26810  Biso   1.000  H
  H196     1.0000 0.56060  0.33990  0.26810  Biso   1.000  H
  H197     1.0000 0.06060  0.16010  0.76810  Biso   1.000  H
  H198     1.0000 0.56060  0.66010  0.76810  Biso   1.000  H
  H199     1.0000 0.93940  0.16010  0.73190  Biso   1.000  H
  H200     1.0000 0.43940  0.66010  0.73190  Biso   1.000  H
  H201     1.0000 0.90520  0.71570  0.19850  Biso   1.000  H
  H202     1.0000 0.40520  0.21570  0.19850  Biso   1.000  H
  H203     1.0000 0.09480  0.71570  0.30150  Biso   1.000  H
  H204     1.0000 0.59480  0.21570  0.30150  Biso   1.000  H
  H205     1.0000 0.09480  0.28430  0.80150  Biso   1.000  H
  H206     1.0000 0.59480  0.78430  0.80150  Biso   1.000  H
  H207     1.0000 0.90520  0.28430  0.69850  Biso   1.000  H
  H208     1.0000 0.40520  0.78430  0.69850  Biso   1.000  H
  C193     1.0000 0.86950  0.86680  0.23430  Biso   1.000  C
  C194     1.0000 0.36950  0.36680  0.23430  Biso   1.000  C
  C195     1.0000 0.13050  0.86680  0.26570  Biso   1.000  C
  C196     1.0000 0.63050  0.36680  0.26570  Biso   1.000  C
  C197     1.0000 0.13050  0.13320  0.76570  Biso   1.000  C
  C198     1.0000 0.63050  0.63320  0.76570  Biso   1.000  C
  C199     1.0000 0.86950  0.13320  0.73430  Biso   1.000  C
  C200     1.0000 0.36950  0.63320  0.73430  Biso   1.000  C
  H209     1.0000 0.86010  0.85490  0.19550  Biso   1.000  H
  H210     1.0000 0.36010  0.35490  0.19550  Biso   1.000  H
  H211     1.0000 0.13990  0.85490  0.30450  Biso   1.000  H
  H212     1.0000 0.63990  0.35490  0.30450  Biso   1.000  H
  H213     1.0000 0.13990  0.14510  0.80450  Biso   1.000  H
  H214     1.0000 0.63990  0.64510  0.80450  Biso   1.000  H
  H215     1.0000 0.86010  0.14510  0.69550  Biso   1.000  H
  H216     1.0000 0.36010  0.64510  0.69550  Biso   1.000  H
  C201     1.0000 0.84310  0.94220  0.25290  Biso   1.000  C
  C202     1.0000 0.34310  0.44220  0.25290  Biso   1.000  C
  C203     1.0000 0.15690  0.94220  0.24710  Biso   1.000  C
  C204     1.0000 0.65690  0.44220  0.24710  Biso   1.000  C
  C205     1.0000 0.15690  0.05780  0.74710  Biso   1.000  C
  C206     1.0000 0.65690  0.55780  0.74710  Biso   1.000  C
  C207     1.0000 0.84310  0.05780  0.75290  Biso   1.000  C
  C208     1.0000 0.34310  0.55780  0.75290  Biso   1.000  C
  C209     1.0000 0.85510  0.97810  0.31070  Biso   1.000  C
  C210     1.0000 0.35510  0.47810  0.31070  Biso   1.000  C
  C211     1.0000 0.14490  0.97810  0.18930  Biso   1.000  C
  C212     1.0000 0.64490  0.47810  0.18930  Biso   1.000  C
  C213     1.0000 0.14490  0.02190  0.68930  Biso   1.000  C
  C214     1.0000 0.64490  0.52190  0.68930  Biso   1.000  C
  C215     1.0000 0.85510  0.02190  0.81070  Biso   1.000  C
  C216     1.0000 0.35510  0.52190  0.81070  Biso   1.000  C
  C217     1.0000 0.82660  0.05370  0.32330  Biso   1.000  C
  C218     1.0000 0.32660  0.55370  0.32330  Biso   1.000  C
  C219     1.0000 0.17340  0.05370  0.17670  Biso   1.000  C
  C220     1.0000 0.67340  0.55370  0.17670  Biso   1.000  C
  C221     1.0000 0.17340  0.94630  0.67670  Biso   1.000  C
  C222     1.0000 0.67340  0.44630  0.67670  Biso   1.000  C
  C223     1.0000 0.82660  0.94630  0.82330  Biso   1.000  C
  C224     1.0000 0.32660  0.44630  0.82330  Biso   1.000  C
  C225     1.0000 0.79000  0.09400  0.28320  Biso   1.000  C
  C226     1.0000 0.29000  0.59400  0.28320  Biso   1.000  C
  C227     1.0000 0.21000  0.09400  0.21680  Biso   1.000  C
  C228     1.0000 0.71000  0.59400  0.21680  Biso   1.000  C
  C229     1.0000 0.21000  0.90600  0.71680  Biso   1.000  C
  C230     1.0000 0.71000  0.40600  0.71680  Biso   1.000  C
  C231     1.0000 0.79000  0.90600  0.78320  Biso   1.000  C
  C232     1.0000 0.29000  0.40600  0.78320  Biso   1.000  C
  H217     1.0000 0.77200  0.14280  0.29340  Biso   1.000  H
  H218     1.0000 0.27200  0.64280  0.29340  Biso   1.000  H
  H219     1.0000 0.22800  0.14280  0.20660  Biso   1.000  H
  H220     1.0000 0.72800  0.64280  0.20660  Biso   1.000  H
  H221     1.0000 0.22800  0.85720  0.70660  Biso   1.000  H
  H222     1.0000 0.72800  0.35720  0.70660  Biso   1.000  H
  H223     1.0000 0.77200  0.85720  0.79340  Biso   1.000  H
  H224     1.0000 0.27200  0.35720  0.79340  Biso   1.000  H
  C233     1.0000 0.77990  0.06070  0.22690  Biso   1.000  C
  C234     1.0000 0.27990  0.56070  0.22690  Biso   1.000  C
  C235     1.0000 0.22010  0.06070  0.27310  Biso   1.000  C
  C236     1.0000 0.72010  0.56070  0.27310  Biso   1.000  C
  C237     1.0000 0.22010  0.93930  0.77310  Biso   1.000  C
  C238     1.0000 0.72010  0.43930  0.77310  Biso   1.000  C
  C239     1.0000 0.77990  0.93930  0.72690  Biso   1.000  C
  C240     1.0000 0.27990  0.43930  0.72690  Biso   1.000  C
  C241     1.0000 0.80540  0.98510  0.21190  Biso   1.000  C
  C242     1.0000 0.30540  0.48510  0.21190  Biso   1.000  C
  C243     1.0000 0.19460  0.98510  0.28810  Biso   1.000  C
  C244     1.0000 0.69460  0.48510  0.28810  Biso   1.000  C
  C245     1.0000 0.19460  0.01490  0.78810  Biso   1.000  C
  C246     1.0000 0.69460  0.51490  0.78810  Biso   1.000  C
  C247     1.0000 0.80540  0.01490  0.71190  Biso   1.000  C
  C248     1.0000 0.30540  0.51490  0.71190  Biso   1.000  C
  H225     1.0000 0.79790  0.96120  0.17410  Biso   1.000  H
  H226     1.0000 0.29790  0.46120  0.17410  Biso   1.000  H
  H227     1.0000 0.20210  0.96120  0.32590  Biso   1.000  H
  H228     1.0000 0.70210  0.46120  0.32590  Biso   1.000  H
  H229     1.0000 0.20210  0.03880  0.82590  Biso   1.000  H
  H230     1.0000 0.70210  0.53880  0.82590  Biso   1.000  H
  H231     1.0000 0.79790  0.03880  0.67410  Biso   1.000  H
  H232     1.0000 0.29790  0.53880  0.67410  Biso   1.000  H
