data_image0
_cell_length_a       17.6118
_cell_length_b       40.745
_cell_length_c       17.3334
_cell_angle_alpha    90
_cell_angle_beta     91.383
_cell_angle_gamma    90

_symmetry_space_group_name_H-M    "P 1"
_symmetry_int_tables_number       1

loop_
  _symmetry_equiv_pos_as_xyz
  'x, y, z'

loop_
  _atom_site_label
  _atom_site_occupancy
  _atom_site_fract_x
  _atom_site_fract_y
  _atom_site_fract_z
  _atom_site_thermal_displace_type
  _atom_site_B_iso_or_equiv
  _atom_site_type_symbol
  Cu1      1.0000 0.00000  0.00000  0.00000  Biso   1.000  Cu
  Cu2      1.0000 0.00000  0.50000  0.50000  Biso   1.000  Cu
  Cu3      1.0000 0.16057  0.00704  0.07425  Biso   1.000  Cu
  Cu4      1.0000 0.83943  0.50704  0.42575  Biso   1.000  Cu
  Cu5      1.0000 0.83943  0.99296  0.92575  Biso   1.000  Cu
  Cu6      1.0000 0.16057  0.49296  0.57425  Biso   1.000  Cu
  Cu7      1.0000 0.43059  0.00173  0.02707  Biso   1.000  Cu
  Cu8      1.0000 0.56941  0.50173  0.47293  Biso   1.000  Cu
  Cu9      1.0000 0.56941  0.99827  0.97293  Biso   1.000  Cu
  Cu10     1.0000 0.43059  0.49827  0.52707  Biso   1.000  Cu
  P1       1.0000 0.14982  0.99739  0.89140  Biso   1.000  P
  P2       1.0000 0.85018  0.49739  0.60860  Biso   1.000  P
  P3       1.0000 0.85018  0.00261  0.10860  Biso   1.000  P
  P4       1.0000 0.14982  0.50261  0.39140  Biso   1.000  P
  N1       1.0000 0.10760  0.01038  0.96960  Biso   1.000  N
  N2       1.0000 0.89240  0.51038  0.53040  Biso   1.000  N
  N3       1.0000 0.89240  0.98962  0.03040  Biso   1.000  N
  N4       1.0000 0.10760  0.48962  0.46960  Biso   1.000  N
  H1       1.0000 0.10400  0.02800  0.96800  Biso   1.000  H
  H2       1.0000 0.89600  0.52800  0.53200  Biso   1.000  H
  H3       1.0000 0.89600  0.97200  0.03200  Biso   1.000  H
  H4       1.0000 0.10400  0.47200  0.46800  Biso   1.000  H
  O1       1.0000 0.02510  0.95678  0.04530  Biso   1.000  O
  O2       1.0000 0.97490  0.45678  0.45470  Biso   1.000  O
  O3       1.0000 0.97490  0.04322  0.95470  Biso   1.000  O
  O4       1.0000 0.02510  0.54322  0.54530  Biso   1.000  O
  O5       1.0000 0.14770  0.95957  0.08300  Biso   1.000  O
  O6       1.0000 0.85230  0.45957  0.41700  Biso   1.000  O
  O7       1.0000 0.85230  0.04043  0.91700  Biso   1.000  O
  O8       1.0000 0.14770  0.54043  0.58300  Biso   1.000  O
  O9       1.0000 0.14780  0.05478  0.08750  Biso   1.000  O
  O10      1.0000 0.85220  0.55478  0.41250  Biso   1.000  O
  O11      1.0000 0.85220  0.94522  0.91250  Biso   1.000  O
  O12      1.0000 0.14780  0.44522  0.58750  Biso   1.000  O
  O13      1.0000 0.03830  0.03291  0.12060  Biso   1.000  O
  O14      1.0000 0.96170  0.53291  0.37940  Biso   1.000  O
  O15      1.0000 0.96170  0.96709  0.87940  Biso   1.000  O
  O16      1.0000 0.03830  0.46709  0.62060  Biso   1.000  O
  O17      1.0000 0.22900  0.00526  0.16380  Biso   1.000  O
  O18      1.0000 0.77100  0.50526  0.33620  Biso   1.000  O
  O19      1.0000 0.77100  0.99474  0.83620  Biso   1.000  O
  O20      1.0000 0.22900  0.49474  0.66380  Biso   1.000  O
  O21      1.0000 0.31720  0.00608  0.07470  Biso   1.000  O
  O22      1.0000 0.68280  0.50608  0.42530  Biso   1.000  O
  O23      1.0000 0.68280  0.99392  0.92530  Biso   1.000  O
  O24      1.0000 0.31720  0.49392  0.57470  Biso   1.000  O
  O25      1.0000 0.41580  0.03532  0.94710  Biso   1.000  O
  O26      1.0000 0.58420  0.53532  0.55290  Biso   1.000  O
  O27      1.0000 0.58420  0.96468  0.05290  Biso   1.000  O
  O28      1.0000 0.41580  0.46468  0.44710  Biso   1.000  O
  O29      1.0000 0.46650  0.96681  0.09700  Biso   1.000  O
  O30      1.0000 0.53350  0.46681  0.40300  Biso   1.000  O
  O31      1.0000 0.53350  0.03319  0.90300  Biso   1.000  O
  O32      1.0000 0.46650  0.53319  0.59700  Biso   1.000  O
  O33      1.0000 0.48020  0.03542  0.09230  Biso   1.000  O
  O34      1.0000 0.51980  0.53542  0.40770  Biso   1.000  O
  O35      1.0000 0.51980  0.96458  0.90770  Biso   1.000  O
  O36      1.0000 0.48020  0.46458  0.59230  Biso   1.000  O
  O37      1.0000 0.40210  0.96734  0.95190  Biso   1.000  O
  O38      1.0000 0.59790  0.46734  0.54810  Biso   1.000  O
  O39      1.0000 0.59790  0.03266  0.04810  Biso   1.000  O
  O40      1.0000 0.40210  0.53266  0.45190  Biso   1.000  O
  C1       1.0000 0.08530  0.94448  0.07270  Biso   1.000  C
  C2       1.0000 0.91470  0.44448  0.42730  Biso   1.000  C
  C3       1.0000 0.91470  0.05552  0.92730  Biso   1.000  C
  C4       1.0000 0.08530  0.55552  0.57270  Biso   1.000  C
  C5       1.0000 0.08260  0.90873  0.09430  Biso   1.000  C
  C6       1.0000 0.91740  0.40873  0.40570  Biso   1.000  C
  C7       1.0000 0.91740  0.09127  0.90570  Biso   1.000  C
  C8       1.0000 0.08260  0.59127  0.59430  Biso   1.000  C
  H5       1.0000 0.05920  0.90640  0.14470  Biso   1.000  H
  H6       1.0000 0.94080  0.40640  0.35530  Biso   1.000  H
  H7       1.0000 0.94080  0.09360  0.85530  Biso   1.000  H
  H8       1.0000 0.05920  0.59360  0.64470  Biso   1.000  H
  H9       1.0000 0.13430  0.89990  0.09690  Biso   1.000  H
  H10      1.0000 0.86570  0.39990  0.40310  Biso   1.000  H
  H11      1.0000 0.86570  0.10010  0.90310  Biso   1.000  H
  H12      1.0000 0.13430  0.60010  0.59690  Biso   1.000  H
  H13      1.0000 0.05250  0.89670  0.05530  Biso   1.000  H
  H14      1.0000 0.94750  0.39670  0.44470  Biso   1.000  H
  H15      1.0000 0.94750  0.10330  0.94470  Biso   1.000  H
  H16      1.0000 0.05250  0.60330  0.55530  Biso   1.000  H
  C9       1.0000 0.08070  0.05704  0.11370  Biso   1.000  C
  C10      1.0000 0.91930  0.55704  0.38630  Biso   1.000  C
  C11      1.0000 0.91930  0.94296  0.88630  Biso   1.000  C
  C12      1.0000 0.08070  0.44296  0.61370  Biso   1.000  C
  C13      1.0000 0.05390  0.09083  0.13520  Biso   1.000  C
  C14      1.0000 0.94610  0.59083  0.36480  Biso   1.000  C
  C15      1.0000 0.94610  0.90917  0.86480  Biso   1.000  C
  C16      1.0000 0.05390  0.40917  0.63520  Biso   1.000  C
  H17      1.0000 0.01870  0.08920  0.17800  Biso   1.000  H
  H18      1.0000 0.98130  0.58920  0.32200  Biso   1.000  H
  H19      1.0000 0.98130  0.91080  0.82200  Biso   1.000  H
  H20      1.0000 0.01870  0.41080  0.67800  Biso   1.000  H
  H21      1.0000 0.02790  0.10090  0.09060  Biso   1.000  H
  H22      1.0000 0.97210  0.60090  0.40940  Biso   1.000  H
  H23      1.0000 0.97210  0.89910  0.90940  Biso   1.000  H
  H24      1.0000 0.02790  0.39910  0.59060  Biso   1.000  H
  H25      1.0000 0.09760  0.10430  0.15100  Biso   1.000  H
  H26      1.0000 0.90240  0.60430  0.34900  Biso   1.000  H
  H27      1.0000 0.90240  0.89570  0.84900  Biso   1.000  H
  H28      1.0000 0.09760  0.39570  0.65100  Biso   1.000  H
  C17      1.0000 0.29700  0.00627  0.14350  Biso   1.000  C
  C18      1.0000 0.70300  0.50627  0.35650  Biso   1.000  C
  C19      1.0000 0.70300  0.99373  0.85650  Biso   1.000  C
  C20      1.0000 0.29700  0.49373  0.64350  Biso   1.000  C
  C21      1.0000 0.35690  0.00692  0.20920  Biso   1.000  C
  C22      1.0000 0.64310  0.50692  0.29080  Biso   1.000  C
  C23      1.0000 0.64310  0.99308  0.79080  Biso   1.000  C
  C24      1.0000 0.35690  0.49308  0.70920  Biso   1.000  C
  H29      1.0000 0.34060  0.02200  0.24960  Biso   1.000  H
  H30      1.0000 0.65940  0.52200  0.25040  Biso   1.000  H
  H31      1.0000 0.65940  0.97800  0.75040  Biso   1.000  H
  H32      1.0000 0.34060  0.47800  0.74960  Biso   1.000  H
  H33      1.0000 0.40550  0.01440  0.18920  Biso   1.000  H
  H34      1.0000 0.59450  0.51440  0.31080  Biso   1.000  H
  H35      1.0000 0.59450  0.98560  0.81080  Biso   1.000  H
  H36      1.0000 0.40550  0.48560  0.68920  Biso   1.000  H
  H37      1.0000 0.36290  0.98480  0.23080  Biso   1.000  H
  H38      1.0000 0.63710  0.48480  0.26920  Biso   1.000  H
  H39      1.0000 0.63710  0.01520  0.76920  Biso   1.000  H
  H40      1.0000 0.36290  0.51520  0.73080  Biso   1.000  H
  C25      1.0000 0.46750  0.04477  0.90380  Biso   1.000  C
  C26      1.0000 0.53250  0.54477  0.59620  Biso   1.000  C
  C27      1.0000 0.53250  0.95523  0.09620  Biso   1.000  C
  C28      1.0000 0.46750  0.45523  0.40380  Biso   1.000  C
  C29      1.0000 0.44790  0.07178  0.84750  Biso   1.000  C
  C30      1.0000 0.55210  0.57178  0.65250  Biso   1.000  C
  C31      1.0000 0.55210  0.92822  0.15250  Biso   1.000  C
  C32      1.0000 0.44790  0.42822  0.34750  Biso   1.000  C
  H41      1.0000 0.49450  0.08300  0.83250  Biso   1.000  H
  H42      1.0000 0.50550  0.58300  0.66750  Biso   1.000  H
  H43      1.0000 0.50550  0.91700  0.16750  Biso   1.000  H
  H44      1.0000 0.49450  0.41700  0.33250  Biso   1.000  H
  H45      1.0000 0.41380  0.08750  0.87170  Biso   1.000  H
  H46      1.0000 0.58620  0.58750  0.62830  Biso   1.000  H
  H47      1.0000 0.58620  0.91250  0.12830  Biso   1.000  H
  H48      1.0000 0.41380  0.41250  0.37170  Biso   1.000  H
  H49      1.0000 0.42280  0.06240  0.80150  Biso   1.000  H
  H50      1.0000 0.57720  0.56240  0.69850  Biso   1.000  H
  H51      1.0000 0.57720  0.93760  0.19850  Biso   1.000  H
  H52      1.0000 0.42280  0.43760  0.30150  Biso   1.000  H
  C33      1.0000 0.54760  0.04481  0.08980  Biso   1.000  C
  C34      1.0000 0.45240  0.54481  0.41020  Biso   1.000  C
  C35      1.0000 0.45240  0.95519  0.91020  Biso   1.000  C
  C36      1.0000 0.54760  0.45519  0.58980  Biso   1.000  C
  C37      1.0000 0.57090  0.07323  0.14060  Biso   1.000  C
  C38      1.0000 0.42910  0.57323  0.35940  Biso   1.000  C
  C39      1.0000 0.42910  0.92677  0.85940  Biso   1.000  C
  C40      1.0000 0.57090  0.42677  0.64060  Biso   1.000  C
  H53      1.0000 0.62600  0.07620  0.13880  Biso   1.000  H
  H54      1.0000 0.37400  0.57620  0.36120  Biso   1.000  H
  H55      1.0000 0.37400  0.92380  0.86120  Biso   1.000  H
  H56      1.0000 0.62600  0.42380  0.63880  Biso   1.000  H
  H57      1.0000 0.55640  0.06870  0.19380  Biso   1.000  H
  H58      1.0000 0.44360  0.56870  0.30620  Biso   1.000  H
  H59      1.0000 0.44360  0.93130  0.80620  Biso   1.000  H
  H60      1.0000 0.55640  0.43130  0.69380  Biso   1.000  H
  H61      1.0000 0.54540  0.09320  0.12220  Biso   1.000  H
  H62      1.0000 0.45460  0.59320  0.37780  Biso   1.000  H
  H63      1.0000 0.45460  0.90680  0.87780  Biso   1.000  H
  H64      1.0000 0.54540  0.40680  0.62220  Biso   1.000  H
  C41      1.0000 0.09740  0.00735  0.80460  Biso   1.000  C
  C42      1.0000 0.90260  0.50735  0.69540  Biso   1.000  C
  C43      1.0000 0.90260  0.99265  0.19540  Biso   1.000  C
  C44      1.0000 0.09740  0.49265  0.30460  Biso   1.000  C
  H65      1.0000 0.11730  0.99380  0.76210  Biso   1.000  H
  H66      1.0000 0.88270  0.49380  0.73790  Biso   1.000  H
  H67      1.0000 0.88270  0.00620  0.23790  Biso   1.000  H
  H68      1.0000 0.11730  0.50620  0.26210  Biso   1.000  H
  H69      1.0000 0.04370  0.00090  0.81140  Biso   1.000  H
  H70      1.0000 0.95630  0.50090  0.68860  Biso   1.000  H
  H71      1.0000 0.95630  0.99910  0.18860  Biso   1.000  H
  H72      1.0000 0.04370  0.49910  0.31140  Biso   1.000  H
  C45      1.0000 0.09910  0.04288  0.77990  Biso   1.000  C
  C46      1.0000 0.90090  0.54288  0.72010  Biso   1.000  C
  C47      1.0000 0.90090  0.95712  0.22010  Biso   1.000  C
  C48      1.0000 0.09910  0.45712  0.27990  Biso   1.000  C
  H73      1.0000 0.07070  0.04540  0.73090  Biso   1.000  H
  H74      1.0000 0.92930  0.54540  0.76910  Biso   1.000  H
  H75      1.0000 0.92930  0.95460  0.26910  Biso   1.000  H
  H76      1.0000 0.07070  0.45460  0.23090  Biso   1.000  H
  H77      1.0000 0.15180  0.04980  0.77330  Biso   1.000  H
  H78      1.0000 0.84820  0.54980  0.72670  Biso   1.000  H
  H79      1.0000 0.84820  0.95020  0.22670  Biso   1.000  H
  H80      1.0000 0.15180  0.45020  0.27330  Biso   1.000  H
  H81      1.0000 0.07570  0.05650  0.81940  Biso   1.000  H
  H82      1.0000 0.92430  0.55650  0.68060  Biso   1.000  H
  H83      1.0000 0.92430  0.94350  0.18060  Biso   1.000  H
  H84      1.0000 0.07570  0.44350  0.31940  Biso   1.000  H
  C49      1.0000 0.24210  0.01601  0.88700  Biso   1.000  C
  C50      1.0000 0.75790  0.51601  0.61300  Biso   1.000  C
  C51      1.0000 0.75790  0.98399  0.11300  Biso   1.000  C
  C52      1.0000 0.24210  0.48399  0.38700  Biso   1.000  C
  H85      1.0000 0.27780  0.00360  0.92100  Biso   1.000  H
  H86      1.0000 0.72220  0.50360  0.57900  Biso   1.000  H
  H87      1.0000 0.72220  0.99640  0.07900  Biso   1.000  H
  H88      1.0000 0.27780  0.49640  0.42100  Biso   1.000  H
  H89      1.0000 0.26030  0.01430  0.83360  Biso   1.000  H
  H90      1.0000 0.73970  0.51430  0.66640  Biso   1.000  H
  H91      1.0000 0.73970  0.98570  0.16640  Biso   1.000  H
  H92      1.0000 0.26030  0.48570  0.33360  Biso   1.000  H
  C53      1.0000 0.24310  0.05227  0.91120  Biso   1.000  C
  C54      1.0000 0.75690  0.55227  0.58880  Biso   1.000  C
  C55      1.0000 0.75690  0.94773  0.08880  Biso   1.000  C
  C56      1.0000 0.24310  0.44773  0.41120  Biso   1.000  C
  H93      1.0000 0.29430  0.06120  0.90540  Biso   1.000  H
  H94      1.0000 0.70570  0.56120  0.59460  Biso   1.000  H
  H95      1.0000 0.70570  0.93880  0.09460  Biso   1.000  H
  H96      1.0000 0.29430  0.43880  0.40540  Biso   1.000  H
  H97      1.0000 0.22860  0.05410  0.96530  Biso   1.000  H
  H98      1.0000 0.77140  0.55410  0.53470  Biso   1.000  H
  H99      1.0000 0.77140  0.94590  0.03470  Biso   1.000  H
  H100     1.0000 0.22860  0.44590  0.46530  Biso   1.000  H
  H101     1.0000 0.20710  0.06470  0.87860  Biso   1.000  H
  H102     1.0000 0.79290  0.56470  0.62140  Biso   1.000  H
  H103     1.0000 0.79290  0.93530  0.12140  Biso   1.000  H
  H104     1.0000 0.20710  0.43530  0.37860  Biso   1.000  H
  C57      1.0000 0.15890  0.95379  0.89660  Biso   1.000  C
  C58      1.0000 0.84110  0.45379  0.60340  Biso   1.000  C
  C59      1.0000 0.84110  0.04621  0.10340  Biso   1.000  C
  C60      1.0000 0.15890  0.54621  0.39660  Biso   1.000  C
  H105     1.0000 0.18710  0.94800  0.94470  Biso   1.000  H
  H106     1.0000 0.81290  0.44800  0.55530  Biso   1.000  H
  H107     1.0000 0.81290  0.05200  0.05530  Biso   1.000  H
  H108     1.0000 0.18710  0.55200  0.44470  Biso   1.000  H
  H109     1.0000 0.10750  0.94410  0.89960  Biso   1.000  H
  H110     1.0000 0.89250  0.44410  0.60040  Biso   1.000  H
  H111     1.0000 0.89250  0.05590  0.10040  Biso   1.000  H
  H112     1.0000 0.10750  0.55590  0.39960  Biso   1.000  H
  C61      1.0000 0.19930  0.93840  0.82860  Biso   1.000  C
  C62      1.0000 0.80070  0.43840  0.67140  Biso   1.000  C
  C63      1.0000 0.80070  0.06160  0.17140  Biso   1.000  C
  C64      1.0000 0.19930  0.56160  0.32860  Biso   1.000  C
  H113     1.0000 0.19770  0.91440  0.83310  Biso   1.000  H
  H114     1.0000 0.80230  0.41440  0.66690  Biso   1.000  H
  H115     1.0000 0.80230  0.08560  0.16690  Biso   1.000  H
  H116     1.0000 0.19770  0.58560  0.33310  Biso   1.000  H
  H117     1.0000 0.25230  0.94580  0.82880  Biso   1.000  H
  H118     1.0000 0.74770  0.44580  0.67120  Biso   1.000  H
  H119     1.0000 0.74770  0.05420  0.17120  Biso   1.000  H
  H120     1.0000 0.25230  0.55420  0.32880  Biso   1.000  H
  H121     1.0000 0.17390  0.94510  0.78020  Biso   1.000  H
  H122     1.0000 0.82610  0.44510  0.71980  Biso   1.000  H
  H123     1.0000 0.82610  0.05490  0.21980  Biso   1.000  H
  H124     1.0000 0.17390  0.55490  0.28020  Biso   1.000  H
  Cu11     1.0000 0.00000  0.50000  0.00000  Biso   1.000  Cu
  Cu12     1.0000 0.00000  0.00000  0.50000  Biso   1.000  Cu
  Cu13     1.0000 0.16181  0.50727  0.07158  Biso   1.000  Cu
  Cu14     1.0000 0.83819  0.00727  0.42842  Biso   1.000  Cu
  Cu15     1.0000 0.83819  0.49273  0.92842  Biso   1.000  Cu
  Cu16     1.0000 0.16181  0.99273  0.57158  Biso   1.000  Cu
  Cu17     1.0000 0.43102  0.50314  0.02749  Biso   1.000  Cu
  Cu18     1.0000 0.56898  0.00314  0.47251  Biso   1.000  Cu
  Cu19     1.0000 0.56898  0.49686  0.97251  Biso   1.000  Cu
  Cu20     1.0000 0.43102  0.99686  0.52749  Biso   1.000  Cu
  P5       1.0000 0.14777  0.49801  0.88885  Biso   1.000  P
  P6       1.0000 0.85223  0.99801  0.61115  Biso   1.000  P
  P7       1.0000 0.85223  0.50199  0.11115  Biso   1.000  P
  P8       1.0000 0.14777  0.00199  0.38885  Biso   1.000  P
  N5       1.0000 0.10730  0.51070  0.96800  Biso   1.000  N
  N6       1.0000 0.89270  0.01070  0.53200  Biso   1.000  N
  N7       1.0000 0.89270  0.48930  0.03200  Biso   1.000  N
  N8       1.0000 0.10730  0.98930  0.46800  Biso   1.000  N
  H125     1.0000 0.10500  0.52770  0.96500  Biso   1.000  H
  H126     1.0000 0.89500  0.02770  0.53500  Biso   1.000  H
  H127     1.0000 0.89500  0.47230  0.03500  Biso   1.000  H
  H128     1.0000 0.10500  0.97230  0.46500  Biso   1.000  H
  O41      1.0000 0.02700  0.45732  0.04610  Biso   1.000  O
  O42      1.0000 0.97300  0.95732  0.45390  Biso   1.000  O
  O43      1.0000 0.97300  0.54268  0.95390  Biso   1.000  O
  O44      1.0000 0.02700  0.04268  0.54610  Biso   1.000  O
  O45      1.0000 0.15090  0.45970  0.07820  Biso   1.000  O
  O46      1.0000 0.84910  0.95970  0.42180  Biso   1.000  O
  O47      1.0000 0.84910  0.54030  0.92180  Biso   1.000  O
  O48      1.0000 0.15090  0.04030  0.57820  Biso   1.000  O
  O49      1.0000 0.14830  0.55504  0.08600  Biso   1.000  O
  O50      1.0000 0.85170  0.05504  0.41400  Biso   1.000  O
  O51      1.0000 0.85170  0.44496  0.91400  Biso   1.000  O
  O52      1.0000 0.14830  0.94496  0.58600  Biso   1.000  O
  O53      1.0000 0.03990  0.53316  0.12040  Biso   1.000  O
  O54      1.0000 0.96010  0.03316  0.37960  Biso   1.000  O
  O55      1.0000 0.96010  0.46684  0.87960  Biso   1.000  O
  O56      1.0000 0.03990  0.96684  0.62040  Biso   1.000  O
  O57      1.0000 0.22890  0.50618  0.16240  Biso   1.000  O
  O58      1.0000 0.77110  0.00618  0.33760  Biso   1.000  O
  O59      1.0000 0.77110  0.49382  0.83760  Biso   1.000  O
  O60      1.0000 0.22890  0.99382  0.66240  Biso   1.000  O
  O61      1.0000 0.31750  0.50728  0.07410  Biso   1.000  O
  O62      1.0000 0.68250  0.00728  0.42590  Biso   1.000  O
  O63      1.0000 0.68250  0.49272  0.92590  Biso   1.000  O
  O64      1.0000 0.31750  0.99272  0.57410  Biso   1.000  O
  O65      1.0000 0.46570  0.46890  0.10000  Biso   1.000  O
  O66      1.0000 0.53430  0.96890  0.40000  Biso   1.000  O
  O67      1.0000 0.53430  0.53110  0.90000  Biso   1.000  O
  O68      1.0000 0.46570  0.03110  0.60000  Biso   1.000  O
  O69      1.0000 0.41780  0.53600  0.94610  Biso   1.000  O
  O70      1.0000 0.58220  0.03600  0.55390  Biso   1.000  O
  O71      1.0000 0.58220  0.46400  0.05390  Biso   1.000  O
  O72      1.0000 0.41780  0.96400  0.44610  Biso   1.000  O
  O73      1.0000 0.48170  0.53731  0.09080  Biso   1.000  O
  O74      1.0000 0.51830  0.03731  0.40920  Biso   1.000  O
  O75      1.0000 0.51830  0.46269  0.90920  Biso   1.000  O
  O76      1.0000 0.48170  0.96269  0.59080  Biso   1.000  O
  O77      1.0000 0.40150  0.46838  0.95370  Biso   1.000  O
  O78      1.0000 0.59850  0.96838  0.54630  Biso   1.000  O
  O79      1.0000 0.59850  0.53162  0.04630  Biso   1.000  O
  O80      1.0000 0.40150  0.03162  0.45370  Biso   1.000  O
  C65      1.0000 0.08810  0.44524  0.07160  Biso   1.000  C
  C66      1.0000 0.91190  0.94524  0.42840  Biso   1.000  C
  C67      1.0000 0.91190  0.55476  0.92840  Biso   1.000  C
  C68      1.0000 0.08810  0.05476  0.57160  Biso   1.000  C
  C69      1.0000 0.08660  0.40970  0.09490  Biso   1.000  C
  C70      1.0000 0.91340  0.90970  0.40510  Biso   1.000  C
  C71      1.0000 0.91340  0.59030  0.90510  Biso   1.000  C
  C72      1.0000 0.08660  0.09030  0.59490  Biso   1.000  C
  H129     1.0000 0.13710  0.40310  0.11410  Biso   1.000  H
  H130     1.0000 0.86290  0.90310  0.38590  Biso   1.000  H
  H131     1.0000 0.86290  0.59690  0.88590  Biso   1.000  H
  H132     1.0000 0.13710  0.09690  0.61410  Biso   1.000  H
  H133     1.0000 0.07200  0.39620  0.05010  Biso   1.000  H
  H134     1.0000 0.92800  0.89620  0.44990  Biso   1.000  H
  H135     1.0000 0.92800  0.60380  0.94990  Biso   1.000  H
  H136     1.0000 0.07200  0.10380  0.55010  Biso   1.000  H
  H137     1.0000 0.04960  0.40660  0.13560  Biso   1.000  H
  H138     1.0000 0.95040  0.90660  0.36440  Biso   1.000  H
  H139     1.0000 0.95040  0.59340  0.86440  Biso   1.000  H
  H140     1.0000 0.04960  0.09340  0.63560  Biso   1.000  H
  C73      1.0000 0.08250  0.55724  0.11390  Biso   1.000  C
  C74      1.0000 0.91750  0.05724  0.38610  Biso   1.000  C
  C75      1.0000 0.91750  0.44276  0.88610  Biso   1.000  C
  C76      1.0000 0.08250  0.94276  0.61390  Biso   1.000  C
  C77      1.0000 0.05620  0.59082  0.13780  Biso   1.000  C
  C78      1.0000 0.94380  0.09082  0.36220  Biso   1.000  C
  C79      1.0000 0.94380  0.40918  0.86220  Biso   1.000  C
  C80      1.0000 0.05620  0.90918  0.63780  Biso   1.000  C
  H141     1.0000 0.02710  0.58900  0.18510  Biso   1.000  H
  H142     1.0000 0.97290  0.08900  0.31490  Biso   1.000  H
  H143     1.0000 0.97290  0.41100  0.81490  Biso   1.000  H
  H144     1.0000 0.02710  0.91100  0.68510  Biso   1.000  H
  H145     1.0000 0.02390  0.60030  0.09660  Biso   1.000  H
  H146     1.0000 0.97610  0.10030  0.40340  Biso   1.000  H
  H147     1.0000 0.97610  0.39970  0.90340  Biso   1.000  H
  H148     1.0000 0.02390  0.89970  0.59660  Biso   1.000  H
  H149     1.0000 0.10030  0.60500  0.14720  Biso   1.000  H
  H150     1.0000 0.89970  0.10500  0.35280  Biso   1.000  H
  H151     1.0000 0.89970  0.39500  0.85280  Biso   1.000  H
  H152     1.0000 0.10030  0.89500  0.64720  Biso   1.000  H
  C81      1.0000 0.29690  0.50764  0.14270  Biso   1.000  C
  C82      1.0000 0.70310  0.00764  0.35730  Biso   1.000  C
  C83      1.0000 0.70310  0.49236  0.85730  Biso   1.000  C
  C84      1.0000 0.29690  0.99236  0.64270  Biso   1.000  C
  C85      1.0000 0.35640  0.50894  0.20840  Biso   1.000  C
  C86      1.0000 0.64360  0.00894  0.29160  Biso   1.000  C
  C87      1.0000 0.64360  0.49106  0.79160  Biso   1.000  C
  C88      1.0000 0.35640  0.99106  0.70840  Biso   1.000  C
  H153     1.0000 0.33960  0.52420  0.24830  Biso   1.000  H
  H154     1.0000 0.66040  0.02420  0.25170  Biso   1.000  H
  H155     1.0000 0.66040  0.47580  0.75170  Biso   1.000  H
  H156     1.0000 0.33960  0.97580  0.74830  Biso   1.000  H
  H157     1.0000 0.40490  0.51650  0.18830  Biso   1.000  H
  H158     1.0000 0.59510  0.01650  0.31170  Biso   1.000  H
  H159     1.0000 0.59510  0.48350  0.81170  Biso   1.000  H
  H160     1.0000 0.40490  0.98350  0.68830  Biso   1.000  H
  H161     1.0000 0.36290  0.48700  0.23080  Biso   1.000  H
  H162     1.0000 0.63710  0.98700  0.26920  Biso   1.000  H
  H163     1.0000 0.63710  0.51300  0.76920  Biso   1.000  H
  H164     1.0000 0.36290  0.01300  0.73080  Biso   1.000  H
  C89      1.0000 0.53040  0.45598  0.09860  Biso   1.000  C
  C90      1.0000 0.46960  0.95598  0.40140  Biso   1.000  C
  C91      1.0000 0.46960  0.54402  0.90140  Biso   1.000  C
  C92      1.0000 0.53040  0.04402  0.59860  Biso   1.000  C
  C93      1.0000 0.54790  0.42895  0.15550  Biso   1.000  C
  C94      1.0000 0.45210  0.92895  0.34450  Biso   1.000  C
  C95      1.0000 0.45210  0.57105  0.84450  Biso   1.000  C
  C96      1.0000 0.54790  0.07105  0.65550  Biso   1.000  C
  H165     1.0000 0.56000  0.40880  0.12760  Biso   1.000  H
  H166     1.0000 0.44000  0.90880  0.37240  Biso   1.000  H
  H167     1.0000 0.44000  0.59120  0.87240  Biso   1.000  H
  H168     1.0000 0.56000  0.09120  0.62760  Biso   1.000  H
  H169     1.0000 0.50360  0.42520  0.18750  Biso   1.000  H
  H170     1.0000 0.49640  0.92520  0.31250  Biso   1.000  H
  H171     1.0000 0.49640  0.57480  0.81250  Biso   1.000  H
  H172     1.0000 0.50360  0.07480  0.68750  Biso   1.000  H
  H173     1.0000 0.59140  0.43530  0.18850  Biso   1.000  H
  H174     1.0000 0.40860  0.93530  0.31150  Biso   1.000  H
  H175     1.0000 0.40860  0.56470  0.81150  Biso   1.000  H
  H176     1.0000 0.59140  0.06470  0.68850  Biso   1.000  H
  C97      1.0000 0.54990  0.54528  0.08730  Biso   1.000  C
  C98      1.0000 0.45010  0.04528  0.41270  Biso   1.000  C
  C99      1.0000 0.45010  0.45472  0.91270  Biso   1.000  C
  C100     1.0000 0.54990  0.95472  0.58730  Biso   1.000  C
  C101     1.0000 0.57660  0.57310  0.13870  Biso   1.000  C
  C102     1.0000 0.42340  0.07310  0.36130  Biso   1.000  C
  C103     1.0000 0.42340  0.42690  0.86130  Biso   1.000  C
  C104     1.0000 0.57660  0.92690  0.63870  Biso   1.000  C
  H177     1.0000 0.62130  0.58350  0.11650  Biso   1.000  H
  H178     1.0000 0.37870  0.08350  0.38350  Biso   1.000  H
  H179     1.0000 0.37870  0.41650  0.88350  Biso   1.000  H
  H180     1.0000 0.62130  0.91650  0.61650  Biso   1.000  H
  H181     1.0000 0.59000  0.56450  0.19010  Biso   1.000  H
  H182     1.0000 0.41000  0.06450  0.30990  Biso   1.000  H
  H183     1.0000 0.41000  0.43550  0.80990  Biso   1.000  H
  H184     1.0000 0.59000  0.93550  0.69010  Biso   1.000  H
  H185     1.0000 0.53590  0.58940  0.14300  Biso   1.000  H
  H186     1.0000 0.46410  0.08940  0.35700  Biso   1.000  H
  H187     1.0000 0.46410  0.41060  0.85700  Biso   1.000  H
  H188     1.0000 0.53590  0.91060  0.64300  Biso   1.000  H
  C105     1.0000 0.15560  0.45429  0.89210  Biso   1.000  C
  C106     1.0000 0.84440  0.95429  0.60790  Biso   1.000  C
  C107     1.0000 0.84440  0.54571  0.10790  Biso   1.000  C
  C108     1.0000 0.15560  0.04571  0.39210  Biso   1.000  C
  H189     1.0000 0.18690  0.44810  0.93800  Biso   1.000  H
  H190     1.0000 0.81310  0.94810  0.56200  Biso   1.000  H
  H191     1.0000 0.81310  0.55190  0.06200  Biso   1.000  H
  H192     1.0000 0.18690  0.05190  0.43800  Biso   1.000  H
  H193     1.0000 0.10430  0.44490  0.89850  Biso   1.000  H
  H194     1.0000 0.89570  0.94490  0.60150  Biso   1.000  H
  H195     1.0000 0.89570  0.55510  0.10150  Biso   1.000  H
  H196     1.0000 0.10430  0.05510  0.39850  Biso   1.000  H
  C109     1.0000 0.19000  0.43937  0.82180  Biso   1.000  C
  C110     1.0000 0.81000  0.93937  0.67820  Biso   1.000  C
  C111     1.0000 0.81000  0.56063  0.17820  Biso   1.000  C
  C112     1.0000 0.19000  0.06063  0.32180  Biso   1.000  C
  H197     1.0000 0.19650  0.41570  0.82970  Biso   1.000  H
  H198     1.0000 0.80350  0.91570  0.67030  Biso   1.000  H
  H199     1.0000 0.80350  0.58430  0.17030  Biso   1.000  H
  H200     1.0000 0.19650  0.08430  0.32970  Biso   1.000  H
  H201     1.0000 0.23950  0.44950  0.81310  Biso   1.000  H
  H202     1.0000 0.76050  0.94950  0.68690  Biso   1.000  H
  H203     1.0000 0.76050  0.55050  0.18690  Biso   1.000  H
  H204     1.0000 0.23950  0.05050  0.31310  Biso   1.000  H
  H205     1.0000 0.15640  0.44320  0.77680  Biso   1.000  H
  H206     1.0000 0.84360  0.94320  0.72320  Biso   1.000  H
  H207     1.0000 0.84360  0.55680  0.22320  Biso   1.000  H
  H208     1.0000 0.15640  0.05680  0.27680  Biso   1.000  H
  C113     1.0000 0.09440  0.50883  0.80340  Biso   1.000  C
  C114     1.0000 0.90560  0.00883  0.69660  Biso   1.000  C
  C115     1.0000 0.90560  0.49117  0.19660  Biso   1.000  C
  C116     1.0000 0.09440  0.99117  0.30340  Biso   1.000  C
  H209     1.0000 0.11430  0.49600  0.75970  Biso   1.000  H
  H210     1.0000 0.88570  0.99600  0.74030  Biso   1.000  H
  H211     1.0000 0.88570  0.50400  0.24030  Biso   1.000  H
  H212     1.0000 0.11430  0.00400  0.25970  Biso   1.000  H
  H213     1.0000 0.04100  0.50200  0.81020  Biso   1.000  H
  H214     1.0000 0.95900  0.00200  0.68980  Biso   1.000  H
  H215     1.0000 0.95900  0.49800  0.18980  Biso   1.000  H
  H216     1.0000 0.04100  0.99800  0.31020  Biso   1.000  H
  C117     1.0000 0.09490  0.54472  0.78140  Biso   1.000  C
  C118     1.0000 0.90510  0.04472  0.71860  Biso   1.000  C
  C119     1.0000 0.90510  0.45528  0.21860  Biso   1.000  C
  C120     1.0000 0.09490  0.95528  0.28140  Biso   1.000  C
  H217     1.0000 0.06260  0.54810  0.73520  Biso   1.000  H
  H218     1.0000 0.93740  0.04810  0.76480  Biso   1.000  H
  H219     1.0000 0.93740  0.45190  0.26480  Biso   1.000  H
  H220     1.0000 0.06260  0.95190  0.23520  Biso   1.000  H
  H221     1.0000 0.14700  0.55150  0.77080  Biso   1.000  H
  H222     1.0000 0.85300  0.05150  0.72920  Biso   1.000  H
  H223     1.0000 0.85300  0.44850  0.22920  Biso   1.000  H
  H224     1.0000 0.14700  0.94850  0.27080  Biso   1.000  H
  H225     1.0000 0.07540  0.55780  0.82400  Biso   1.000  H
  H226     1.0000 0.92460  0.05780  0.67600  Biso   1.000  H
  H227     1.0000 0.92460  0.44220  0.17600  Biso   1.000  H
  H228     1.0000 0.07540  0.94220  0.32400  Biso   1.000  H
  C121     1.0000 0.24050  0.51578  0.88300  Biso   1.000  C
  C122     1.0000 0.75950  0.01578  0.61700  Biso   1.000  C
  C123     1.0000 0.75950  0.48422  0.11700  Biso   1.000  C
  C124     1.0000 0.24050  0.98422  0.38300  Biso   1.000  C
  H229     1.0000 0.27610  0.50310  0.91640  Biso   1.000  H
  H230     1.0000 0.72390  0.00310  0.58360  Biso   1.000  H
  H231     1.0000 0.72390  0.49690  0.08360  Biso   1.000  H
  H232     1.0000 0.27610  0.99690  0.41640  Biso   1.000  H
  H233     1.0000 0.25770  0.51380  0.82920  Biso   1.000  H
  H234     1.0000 0.74230  0.01380  0.67080  Biso   1.000  H
  H235     1.0000 0.74230  0.48620  0.17080  Biso   1.000  H
  H236     1.0000 0.25770  0.98620  0.32920  Biso   1.000  H
  C125     1.0000 0.24440  0.55213  0.90700  Biso   1.000  C
  C126     1.0000 0.75560  0.05213  0.59300  Biso   1.000  C
  C127     1.0000 0.75560  0.44787  0.09300  Biso   1.000  C
  C128     1.0000 0.24440  0.94787  0.40700  Biso   1.000  C
  H237     1.0000 0.29730  0.55950  0.90720  Biso   1.000  H
  H238     1.0000 0.70270  0.05950  0.59280  Biso   1.000  H
  H239     1.0000 0.70270  0.44050  0.09280  Biso   1.000  H
  H240     1.0000 0.29730  0.94050  0.40720  Biso   1.000  H
  H241     1.0000 0.22400  0.55470  0.95880  Biso   1.000  H
  H242     1.0000 0.77600  0.05470  0.54120  Biso   1.000  H
  H243     1.0000 0.77600  0.44530  0.04120  Biso   1.000  H
  H244     1.0000 0.22400  0.94530  0.45880  Biso   1.000  H
  H245     1.0000 0.21430  0.56540  0.87030  Biso   1.000  H
  H246     1.0000 0.78570  0.06540  0.62970  Biso   1.000  H
  H247     1.0000 0.78570  0.43460  0.12970  Biso   1.000  H
  H248     1.0000 0.21430  0.93460  0.37030  Biso   1.000  H
  Cu21     1.0000 0.27518  0.74167  0.89713  Biso   1.000  Cu
  Cu22     1.0000 0.72482  0.24167  0.60287  Biso   1.000  Cu
  Cu23     1.0000 0.72482  0.25833  0.10287  Biso   1.000  Cu
  Cu24     1.0000 0.27518  0.75833  0.39713  Biso   1.000  Cu
  Cu25     1.0000 0.43616  0.74933  0.97113  Biso   1.000  Cu
  Cu26     1.0000 0.56384  0.24933  0.52887  Biso   1.000  Cu
  Cu27     1.0000 0.56384  0.25067  0.02887  Biso   1.000  Cu
  Cu28     1.0000 0.43616  0.75067  0.47113  Biso   1.000  Cu
  Cu29     1.0000 0.59742  0.75622  0.04301  Biso   1.000  Cu
  Cu30     1.0000 0.40258  0.25622  0.45699  Biso   1.000  Cu
  Cu31     1.0000 0.40258  0.24378  0.95699  Biso   1.000  Cu
  Cu32     1.0000 0.59742  0.74378  0.54301  Biso   1.000  Cu
  Cu33     1.0000 0.86531  0.75059  0.99664  Biso   1.000  Cu
  Cu34     1.0000 0.13469  0.25059  0.50336  Biso   1.000  Cu
  Cu35     1.0000 0.13469  0.24941  0.00336  Biso   1.000  Cu
  Cu36     1.0000 0.86531  0.74941  0.49664  Biso   1.000  Cu
  Cu37     1.0000 0.00383  0.74568  0.94235  Biso   1.000  Cu
  Cu38     1.0000 0.99617  0.24568  0.55765  Biso   1.000  Cu
  Cu39     1.0000 0.99617  0.25432  0.05765  Biso   1.000  Cu
  Cu40     1.0000 0.00383  0.75432  0.44235  Biso   1.000  Cu
  P9       1.0000 0.28662  0.75174  0.07956  Biso   1.000  P
  P10      1.0000 0.71338  0.25174  0.42044  Biso   1.000  P
  P11      1.0000 0.71338  0.24826  0.92044  Biso   1.000  P
  P12      1.0000 0.28662  0.74826  0.57956  Biso   1.000  P
  P13      1.0000 0.58463  0.74741  0.86008  Biso   1.000  P
  P14      1.0000 0.41537  0.24741  0.63992  Biso   1.000  P
  P15      1.0000 0.41537  0.25259  0.13992  Biso   1.000  P
  P16      1.0000 0.58463  0.75259  0.36008  Biso   1.000  P
  N9       1.0000 0.32840  0.73859  0.00130  Biso   1.000  N
  N10      1.0000 0.67160  0.23859  0.49870  Biso   1.000  N
  N11      1.0000 0.67160  0.26141  0.99870  Biso   1.000  N
  N12      1.0000 0.32840  0.76141  0.50130  Biso   1.000  N
  H249     1.0000 0.33200  0.71950  0.00500  Biso   1.000  H
  H250     1.0000 0.66800  0.21950  0.49500  Biso   1.000  H
  H251     1.0000 0.66800  0.28050  0.99500  Biso   1.000  H
  H252     1.0000 0.33200  0.78050  0.50500  Biso   1.000  H
  N13      1.0000 0.54370  0.75997  0.93930  Biso   1.000  N
  N14      1.0000 0.45630  0.25997  0.56070  Biso   1.000  N
  N15      1.0000 0.45630  0.24003  0.06070  Biso   1.000  N
  N16      1.0000 0.54370  0.74003  0.43930  Biso   1.000  N
  H253     1.0000 0.54200  0.77770  0.93700  Biso   1.000  H
  H254     1.0000 0.45800  0.27770  0.56300  Biso   1.000  H
  H255     1.0000 0.45800  0.22230  0.06300  Biso   1.000  H
  H256     1.0000 0.54200  0.72230  0.43700  Biso   1.000  H
  O81      1.0000 0.11832  0.74157  0.89609  Biso   1.000  O
  O82      1.0000 0.88168  0.24157  0.60391  Biso   1.000  O
  O83      1.0000 0.88168  0.25843  0.10391  Biso   1.000  O
  O84      1.0000 0.11832  0.75843  0.39609  Biso   1.000  O
  O85      1.0000 0.20610  0.74309  0.80790  Biso   1.000  O
  O86      1.0000 0.79390  0.24309  0.69210  Biso   1.000  O
  O87      1.0000 0.79390  0.25691  0.19210  Biso   1.000  O
  O88      1.0000 0.20610  0.75691  0.30790  Biso   1.000  O
  O89      1.0000 0.28820  0.69401  0.88360  Biso   1.000  O
  O90      1.0000 0.71180  0.19401  0.61640  Biso   1.000  O
  O91      1.0000 0.71180  0.30599  0.11640  Biso   1.000  O
  O92      1.0000 0.28820  0.80599  0.38360  Biso   1.000  O
  O93      1.0000 0.39640  0.71611  0.84870  Biso   1.000  O
  O94      1.0000 0.60360  0.21611  0.65130  Biso   1.000  O
  O95      1.0000 0.60360  0.28389  0.15130  Biso   1.000  O
  O96      1.0000 0.39640  0.78389  0.34870  Biso   1.000  O
  O97      1.0000 0.28760  0.78897  0.88860  Biso   1.000  O
  O98      1.0000 0.71240  0.28897  0.61140  Biso   1.000  O
  O99      1.0000 0.71240  0.21103  0.11140  Biso   1.000  O
  O100     1.0000 0.28760  0.71103  0.38860  Biso   1.000  O
  O101     1.0000 0.41020  0.79232  0.92500  Biso   1.000  O
  O102     1.0000 0.58980  0.29232  0.57500  Biso   1.000  O
  O103     1.0000 0.58980  0.20768  0.07500  Biso   1.000  O
  O104     1.0000 0.41020  0.70768  0.42500  Biso   1.000  O
  O105     1.0000 0.46220  0.70645  0.01620  Biso   1.000  O
  O106     1.0000 0.53780  0.20645  0.48380  Biso   1.000  O
  O107     1.0000 0.53780  0.29355  0.98380  Biso   1.000  O
  O108     1.0000 0.46220  0.79355  0.51620  Biso   1.000  O
  O109     1.0000 0.58660  0.70872  0.04940  Biso   1.000  O
  O110     1.0000 0.41340  0.20872  0.45060  Biso   1.000  O
  O111     1.0000 0.41340  0.29128  0.95060  Biso   1.000  O
  O112     1.0000 0.58660  0.79128  0.54940  Biso   1.000  O
  O113     1.0000 0.47460  0.78170  0.09010  Biso   1.000  O
  O114     1.0000 0.52540  0.28170  0.40990  Biso   1.000  O
  O115     1.0000 0.52540  0.21830  0.90990  Biso   1.000  O
  O116     1.0000 0.47460  0.71830  0.59010  Biso   1.000  O
  O117     1.0000 0.58350  0.80388  0.05730  Biso   1.000  O
  O118     1.0000 0.41650  0.30388  0.44270  Biso   1.000  O
  O119     1.0000 0.41650  0.19612  0.94270  Biso   1.000  O
  O120     1.0000 0.58350  0.69612  0.55730  Biso   1.000  O
  O121     1.0000 0.66480  0.75482  0.13390  Biso   1.000  O
  O122     1.0000 0.33520  0.25482  0.36610  Biso   1.000  O
  O123     1.0000 0.33520  0.24518  0.86610  Biso   1.000  O
  O124     1.0000 0.66480  0.74518  0.63390  Biso   1.000  O
  O125     1.0000 0.75247  0.75476  0.04522  Biso   1.000  O
  O126     1.0000 0.24753  0.25476  0.45478  Biso   1.000  O
  O127     1.0000 0.24753  0.24524  0.95478  Biso   1.000  O
  O128     1.0000 0.75247  0.74524  0.54522  Biso   1.000  O
  O129     1.0000 0.90070  0.71596  0.06840  Biso   1.000  O
  O130     1.0000 0.09930  0.21596  0.43160  Biso   1.000  O
  O131     1.0000 0.09930  0.28404  0.93160  Biso   1.000  O
  O132     1.0000 0.90070  0.78404  0.56840  Biso   1.000  O
  O133     1.0000 0.01760  0.71221  0.02220  Biso   1.000  O
  O134     1.0000 0.98240  0.21221  0.47780  Biso   1.000  O
  O135     1.0000 0.98240  0.28779  0.97780  Biso   1.000  O
  O136     1.0000 0.01760  0.78779  0.52220  Biso   1.000  O
  O137     1.0000 0.91490  0.78466  0.06080  Biso   1.000  O
  O138     1.0000 0.08510  0.28466  0.43920  Biso   1.000  O
  O139     1.0000 0.08510  0.21534  0.93920  Biso   1.000  O
  O140     1.0000 0.91490  0.71534  0.56080  Biso   1.000  O
  O141     1.0000 0.03310  0.78005  0.01760  Biso   1.000  O
  O142     1.0000 0.96690  0.28005  0.48240  Biso   1.000  O
  O143     1.0000 0.96690  0.21995  0.98240  Biso   1.000  O
  O144     1.0000 0.03310  0.71995  0.51760  Biso   1.000  O
  O145     1.0000 0.83610  0.71592  0.92240  Biso   1.000  O
  O146     1.0000 0.16390  0.21592  0.57760  Biso   1.000  O
  O147     1.0000 0.16390  0.28408  0.07760  Biso   1.000  O
  O148     1.0000 0.83610  0.78408  0.42240  Biso   1.000  O
  O149     1.0000 0.95360  0.71191  0.87750  Biso   1.000  O
  O150     1.0000 0.04640  0.21191  0.62250  Biso   1.000  O
  O151     1.0000 0.04640  0.28809  0.12250  Biso   1.000  O
  O152     1.0000 0.95360  0.78809  0.37750  Biso   1.000  O
  O153     1.0000 0.85200  0.78380  0.91550  Biso   1.000  O
  O154     1.0000 0.14800  0.28380  0.58450  Biso   1.000  O
  O155     1.0000 0.14800  0.21620  0.08450  Biso   1.000  O
  O156     1.0000 0.85200  0.71620  0.41550  Biso   1.000  O
  O157     1.0000 0.96910  0.78092  0.87200  Biso   1.000  O
  O158     1.0000 0.03090  0.28092  0.62800  Biso   1.000  O
  O159     1.0000 0.03090  0.21908  0.12800  Biso   1.000  O
  O160     1.0000 0.96910  0.71908  0.37200  Biso   1.000  O
  C129     1.0000 0.13630  0.74196  0.82640  Biso   1.000  C
  C130     1.0000 0.86370  0.24196  0.67360  Biso   1.000  C
  C131     1.0000 0.86370  0.25804  0.17360  Biso   1.000  C
  C132     1.0000 0.13630  0.75804  0.32640  Biso   1.000  C
  C133     1.0000 0.07850  0.74071  0.76160  Biso   1.000  C
  C134     1.0000 0.92150  0.24071  0.73840  Biso   1.000  C
  C135     1.0000 0.92150  0.25929  0.23840  Biso   1.000  C
  C136     1.0000 0.07850  0.75929  0.26160  Biso   1.000  C
  H257     1.0000 0.03740  0.72580  0.77530  Biso   1.000  H
  H258     1.0000 0.96260  0.22580  0.72470  Biso   1.000  H
  H259     1.0000 0.96260  0.27420  0.22470  Biso   1.000  H
  H260     1.0000 0.03740  0.77420  0.27530  Biso   1.000  H
  H261     1.0000 0.10260  0.73280  0.71480  Biso   1.000  H
  H262     1.0000 0.89740  0.23280  0.78520  Biso   1.000  H
  H263     1.0000 0.89740  0.26720  0.28520  Biso   1.000  H
  H264     1.0000 0.10260  0.76720  0.21480  Biso   1.000  H
  H265     1.0000 0.05780  0.76270  0.75250  Biso   1.000  H
  H266     1.0000 0.94220  0.26270  0.74750  Biso   1.000  H
  H267     1.0000 0.94220  0.23730  0.24750  Biso   1.000  H
  H268     1.0000 0.05780  0.73730  0.25250  Biso   1.000  H
  C137     1.0000 0.35390  0.69178  0.85670  Biso   1.000  C
  C138     1.0000 0.64610  0.19178  0.64330  Biso   1.000  C
  C139     1.0000 0.64610  0.30822  0.14330  Biso   1.000  C
  C140     1.0000 0.35390  0.80822  0.35670  Biso   1.000  C
  C141     1.0000 0.38080  0.65826  0.83290  Biso   1.000  C
  C142     1.0000 0.61920  0.15826  0.66710  Biso   1.000  C
  C143     1.0000 0.61920  0.34174  0.16710  Biso   1.000  C
  C144     1.0000 0.38080  0.84174  0.33290  Biso   1.000  C
  H269     1.0000 0.43180  0.65430  0.85470  Biso   1.000  H
  H270     1.0000 0.56820  0.15430  0.64530  Biso   1.000  H
  H271     1.0000 0.56820  0.34570  0.14530  Biso   1.000  H
  H272     1.0000 0.43180  0.84570  0.35470  Biso   1.000  H
  H273     1.0000 0.38210  0.65710  0.77650  Biso   1.000  H
  H274     1.0000 0.61790  0.15710  0.72350  Biso   1.000  H
  H275     1.0000 0.61790  0.34290  0.22350  Biso   1.000  H
  H276     1.0000 0.38210  0.84290  0.27650  Biso   1.000  H
  H277     1.0000 0.34590  0.64150  0.85200  Biso   1.000  H
  H278     1.0000 0.65410  0.14150  0.64800  Biso   1.000  H
  H279     1.0000 0.65410  0.35850  0.14800  Biso   1.000  H
  H280     1.0000 0.34590  0.85850  0.35200  Biso   1.000  H
  C145     1.0000 0.34860  0.80454  0.89800  Biso   1.000  C
  C146     1.0000 0.65140  0.30454  0.60200  Biso   1.000  C
  C147     1.0000 0.65140  0.19546  0.10200  Biso   1.000  C
  C148     1.0000 0.34860  0.69546  0.39800  Biso   1.000  C
  C149     1.0000 0.35070  0.84005  0.87620  Biso   1.000  C
  C150     1.0000 0.64930  0.34005  0.62380  Biso   1.000  C
  C151     1.0000 0.64930  0.15995  0.12380  Biso   1.000  C
  C152     1.0000 0.35070  0.65995  0.37620  Biso   1.000  C
  H281     1.0000 0.31340  0.84420  0.83440  Biso   1.000  H
  H282     1.0000 0.68660  0.34420  0.66560  Biso   1.000  H
  H283     1.0000 0.68660  0.15580  0.16560  Biso   1.000  H
  H284     1.0000 0.31340  0.65580  0.33440  Biso   1.000  H
  H285     1.0000 0.40150  0.84570  0.85870  Biso   1.000  H
  H286     1.0000 0.59850  0.34570  0.64130  Biso   1.000  H
  H287     1.0000 0.59850  0.15430  0.14130  Biso   1.000  H
  H288     1.0000 0.40150  0.65430  0.35870  Biso   1.000  H
  H289     1.0000 0.33840  0.85350  0.92100  Biso   1.000  H
  H290     1.0000 0.66160  0.35350  0.57900  Biso   1.000  H
  H291     1.0000 0.66160  0.14650  0.07900  Biso   1.000  H
  H292     1.0000 0.33840  0.64650  0.42100  Biso   1.000  H
  C153     1.0000 0.52310  0.69407  0.04170  Biso   1.000  C
  C154     1.0000 0.47690  0.19407  0.45830  Biso   1.000  C
  C155     1.0000 0.47690  0.30593  0.95830  Biso   1.000  C
  C156     1.0000 0.52310  0.80593  0.54170  Biso   1.000  C
  C157     1.0000 0.52100  0.65845  0.06530  Biso   1.000  C
  C158     1.0000 0.47900  0.15845  0.43470  Biso   1.000  C
  C159     1.0000 0.47900  0.34155  0.93470  Biso   1.000  C
  C160     1.0000 0.52100  0.84155  0.56530  Biso   1.000  C
  H293     1.0000 0.47570  0.65440  0.09560  Biso   1.000  H
  H294     1.0000 0.52430  0.15440  0.40440  Biso   1.000  H
  H295     1.0000 0.52430  0.34560  0.90440  Biso   1.000  H
  H296     1.0000 0.47570  0.84560  0.59560  Biso   1.000  H
  H297     1.0000 0.56660  0.65320  0.09660  Biso   1.000  H
  H298     1.0000 0.43340  0.15320  0.40340  Biso   1.000  H
  H299     1.0000 0.43340  0.34680  0.90340  Biso   1.000  H
  H300     1.0000 0.56660  0.84680  0.59660  Biso   1.000  H
  H301     1.0000 0.51950  0.64460  0.01920  Biso   1.000  H
  H302     1.0000 0.48050  0.14460  0.48080  Biso   1.000  H
  H303     1.0000 0.48050  0.35540  0.98080  Biso   1.000  H
  H304     1.0000 0.51950  0.85540  0.51920  Biso   1.000  H
  C161     1.0000 0.51670  0.80593  0.08370  Biso   1.000  C
  C162     1.0000 0.48330  0.30593  0.41630  Biso   1.000  C
  C163     1.0000 0.48330  0.19407  0.91630  Biso   1.000  C
  C164     1.0000 0.51670  0.69407  0.58370  Biso   1.000  C
  C165     1.0000 0.49120  0.83966  0.10710  Biso   1.000  C
  C166     1.0000 0.50880  0.33966  0.39290  Biso   1.000  C
  C167     1.0000 0.50880  0.16034  0.89290  Biso   1.000  C
  C168     1.0000 0.49120  0.66034  0.60710  Biso   1.000  C
  H305     1.0000 0.44880  0.83780  0.14240  Biso   1.000  H
  H306     1.0000 0.55120  0.33780  0.35760  Biso   1.000  H
  H307     1.0000 0.55120  0.16220  0.85760  Biso   1.000  H
  H308     1.0000 0.44880  0.66220  0.64240  Biso   1.000  H
  H309     1.0000 0.47470  0.85200  0.06110  Biso   1.000  H
  H310     1.0000 0.52530  0.35200  0.43890  Biso   1.000  H
  H311     1.0000 0.52530  0.14800  0.93890  Biso   1.000  H
  H312     1.0000 0.47470  0.64800  0.56110  Biso   1.000  H
  H313     1.0000 0.53350  0.85120  0.13300  Biso   1.000  H
  H314     1.0000 0.46650  0.35120  0.36700  Biso   1.000  H
  H315     1.0000 0.46650  0.14880  0.86700  Biso   1.000  H
  H316     1.0000 0.53350  0.64880  0.63300  Biso   1.000  H
  C169     1.0000 0.73260  0.75536  0.11350  Biso   1.000  C
  C170     1.0000 0.26740  0.25536  0.38650  Biso   1.000  C
  C171     1.0000 0.26740  0.24464  0.88650  Biso   1.000  C
  C172     1.0000 0.73260  0.74464  0.61350  Biso   1.000  C
  C173     1.0000 0.79280  0.75620  0.17910  Biso   1.000  C
  C174     1.0000 0.20720  0.25620  0.32090  Biso   1.000  C
  C175     1.0000 0.20720  0.24380  0.82090  Biso   1.000  C
  C176     1.0000 0.79280  0.74380  0.67910  Biso   1.000  C
  H317     1.0000 0.77020  0.76510  0.22580  Biso   1.000  H
  H318     1.0000 0.22980  0.26510  0.27420  Biso   1.000  H
  H319     1.0000 0.22980  0.23490  0.77420  Biso   1.000  H
  H320     1.0000 0.77020  0.73490  0.72580  Biso   1.000  H
  H321     1.0000 0.83520  0.77020  0.16400  Biso   1.000  H
  H322     1.0000 0.16480  0.27020  0.33600  Biso   1.000  H
  H323     1.0000 0.16480  0.22980  0.83600  Biso   1.000  H
  H324     1.0000 0.83520  0.72980  0.66400  Biso   1.000  H
  H325     1.0000 0.81130  0.73390  0.18920  Biso   1.000  H
  H326     1.0000 0.18870  0.23390  0.31080  Biso   1.000  H
  H327     1.0000 0.18870  0.26610  0.81080  Biso   1.000  H
  H328     1.0000 0.81130  0.76610  0.68920  Biso   1.000  H
  C177     1.0000 0.96650  0.70373  0.06640  Biso   1.000  C
  C178     1.0000 0.03350  0.20373  0.43360  Biso   1.000  C
  C179     1.0000 0.03350  0.29627  0.93360  Biso   1.000  C
  C180     1.0000 0.96650  0.79627  0.56640  Biso   1.000  C
  C181     1.0000 0.98360  0.67621  0.12200  Biso   1.000  C
  C182     1.0000 0.01640  0.17621  0.37800  Biso   1.000  C
  C183     1.0000 0.01640  0.32379  0.87800  Biso   1.000  C
  C184     1.0000 0.98360  0.82379  0.62200  Biso   1.000  C
  H329     1.0000 0.01650  0.66010  0.09760  Biso   1.000  H
  H330     1.0000 0.98350  0.16010  0.40240  Biso   1.000  H
  H331     1.0000 0.98350  0.33990  0.90240  Biso   1.000  H
  H332     1.0000 0.01650  0.83990  0.59760  Biso   1.000  H
  H333     1.0000 0.93600  0.66560  0.13650  Biso   1.000  H
  H334     1.0000 0.06400  0.16560  0.36350  Biso   1.000  H
  H335     1.0000 0.06400  0.33440  0.86350  Biso   1.000  H
  H336     1.0000 0.93600  0.83440  0.63650  Biso   1.000  H
  H337     1.0000 0.00930  0.68500  0.16830  Biso   1.000  H
  H338     1.0000 0.99070  0.18500  0.33170  Biso   1.000  H
  H339     1.0000 0.99070  0.31500  0.83170  Biso   1.000  H
  H340     1.0000 0.00930  0.81500  0.66830  Biso   1.000  H
  C185     1.0000 0.98280  0.79295  0.05840  Biso   1.000  C
  C186     1.0000 0.01720  0.29295  0.44160  Biso   1.000  C
  C187     1.0000 0.01720  0.20705  0.94160  Biso   1.000  C
  C188     1.0000 0.98280  0.70705  0.55840  Biso   1.000  C
  C189     1.0000 0.00670  0.82181  0.10840  Biso   1.000  C
  C190     1.0000 0.99330  0.32181  0.39160  Biso   1.000  C
  C191     1.0000 0.99330  0.17819  0.89160  Biso   1.000  C
  C192     1.0000 0.00670  0.67819  0.60840  Biso   1.000  C
  H341     1.0000 0.97680  0.84120  0.09340  Biso   1.000  H
  H342     1.0000 0.02320  0.34120  0.40660  Biso   1.000  H
  H343     1.0000 0.02320  0.15880  0.90660  Biso   1.000  H
  H344     1.0000 0.97680  0.65880  0.59340  Biso   1.000  H
  H345     1.0000 0.06070  0.82630  0.10150  Biso   1.000  H
  H346     1.0000 0.93930  0.32630  0.39850  Biso   1.000  H
  H347     1.0000 0.93930  0.17370  0.89850  Biso   1.000  H
  H348     1.0000 0.06070  0.67370  0.60150  Biso   1.000  H
  H349     1.0000 0.99790  0.81660  0.16270  Biso   1.000  H
  H350     1.0000 0.00210  0.31660  0.33730  Biso   1.000  H
  H351     1.0000 0.00210  0.18340  0.83730  Biso   1.000  H
  H352     1.0000 0.99790  0.68340  0.66270  Biso   1.000  H
  C193     1.0000 0.88560  0.70385  0.88030  Biso   1.000  C
  C194     1.0000 0.11440  0.20385  0.61970  Biso   1.000  C
  C195     1.0000 0.11440  0.29615  0.11970  Biso   1.000  C
  C196     1.0000 0.88560  0.79615  0.38030  Biso   1.000  C
  C197     1.0000 0.86140  0.67550  0.82850  Biso   1.000  C
  C198     1.0000 0.13860  0.17550  0.67150  Biso   1.000  C
  C199     1.0000 0.13860  0.32450  0.17150  Biso   1.000  C
  C200     1.0000 0.86140  0.82450  0.32850  Biso   1.000  C
  H353     1.0000 0.82280  0.66240  0.85420  Biso   1.000  H
  H354     1.0000 0.17720  0.16240  0.64580  Biso   1.000  H
  H355     1.0000 0.17720  0.33760  0.14580  Biso   1.000  H
  H356     1.0000 0.82280  0.83760  0.35420  Biso   1.000  H
  H357     1.0000 0.90560  0.66170  0.81810  Biso   1.000  H
  H358     1.0000 0.09440  0.16170  0.68190  Biso   1.000  H
  H359     1.0000 0.09440  0.33830  0.18190  Biso   1.000  H
  H360     1.0000 0.90560  0.83830  0.31810  Biso   1.000  H
  H361     1.0000 0.84030  0.68410  0.77980  Biso   1.000  H
  H362     1.0000 0.15970  0.18410  0.72020  Biso   1.000  H
  H363     1.0000 0.15970  0.31590  0.22020  Biso   1.000  H
  H364     1.0000 0.84030  0.81590  0.27980  Biso   1.000  H
  C201     1.0000 0.90330  0.79298  0.87270  Biso   1.000  C
  C202     1.0000 0.09670  0.29298  0.62730  Biso   1.000  C
  C203     1.0000 0.09670  0.20702  0.12730  Biso   1.000  C
  C204     1.0000 0.90330  0.70702  0.37270  Biso   1.000  C
  C205     1.0000 0.88640  0.82007  0.81690  Biso   1.000  C
  C206     1.0000 0.11360  0.32007  0.68310  Biso   1.000  C
  C207     1.0000 0.11360  0.17993  0.18310  Biso   1.000  C
  C208     1.0000 0.88640  0.67993  0.31690  Biso   1.000  C
  H365     1.0000 0.85060  0.83550  0.83960  Biso   1.000  H
  H366     1.0000 0.14940  0.33550  0.66040  Biso   1.000  H
  H367     1.0000 0.14940  0.16450  0.16040  Biso   1.000  H
  H368     1.0000 0.85060  0.66450  0.33960  Biso   1.000  H
  H369     1.0000 0.86400  0.81090  0.76930  Biso   1.000  H
  H370     1.0000 0.13600  0.31090  0.73070  Biso   1.000  H
  H371     1.0000 0.13600  0.18910  0.23070  Biso   1.000  H
  H372     1.0000 0.86400  0.68910  0.26930  Biso   1.000  H
  H373     1.0000 0.93350  0.83160  0.80510  Biso   1.000  H
  H374     1.0000 0.06650  0.33160  0.69490  Biso   1.000  H
  H375     1.0000 0.06650  0.16840  0.19490  Biso   1.000  H
  H376     1.0000 0.93350  0.66840  0.30510  Biso   1.000  H
  C209     1.0000 0.33900  0.74163  0.16660  Biso   1.000  C
  C210     1.0000 0.66100  0.24163  0.33340  Biso   1.000  C
  C211     1.0000 0.66100  0.25837  0.83340  Biso   1.000  C
  C212     1.0000 0.33900  0.75837  0.66660  Biso   1.000  C
  H377     1.0000 0.39240  0.74860  0.16050  Biso   1.000  H
  H378     1.0000 0.60760  0.24860  0.33950  Biso   1.000  H
  H379     1.0000 0.60760  0.25140  0.83950  Biso   1.000  H
  H380     1.0000 0.39240  0.75140  0.66050  Biso   1.000  H
  H381     1.0000 0.31800  0.75460  0.20940  Biso   1.000  H
  H382     1.0000 0.68200  0.25460  0.29060  Biso   1.000  H
  H383     1.0000 0.68200  0.24540  0.79060  Biso   1.000  H
  H384     1.0000 0.31800  0.74540  0.70940  Biso   1.000  H
  C213     1.0000 0.33890  0.70543  0.18970  Biso   1.000  C
  C214     1.0000 0.66110  0.20543  0.31030  Biso   1.000  C
  C215     1.0000 0.66110  0.29457  0.81030  Biso   1.000  C
  C216     1.0000 0.33890  0.79457  0.68970  Biso   1.000  C
  H385     1.0000 0.37630  0.70180  0.23160  Biso   1.000  H
  H386     1.0000 0.62370  0.20180  0.26840  Biso   1.000  H
  H387     1.0000 0.62370  0.29820  0.76840  Biso   1.000  H
  H388     1.0000 0.37630  0.79820  0.73160  Biso   1.000  H
  H389     1.0000 0.35190  0.69190  0.14520  Biso   1.000  H
  H390     1.0000 0.64810  0.19190  0.35480  Biso   1.000  H
  H391     1.0000 0.64810  0.30810  0.85480  Biso   1.000  H
  H392     1.0000 0.35190  0.80810  0.64520  Biso   1.000  H
  H393     1.0000 0.28830  0.69930  0.20720  Biso   1.000  H
  H394     1.0000 0.71170  0.19930  0.29280  Biso   1.000  H
  H395     1.0000 0.71170  0.30070  0.79280  Biso   1.000  H
  H396     1.0000 0.28830  0.80070  0.70720  Biso   1.000  H
  C217     1.0000 0.27770  0.79520  0.07420  Biso   1.000  C
  C218     1.0000 0.72230  0.29520  0.42580  Biso   1.000  C
  C219     1.0000 0.72230  0.20480  0.92580  Biso   1.000  C
  C220     1.0000 0.27770  0.70480  0.57420  Biso   1.000  C
  H397     1.0000 0.32900  0.80490  0.06990  Biso   1.000  H
  H398     1.0000 0.67100  0.30490  0.43010  Biso   1.000  H
  H399     1.0000 0.67100  0.19510  0.93010  Biso   1.000  H
  H400     1.0000 0.32900  0.69510  0.56990  Biso   1.000  H
  H401     1.0000 0.24840  0.80090  0.02650  Biso   1.000  H
  H402     1.0000 0.75160  0.30090  0.47350  Biso   1.000  H
  H403     1.0000 0.75160  0.19910  0.97350  Biso   1.000  H
  H404     1.0000 0.24840  0.69910  0.52650  Biso   1.000  H
  C221     1.0000 0.23880  0.81090  0.14290  Biso   1.000  C
  C222     1.0000 0.76120  0.31090  0.35710  Biso   1.000  C
  C223     1.0000 0.76120  0.18910  0.85710  Biso   1.000  C
  C224     1.0000 0.23880  0.68910  0.64290  Biso   1.000  C
  H405     1.0000 0.24070  0.83490  0.13810  Biso   1.000  H
  H406     1.0000 0.75930  0.33490  0.36190  Biso   1.000  H
  H407     1.0000 0.75930  0.16510  0.86190  Biso   1.000  H
  H408     1.0000 0.24070  0.66510  0.63810  Biso   1.000  H
  H409     1.0000 0.26500  0.80420  0.19080  Biso   1.000  H
  H410     1.0000 0.73500  0.30420  0.30920  Biso   1.000  H
  H411     1.0000 0.73500  0.19580  0.80920  Biso   1.000  H
  H412     1.0000 0.26500  0.69580  0.69080  Biso   1.000  H
  H413     1.0000 0.18570  0.80370  0.14370  Biso   1.000  H
  H414     1.0000 0.81430  0.30370  0.35630  Biso   1.000  H
  H415     1.0000 0.81430  0.19630  0.85630  Biso   1.000  H
  H416     1.0000 0.18570  0.69630  0.64370  Biso   1.000  H
  C225     1.0000 0.19440  0.73316  0.08390  Biso   1.000  C
  C226     1.0000 0.80560  0.23316  0.41610  Biso   1.000  C
  C227     1.0000 0.80560  0.26684  0.91610  Biso   1.000  C
  C228     1.0000 0.19440  0.76684  0.58390  Biso   1.000  C
  H417     1.0000 0.17570  0.73550  0.13700  Biso   1.000  H
  H418     1.0000 0.82430  0.23550  0.36300  Biso   1.000  H
  H419     1.0000 0.82430  0.26450  0.86300  Biso   1.000  H
  H420     1.0000 0.17570  0.76450  0.63700  Biso   1.000  H
  H421     1.0000 0.15910  0.74530  0.04900  Biso   1.000  H
  H422     1.0000 0.84090  0.24530  0.45100  Biso   1.000  H
  H423     1.0000 0.84090  0.25470  0.95100  Biso   1.000  H
  H424     1.0000 0.15910  0.75470  0.54900  Biso   1.000  H
  C229     1.0000 0.19210  0.69740  0.06210  Biso   1.000  C
  C230     1.0000 0.80790  0.19740  0.43790  Biso   1.000  C
  C231     1.0000 0.80790  0.30260  0.93790  Biso   1.000  C
  C232     1.0000 0.19210  0.80260  0.56210  Biso   1.000  C
  H425     1.0000 0.13940  0.68970  0.06110  Biso   1.000  H
  H426     1.0000 0.86060  0.18970  0.43890  Biso   1.000  H
  H427     1.0000 0.86060  0.31030  0.93890  Biso   1.000  H
  H428     1.0000 0.13940  0.81030  0.56110  Biso   1.000  H
  H429     1.0000 0.22180  0.68470  0.10010  Biso   1.000  H
  H430     1.0000 0.77820  0.18470  0.39990  Biso   1.000  H
  H431     1.0000 0.77820  0.31530  0.89990  Biso   1.000  H
  H432     1.0000 0.22180  0.81530  0.60010  Biso   1.000  H
  H433     1.0000 0.21370  0.69450  0.01090  Biso   1.000  H
  H434     1.0000 0.78630  0.19450  0.48910  Biso   1.000  H
  H435     1.0000 0.78630  0.30550  0.98910  Biso   1.000  H
  H436     1.0000 0.21370  0.80550  0.51090  Biso   1.000  H
  C233     1.0000 0.53120  0.75819  0.77430  Biso   1.000  C
  C234     1.0000 0.46880  0.25819  0.72570  Biso   1.000  C
  C235     1.0000 0.46880  0.24181  0.22570  Biso   1.000  C
  C236     1.0000 0.53120  0.74181  0.27430  Biso   1.000  C
  H437     1.0000 0.55020  0.74490  0.73100  Biso   1.000  H
  H438     1.0000 0.44980  0.24490  0.76900  Biso   1.000  H
  H439     1.0000 0.44980  0.25510  0.26900  Biso   1.000  H
  H440     1.0000 0.55020  0.75510  0.23100  Biso   1.000  H
  H441     1.0000 0.47750  0.75200  0.78170  Biso   1.000  H
  H442     1.0000 0.52250  0.25200  0.71830  Biso   1.000  H
  H443     1.0000 0.52250  0.24800  0.21830  Biso   1.000  H
  H444     1.0000 0.47750  0.74800  0.28170  Biso   1.000  H
  C237     1.0000 0.53350  0.79370  0.75130  Biso   1.000  C
  C238     1.0000 0.46650  0.29370  0.74870  Biso   1.000  C
  C239     1.0000 0.46650  0.20630  0.24870  Biso   1.000  C
  C240     1.0000 0.53350  0.70630  0.25130  Biso   1.000  C
  H445     1.0000 0.49910  0.79730  0.70690  Biso   1.000  H
  H446     1.0000 0.50090  0.29730  0.79310  Biso   1.000  H
  H447     1.0000 0.50090  0.20270  0.29310  Biso   1.000  H
  H448     1.0000 0.49910  0.70270  0.20690  Biso   1.000  H
  H449     1.0000 0.58540  0.79960  0.73750  Biso   1.000  H
  H450     1.0000 0.41460  0.29960  0.76250  Biso   1.000  H
  H451     1.0000 0.41460  0.20040  0.26250  Biso   1.000  H
  H452     1.0000 0.58540  0.70040  0.23750  Biso   1.000  H
  H453     1.0000 0.51760  0.80730  0.79460  Biso   1.000  H
  H454     1.0000 0.48240  0.30730  0.70540  Biso   1.000  H
  H455     1.0000 0.48240  0.19270  0.20540  Biso   1.000  H
  H456     1.0000 0.51760  0.69270  0.29460  Biso   1.000  H
  C241     1.0000 0.67660  0.76563  0.85570  Biso   1.000  C
  C242     1.0000 0.32340  0.26563  0.64430  Biso   1.000  C
  C243     1.0000 0.32340  0.23437  0.14430  Biso   1.000  C
  C244     1.0000 0.67660  0.73437  0.35570  Biso   1.000  C
  H457     1.0000 0.71220  0.75310  0.88950  Biso   1.000  H
  H458     1.0000 0.28780  0.25310  0.61050  Biso   1.000  H
  H459     1.0000 0.28780  0.24690  0.11050  Biso   1.000  H
  H460     1.0000 0.71220  0.74690  0.38950  Biso   1.000  H
  H461     1.0000 0.69470  0.76380  0.80220  Biso   1.000  H
  H462     1.0000 0.30530  0.26380  0.69780  Biso   1.000  H
  H463     1.0000 0.30530  0.23620  0.19780  Biso   1.000  H
  H464     1.0000 0.69470  0.73620  0.30220  Biso   1.000  H
  C245     1.0000 0.67910  0.80165  0.87990  Biso   1.000  C
  C246     1.0000 0.32090  0.30165  0.62010  Biso   1.000  C
  C247     1.0000 0.32090  0.19835  0.12010  Biso   1.000  C
  C248     1.0000 0.67910  0.69835  0.37990  Biso   1.000  C
  H465     1.0000 0.73040  0.81030  0.87280  Biso   1.000  H
  H466     1.0000 0.26960  0.31030  0.62720  Biso   1.000  H
  H467     1.0000 0.26960  0.18970  0.12720  Biso   1.000  H
  H468     1.0000 0.73040  0.68970  0.37280  Biso   1.000  H
  H469     1.0000 0.66590  0.80350  0.93430  Biso   1.000  H
  H470     1.0000 0.33410  0.30350  0.56570  Biso   1.000  H
  H471     1.0000 0.33410  0.19650  0.06570  Biso   1.000  H
  H472     1.0000 0.66590  0.69650  0.43430  Biso   1.000  H
  H473     1.0000 0.64270  0.81420  0.84810  Biso   1.000  H
  H474     1.0000 0.35730  0.31420  0.65190  Biso   1.000  H
  H475     1.0000 0.35730  0.18580  0.15190  Biso   1.000  H
  H476     1.0000 0.64270  0.68580  0.34810  Biso   1.000  H
  C249     1.0000 0.59330  0.70374  0.86350  Biso   1.000  C
  C250     1.0000 0.40670  0.20374  0.63650  Biso   1.000  C
  C251     1.0000 0.40670  0.29626  0.13650  Biso   1.000  C
  C252     1.0000 0.59330  0.79626  0.36350  Biso   1.000  C
  H477     1.0000 0.62320  0.69770  0.91040  Biso   1.000  H
  H478     1.0000 0.37680  0.19770  0.58960  Biso   1.000  H
  H479     1.0000 0.37680  0.30230  0.08960  Biso   1.000  H
  H480     1.0000 0.62320  0.80230  0.41040  Biso   1.000  H
  H481     1.0000 0.54200  0.69410  0.86820  Biso   1.000  H
  H482     1.0000 0.45800  0.19410  0.63180  Biso   1.000  H
  H483     1.0000 0.45800  0.30590  0.13180  Biso   1.000  H
  H484     1.0000 0.54200  0.80590  0.36820  Biso   1.000  H
  C253     1.0000 0.63060  0.68865  0.79380  Biso   1.000  C
  C254     1.0000 0.36940  0.18865  0.70620  Biso   1.000  C
  C255     1.0000 0.36940  0.31135  0.20620  Biso   1.000  C
  C256     1.0000 0.63060  0.81135  0.29380  Biso   1.000  C
  H485     1.0000 0.63100  0.66470  0.79890  Biso   1.000  H
  H486     1.0000 0.36900  0.16470  0.70110  Biso   1.000  H
  H487     1.0000 0.36900  0.33530  0.20110  Biso   1.000  H
  H488     1.0000 0.63100  0.83530  0.29890  Biso   1.000  H
  H489     1.0000 0.68290  0.69670  0.79070  Biso   1.000  H
  H490     1.0000 0.31710  0.19670  0.70930  Biso   1.000  H
  H491     1.0000 0.31710  0.30330  0.20930  Biso   1.000  H
  H492     1.0000 0.68290  0.80330  0.29070  Biso   1.000  H
  H493     1.0000 0.60200  0.69480  0.74680  Biso   1.000  H
  H494     1.0000 0.39800  0.19480  0.75320  Biso   1.000  H
  H495     1.0000 0.39800  0.30520  0.25320  Biso   1.000  H
  H496     1.0000 0.60200  0.80520  0.24680  Biso   1.000  H
  Cl1      1.0000 0.29709  0.89356  0.03285  Biso   1.000  Cl
  Cl2      1.0000 0.70291  0.39356  0.46715  Biso   1.000  Cl
  Cl3      1.0000 0.70291  0.10644  0.96715  Biso   1.000  Cl
  Cl4      1.0000 0.29709  0.60644  0.53285  Biso   1.000  Cl
  Cl5      1.0000 0.30305  0.90727  0.19588  Biso   1.000  Cl
  Cl6      1.0000 0.69695  0.40727  0.30412  Biso   1.000  Cl
  Cl7      1.0000 0.69695  0.09273  0.80412  Biso   1.000  Cl
  Cl8      1.0000 0.30305  0.59273  0.69588  Biso   1.000  Cl
  C257     1.0000 0.31070  0.92354  0.10340  Biso   1.000  C
  C258     1.0000 0.68930  0.42354  0.39660  Biso   1.000  C
  C259     1.0000 0.68930  0.07646  0.89660  Biso   1.000  C
  C260     1.0000 0.31070  0.57646  0.60340  Biso   1.000  C
  H497     1.0000 0.27240  0.94110  0.09570  Biso   1.000  H
  H498     1.0000 0.72760  0.44110  0.40430  Biso   1.000  H
  H499     1.0000 0.72760  0.05890  0.90430  Biso   1.000  H
  H500     1.0000 0.27240  0.55890  0.59570  Biso   1.000  H
  H501     1.0000 0.36160  0.93350  0.09810  Biso   1.000  H
  H502     1.0000 0.63840  0.43350  0.40190  Biso   1.000  H
  H503     1.0000 0.63840  0.06650  0.90190  Biso   1.000  H
  H504     1.0000 0.36160  0.56650  0.59810  Biso   1.000  H
  Cl9      1.0000 0.13185  0.65853  0.27395  Biso   1.000  Cl
  Cl10     1.0000 0.86815  0.15853  0.22605  Biso   1.000  Cl
  Cl11     1.0000 0.86815  0.34147  0.72605  Biso   1.000  Cl
  Cl12     1.0000 0.13185  0.84147  0.77395  Biso   1.000  Cl
  Cl13     1.0000 0.13675  0.64546  0.43706  Biso   1.000  Cl
  Cl14     1.0000 0.86325  0.14546  0.06294  Biso   1.000  Cl
  Cl15     1.0000 0.86325  0.35454  0.56294  Biso   1.000  Cl
  Cl16     1.0000 0.13675  0.85454  0.93706  Biso   1.000  Cl
  C261     1.0000 0.12500  0.67512  0.36550  Biso   1.000  C
  C262     1.0000 0.87500  0.17512  0.13450  Biso   1.000  C
  C263     1.0000 0.87500  0.32488  0.63450  Biso   1.000  C
  C264     1.0000 0.12500  0.82488  0.86550  Biso   1.000  C
  H505     1.0000 0.07460  0.68560  0.37040  Biso   1.000  H
  H506     1.0000 0.92540  0.18560  0.12960  Biso   1.000  H
  H507     1.0000 0.92540  0.31440  0.62960  Biso   1.000  H
  H508     1.0000 0.07460  0.81440  0.87040  Biso   1.000  H
  H509     1.0000 0.16420  0.69230  0.37280  Biso   1.000  H
  H510     1.0000 0.83580  0.19230  0.12720  Biso   1.000  H
  H511     1.0000 0.83580  0.30770  0.62720  Biso   1.000  H
  H512     1.0000 0.16420  0.80770  0.87280  Biso   1.000  H
  Cl17     1.0000 0.38853  0.11945  0.03675  Biso   1.000  Cl
  Cl18     1.0000 0.61147  0.61945  0.46325  Biso   1.000  Cl
  Cl19     1.0000 0.61147  0.88055  0.96325  Biso   1.000  Cl
  Cl20     1.0000 0.38853  0.38055  0.53675  Biso   1.000  Cl
  Cl21     1.0000 0.32549  0.10411  0.18480  Biso   1.000  Cl
  Cl22     1.0000 0.67451  0.60411  0.31520  Biso   1.000  Cl
  Cl23     1.0000 0.67451  0.89589  0.81520  Biso   1.000  Cl
  Cl24     1.0000 0.32549  0.39589  0.68480  Biso   1.000  Cl
  C265     1.0000 0.33960  0.09048  0.09180  Biso   1.000  C
  C266     1.0000 0.66040  0.59048  0.40820  Biso   1.000  C
  C267     1.0000 0.66040  0.90952  0.90820  Biso   1.000  C
  C268     1.0000 0.33960  0.40952  0.59180  Biso   1.000  C
  H513     1.0000 0.28980  0.08580  0.06650  Biso   1.000  H
  H514     1.0000 0.71020  0.58580  0.43350  Biso   1.000  H
  H515     1.0000 0.71020  0.91420  0.93350  Biso   1.000  H
  H516     1.0000 0.28980  0.41420  0.56650  Biso   1.000  H
  H517     1.0000 0.36900  0.06980  0.09370  Biso   1.000  H
  H518     1.0000 0.63100  0.56980  0.40630  Biso   1.000  H
  H519     1.0000 0.63100  0.93020  0.90630  Biso   1.000  H
  H520     1.0000 0.36900  0.43020  0.59370  Biso   1.000  H
  Cl25     1.0000 0.82318  0.63176  0.50607  Biso   1.000  Cl
  Cl26     1.0000 0.17682  0.13176  0.99393  Biso   1.000  Cl
  Cl27     1.0000 0.17682  0.36824  0.49393  Biso   1.000  Cl
  Cl28     1.0000 0.82318  0.86824  0.00607  Biso   1.000  Cl
  Cl29     1.0000 0.75824  0.64560  0.65375  Biso   1.000  Cl
  Cl30     1.0000 0.24176  0.14560  0.84625  Biso   1.000  Cl
  Cl31     1.0000 0.24176  0.35440  0.34625  Biso   1.000  Cl
  Cl32     1.0000 0.75824  0.85440  0.15375  Biso   1.000  Cl
  C269     1.0000 0.77430  0.66006  0.56260  Biso   1.000  C
  C270     1.0000 0.22570  0.16006  0.93740  Biso   1.000  C
  C271     1.0000 0.22570  0.33994  0.43740  Biso   1.000  C
  C272     1.0000 0.77430  0.83994  0.06260  Biso   1.000  C
  H521     1.0000 0.80410  0.68060  0.56640  Biso   1.000  H
  H522     1.0000 0.19590  0.18060  0.93360  Biso   1.000  H
  H523     1.0000 0.19590  0.31940  0.43360  Biso   1.000  H
  H524     1.0000 0.80410  0.81940  0.06640  Biso   1.000  H
  H525     1.0000 0.72500  0.66530  0.53680  Biso   1.000  H
  H526     1.0000 0.27500  0.16530  0.96320  Biso   1.000  H
  H527     1.0000 0.27500  0.33470  0.46320  Biso   1.000  H
  H528     1.0000 0.72500  0.83470  0.03680  Biso   1.000  H
  Cl33     1.0000 0.29160  0.41205  0.19751  Biso   1.000  Cl
  Cl34     1.0000 0.70840  0.91205  0.30249  Biso   1.000  Cl
  Cl35     1.0000 0.70840  0.58795  0.80249  Biso   1.000  Cl
  Cl36     1.0000 0.29160  0.08795  0.69751  Biso   1.000  Cl
  Cl37     1.0000 0.37227  0.38797  0.06569  Biso   1.000  Cl
  Cl38     1.0000 0.62773  0.88797  0.43431  Biso   1.000  Cl
  Cl39     1.0000 0.62773  0.61203  0.93431  Biso   1.000  Cl
  Cl40     1.0000 0.37227  0.11203  0.56569  Biso   1.000  Cl
  C273     1.0000 0.31800  0.42042  0.10290  Biso   1.000  C
  C274     1.0000 0.68200  0.92042  0.39710  Biso   1.000  C
  C275     1.0000 0.68200  0.57958  0.89710  Biso   1.000  C
  C276     1.0000 0.31800  0.07958  0.60290  Biso   1.000  C
  H529     1.0000 0.34800  0.44090  0.10210  Biso   1.000  H
  H530     1.0000 0.65200  0.94090  0.39790  Biso   1.000  H
  H531     1.0000 0.65200  0.55910  0.89790  Biso   1.000  H
  H532     1.0000 0.34800  0.05910  0.60210  Biso   1.000  H
  H533     1.0000 0.27190  0.42370  0.07000  Biso   1.000  H
  H534     1.0000 0.72810  0.92370  0.43000  Biso   1.000  H
  H535     1.0000 0.72810  0.57630  0.93000  Biso   1.000  H
  H536     1.0000 0.27190  0.07630  0.57000  Biso   1.000  H
  Cl41     1.0000 0.11148  0.87505  0.44962  Biso   1.000  Cl
  Cl42     1.0000 0.88852  0.37505  0.05038  Biso   1.000  Cl
  Cl43     1.0000 0.88852  0.12495  0.55038  Biso   1.000  Cl
  Cl44     1.0000 0.11148  0.62495  0.94962  Biso   1.000  Cl
  Cl45     1.0000 0.09850  0.85733  0.28822  Biso   1.000  Cl
  Cl46     1.0000 0.90150  0.35733  0.21178  Biso   1.000  Cl
  Cl47     1.0000 0.90150  0.14267  0.71178  Biso   1.000  Cl
  Cl48     1.0000 0.09850  0.64267  0.78822  Biso   1.000  Cl
  C277     1.0000 0.11460  0.84330  0.38180  Biso   1.000  C
  C278     1.0000 0.88540  0.34330  0.11820  Biso   1.000  C
  C279     1.0000 0.88540  0.15670  0.61820  Biso   1.000  C
  C280     1.0000 0.11460  0.65670  0.88180  Biso   1.000  C
  H537     1.0000 0.16500  0.83260  0.38530  Biso   1.000  H
  H538     1.0000 0.83500  0.33260  0.11470  Biso   1.000  H
  H539     1.0000 0.83500  0.16740  0.61470  Biso   1.000  H
  H540     1.0000 0.16500  0.66740  0.88530  Biso   1.000  H
  H541     1.0000 0.07580  0.82660  0.39410  Biso   1.000  H
  H542     1.0000 0.92420  0.32660  0.10590  Biso   1.000  H
  H543     1.0000 0.92420  0.17340  0.60590  Biso   1.000  H
  H544     1.0000 0.07580  0.67340  0.89410  Biso   1.000  H
  Cl49     1.0000 0.32325  0.87585  0.51994  Biso   1.000  Cl
  Cl50     1.0000 0.67675  0.37585  0.98006  Biso   1.000  Cl
  Cl51     1.0000 0.67675  0.12415  0.48006  Biso   1.000  Cl
  Cl52     1.0000 0.32325  0.62415  0.01994  Biso   1.000  Cl
  Cl53     1.0000 0.33530  0.89263  0.68128  Biso   1.000  Cl
  Cl54     1.0000 0.66470  0.39263  0.81872  Biso   1.000  Cl
  Cl55     1.0000 0.66470  0.10737  0.31872  Biso   1.000  Cl
  Cl56     1.0000 0.33530  0.60737  0.18128  Biso   1.000  Cl
  C281     1.0000 0.32140  0.90802  0.58840  Biso   1.000  C
  C282     1.0000 0.67860  0.40802  0.91160  Biso   1.000  C
  C283     1.0000 0.67860  0.09198  0.41160  Biso   1.000  C
  C284     1.0000 0.32140  0.59198  0.08840  Biso   1.000  C
  H545     1.0000 0.36180  0.92410  0.57730  Biso   1.000  H
  H546     1.0000 0.63820  0.42410  0.92270  Biso   1.000  H
  H547     1.0000 0.63820  0.07590  0.42270  Biso   1.000  H
  H548     1.0000 0.36180  0.57590  0.07730  Biso   1.000  H
  H549     1.0000 0.27190  0.91950  0.58470  Biso   1.000  H
  H550     1.0000 0.72810  0.41950  0.91530  Biso   1.000  H
  H551     1.0000 0.72810  0.08050  0.41530  Biso   1.000  H
  H552     1.0000 0.27190  0.58050  0.08470  Biso   1.000  H
  Cl57     1.0000 0.72728  0.83950  0.66795  Biso   1.000  Cl
  Cl58     1.0000 0.27272  0.33950  0.83205  Biso   1.000  Cl
  Cl59     1.0000 0.27272  0.16050  0.33205  Biso   1.000  Cl
  Cl60     1.0000 0.72728  0.66050  0.16795  Biso   1.000  Cl
  Cl61     1.0000 0.80507  0.86393  0.53431  Biso   1.000  Cl
  Cl62     1.0000 0.19493  0.36393  0.96569  Biso   1.000  Cl
  Cl63     1.0000 0.19493  0.13607  0.46569  Biso   1.000  Cl
  Cl64     1.0000 0.80507  0.63607  0.03431  Biso   1.000  Cl
  C285     1.0000 0.75280  0.83162  0.57360  Biso   1.000  C
  C286     1.0000 0.24720  0.33162  0.92640  Biso   1.000  C
  C287     1.0000 0.24720  0.16838  0.42640  Biso   1.000  C
  C288     1.0000 0.75280  0.66838  0.07360  Biso   1.000  C
  H553     1.0000 0.70640  0.82800  0.54140  Biso   1.000  H
  H554     1.0000 0.29360  0.32800  0.95860  Biso   1.000  H
  H555     1.0000 0.29360  0.17200  0.45860  Biso   1.000  H
  H556     1.0000 0.70640  0.67200  0.04140  Biso   1.000  H
  H557     1.0000 0.78350  0.81130  0.57240  Biso   1.000  H
  H558     1.0000 0.21650  0.31130  0.92760  Biso   1.000  H
  H559     1.0000 0.21650  0.18870  0.42760  Biso   1.000  H
  H560     1.0000 0.78350  0.68870  0.07240  Biso   1.000  H
