data_image0
_cell_length_a       11.0753
_cell_length_b       32.119
_cell_length_c       47.079
_cell_angle_alpha    90
_cell_angle_beta     92.659
_cell_angle_gamma    90

_symmetry_space_group_name_H-M    "P 1"
_symmetry_int_tables_number       1

loop_
  _symmetry_equiv_pos_as_xyz
  'x, y, z'

loop_
  _atom_site_label
  _atom_site_occupancy
  _atom_site_fract_x
  _atom_site_fract_y
  _atom_site_fract_z
  _atom_site_thermal_displace_type
  _atom_site_B_iso_or_equiv
  _atom_site_type_symbol
  Br1      1.0000 0.43745  0.74587  0.13289  Biso   1.000  Br
  Br2      1.0000 0.06255  0.24587  0.36711  Biso   1.000  Br
  Br3      1.0000 0.56255  0.25413  0.86711  Biso   1.000  Br
  Br4      1.0000 0.93745  0.75413  0.63289  Biso   1.000  Br
  Br5      1.0000 0.44710  0.72631  0.24295  Biso   1.000  Br
  Br6      1.0000 0.05290  0.22631  0.25705  Biso   1.000  Br
  Br7      1.0000 0.55290  0.27369  0.75705  Biso   1.000  Br
  Br8      1.0000 0.94710  0.77369  0.74295  Biso   1.000  Br
  Cu1      1.0000 0.68160  0.74507  0.13185  Biso   1.000  Cu
  Cu2      1.0000 0.81840  0.24507  0.36815  Biso   1.000  Cu
  Cu3      1.0000 0.31840  0.25493  0.86815  Biso   1.000  Cu
  Cu4      1.0000 0.18160  0.75493  0.63185  Biso   1.000  Cu
  Cu5      1.0000 0.50580  0.73366  0.30108  Biso   1.000  Cu
  Cu6      1.0000 0.99420  0.23366  0.19892  Biso   1.000  Cu
  Cu7      1.0000 0.49420  0.26634  0.69892  Biso   1.000  Cu
  Cu8      1.0000 0.00580  0.76634  0.80108  Biso   1.000  Cu
  S1       1.0000 0.75650  0.71190  0.27488  Biso   1.000  S
  S2       1.0000 0.74350  0.21190  0.22512  Biso   1.000  S
  S3       1.0000 0.24350  0.28810  0.72512  Biso   1.000  S
  S4       1.0000 0.25650  0.78810  0.77488  Biso   1.000  S
  O1       1.0000 0.96080  0.49950  0.28526  Biso   1.000  O
  O2       1.0000 0.53920  0.99950  0.21474  Biso   1.000  O
  O3       1.0000 0.03920  0.50050  0.71474  Biso   1.000  O
  O4       1.0000 0.46080  0.00050  0.78526  Biso   1.000  O
  O5       1.0000 0.14450  0.45610  0.26853  Biso   1.000  O
  O6       1.0000 0.35550  0.95610  0.23147  Biso   1.000  O
  O7       1.0000 0.85550  0.54390  0.73147  Biso   1.000  O
  O8       1.0000 0.64450  0.04390  0.76853  Biso   1.000  O
  O9       1.0000 0.57340  0.40020  0.36510  Biso   1.000  O
  O10      1.0000 0.92660  0.90020  0.13490  Biso   1.000  O
  O11      1.0000 0.42660  0.59980  0.63490  Biso   1.000  O
  O12      1.0000 0.07340  0.09980  0.86510  Biso   1.000  O
  O13      1.0000 0.54560  0.43210  0.41360  Biso   1.000  O
  O14      1.0000 0.95440  0.93210  0.08640  Biso   1.000  O
  O15      1.0000 0.45440  0.56790  0.58640  Biso   1.000  O
  O16      1.0000 0.04560  0.06790  0.91360  Biso   1.000  O
  O17      1.0000 0.05030  0.52410  0.45757  Biso   1.000  O
  O18      1.0000 0.44970  0.02410  0.04243  Biso   1.000  O
  O19      1.0000 0.94970  0.47590  0.54243  Biso   1.000  O
  O20      1.0000 0.55030  0.97590  0.95757  Biso   1.000  O
  O21      1.0000 0.88410  0.54480  0.42029  Biso   1.000  O
  O22      1.0000 0.61590  0.04480  0.07971  Biso   1.000  O
  O23      1.0000 0.11590  0.45520  0.57971  Biso   1.000  O
  O24      1.0000 0.38410  0.95520  0.92029  Biso   1.000  O
  O25      1.0000 0.98570  0.99450  0.27996  Biso   1.000  O
  O26      1.0000 0.51430  0.49450  0.22004  Biso   1.000  O
  O27      1.0000 0.01430  0.00550  0.72004  Biso   1.000  O
  O28      1.0000 0.48570  0.50550  0.77996  Biso   1.000  O
  O29      1.0000 0.16900  0.03310  0.26073  Biso   1.000  O
  O30      1.0000 0.33100  0.53310  0.23927  Biso   1.000  O
  O31      1.0000 0.83100  0.96690  0.73927  Biso   1.000  O
  O32      1.0000 0.66900  0.46690  0.76073  Biso   1.000  O
  O33      1.0000 0.61460  0.07590  0.35020  Biso   1.000  O
  O34      1.0000 0.88540  0.57590  0.14980  Biso   1.000  O
  O35      1.0000 0.38540  0.92410  0.64980  Biso   1.000  O
  O36      1.0000 0.11460  0.42410  0.85020  Biso   1.000  O
  O37      1.0000 0.59390  0.05420  0.40390  Biso   1.000  O
  O38      1.0000 0.90610  0.55420  0.09610  Biso   1.000  O
  O39      1.0000 0.40610  0.94580  0.59610  Biso   1.000  O
  O40      1.0000 0.09390  0.44580  0.90390  Biso   1.000  O
  O41      1.0000 0.09520  0.97810  0.45379  Biso   1.000  O
  O42      1.0000 0.40480  0.47810  0.04621  Biso   1.000  O
  O43      1.0000 0.90480  0.02190  0.54621  Biso   1.000  O
  O44      1.0000 0.59520  0.52190  0.95379  Biso   1.000  O
  O45      1.0000 0.91380  0.96100  0.41886  Biso   1.000  O
  O46      1.0000 0.58620  0.46100  0.08114  Biso   1.000  O
  O47      1.0000 0.08620  0.03900  0.58114  Biso   1.000  O
  O48      1.0000 0.41380  0.53900  0.91886  Biso   1.000  O
  O49      1.0000 0.68650  0.73730  0.29650  Biso   1.000  O
  O50      1.0000 0.81350  0.23730  0.20350  Biso   1.000  O
  O51      1.0000 0.31350  0.26270  0.70350  Biso   1.000  O
  O52      1.0000 0.18650  0.76270  0.79650  Biso   1.000  O
  O53      1.0000 0.30870  0.72890  0.31950  Biso   1.000  O
  O54      1.0000 0.19130  0.22890  0.18050  Biso   1.000  O
  O55      1.0000 0.69130  0.27110  0.68050  Biso   1.000  O
  O56      1.0000 0.80870  0.77110  0.81950  Biso   1.000  O
  N1       1.0000 0.71530  0.70130  0.16150  Biso   1.000  N
  N2       1.0000 0.78470  0.20130  0.33850  Biso   1.000  N
  N3       1.0000 0.28470  0.29870  0.83850  Biso   1.000  N
  N4       1.0000 0.21530  0.79870  0.66150  Biso   1.000  N
  N5       1.0000 0.18590  0.71000  0.60180  Biso   1.000  N
  N6       1.0000 0.31410  0.21000  0.89820  Biso   1.000  N
  N7       1.0000 0.81410  0.29000  0.39820  Biso   1.000  N
  N8       1.0000 0.68590  0.79000  0.10180  Biso   1.000  N
  N9       1.0000 0.49850  0.79310  0.30300  Biso   1.000  N
  N10      1.0000 0.00150  0.29310  0.19700  Biso   1.000  N
  N11      1.0000 0.50150  0.20690  0.69700  Biso   1.000  N
  N12      1.0000 0.99850  0.70690  0.80300  Biso   1.000  N
  N13      1.0000 0.70890  0.78810  0.16380  Biso   1.000  N
  N14      1.0000 0.79110  0.28810  0.33620  Biso   1.000  N
  N15      1.0000 0.29110  0.21190  0.83620  Biso   1.000  N
  N16      1.0000 0.20890  0.71190  0.66380  Biso   1.000  N
  N17      1.0000 0.19270  0.79920  0.60090  Biso   1.000  N
  N18      1.0000 0.30730  0.29920  0.89910  Biso   1.000  N
  N19      1.0000 0.80730  0.20080  0.39910  Biso   1.000  N
  N20      1.0000 0.69270  0.70080  0.10090  Biso   1.000  N
  C1       1.0000 0.98210  0.42240  0.34330  Biso   1.000  C
  C2       1.0000 0.51790  0.92240  0.15670  Biso   1.000  C
  C3       1.0000 0.01790  0.57760  0.65670  Biso   1.000  C
  C4       1.0000 0.48210  0.07760  0.84330  Biso   1.000  C
  C5       1.0000 0.94140  0.45580  0.32630  Biso   1.000  C
  C6       1.0000 0.55860  0.95580  0.17370  Biso   1.000  C
  C7       1.0000 0.05860  0.54420  0.67370  Biso   1.000  C
  C8       1.0000 0.44140  0.04420  0.82630  Biso   1.000  C
  H1       1.0000 0.87260  0.47110  0.33170  Biso   1.000  H
  H2       1.0000 0.62740  0.97110  0.16830  Biso   1.000  H
  H3       1.0000 0.12740  0.52890  0.66830  Biso   1.000  H
  H4       1.0000 0.37260  0.02890  0.83170  Biso   1.000  H
  C9       1.0000 0.99690  0.46720  0.30240  Biso   1.000  C
  C10      1.0000 0.50310  0.96720  0.19760  Biso   1.000  C
  C11      1.0000 0.00310  0.53280  0.69760  Biso   1.000  C
  C12      1.0000 0.49690  0.03280  0.80240  Biso   1.000  C
  C13      1.0000 0.09630  0.44300  0.29290  Biso   1.000  C
  C14      1.0000 0.40370  0.94300  0.20710  Biso   1.000  C
  C15      1.0000 0.90370  0.55700  0.70710  Biso   1.000  C
  C16      1.0000 0.59630  0.05700  0.79290  Biso   1.000  C
  C17      1.0000 0.13890  0.41070  0.30880  Biso   1.000  C
  C18      1.0000 0.36110  0.91070  0.19120  Biso   1.000  C
  C19      1.0000 0.86110  0.58930  0.69120  Biso   1.000  C
  C20      1.0000 0.63890  0.08930  0.80880  Biso   1.000  C
  H5       1.0000 0.20640  0.39540  0.30270  Biso   1.000  H
  H6       1.0000 0.29360  0.89540  0.19730  Biso   1.000  H
  H7       1.0000 0.79360  0.60460  0.69730  Biso   1.000  H
  H8       1.0000 0.70640  0.10460  0.80270  Biso   1.000  H
  C21      1.0000 0.08410  0.39890  0.33480  Biso   1.000  C
  C22      1.0000 0.41590  0.89890  0.16520  Biso   1.000  C
  C23      1.0000 0.91590  0.60110  0.66520  Biso   1.000  C
  C24      1.0000 0.58410  0.10110  0.83480  Biso   1.000  C
  C25      1.0000 0.14170  0.36290  0.35110  Biso   1.000  C
  C26      1.0000 0.35830  0.86290  0.14890  Biso   1.000  C
  C27      1.0000 0.85830  0.63710  0.64890  Biso   1.000  C
  C28      1.0000 0.64170  0.13710  0.85110  Biso   1.000  C
  H9       1.0000 0.17070  0.34180  0.33770  Biso   1.000  H
  H10      1.0000 0.32930  0.84180  0.16230  Biso   1.000  H
  H11      1.0000 0.82930  0.65820  0.66230  Biso   1.000  H
  H12      1.0000 0.67070  0.15820  0.83770  Biso   1.000  H
  H13      1.0000 0.08140  0.34960  0.36310  Biso   1.000  H
  H14      1.0000 0.41860  0.84960  0.13690  Biso   1.000  H
  H15      1.0000 0.91860  0.65040  0.63690  Biso   1.000  H
  H16      1.0000 0.58140  0.15040  0.86310  Biso   1.000  H
  C29      1.0000 0.24820  0.37920  0.37000  Biso   1.000  C
  C30      1.0000 0.25180  0.87920  0.13000  Biso   1.000  C
  C31      1.0000 0.75180  0.62080  0.63000  Biso   1.000  C
  C32      1.0000 0.74820  0.12080  0.87000  Biso   1.000  C
  C33      1.0000 0.35910  0.38250  0.35920  Biso   1.000  C
  C34      1.0000 0.14090  0.88250  0.14080  Biso   1.000  C
  C35      1.0000 0.64090  0.61750  0.64080  Biso   1.000  C
  C36      1.0000 0.85910  0.11750  0.85920  Biso   1.000  C
  H17      1.0000 0.36810  0.37360  0.34020  Biso   1.000  H
  H18      1.0000 0.13190  0.87360  0.15980  Biso   1.000  H
  H19      1.0000 0.63190  0.62640  0.65980  Biso   1.000  H
  H20      1.0000 0.86810  0.12640  0.84020  Biso   1.000  H
  C37      1.0000 0.45770  0.39770  0.37360  Biso   1.000  C
  C38      1.0000 0.04230  0.89770  0.12640  Biso   1.000  C
  C39      1.0000 0.54230  0.60230  0.62640  Biso   1.000  C
  C40      1.0000 0.95770  0.10230  0.87360  Biso   1.000  C
  C41      1.0000 0.44200  0.41160  0.40130  Biso   1.000  C
  C42      1.0000 0.05800  0.91160  0.09870  Biso   1.000  C
  C43      1.0000 0.55800  0.58840  0.59870  Biso   1.000  C
  C44      1.0000 0.94200  0.08840  0.90130  Biso   1.000  C
  C45      1.0000 0.33600  0.40930  0.41310  Biso   1.000  C
  C46      1.0000 0.16400  0.90930  0.08690  Biso   1.000  C
  C47      1.0000 0.66400  0.59070  0.58690  Biso   1.000  C
  C48      1.0000 0.83600  0.09070  0.91310  Biso   1.000  C
  H21      1.0000 0.32800  0.42040  0.43160  Biso   1.000  H
  H22      1.0000 0.17200  0.92040  0.06840  Biso   1.000  H
  H23      1.0000 0.67200  0.57960  0.56840  Biso   1.000  H
  H24      1.0000 0.82800  0.07960  0.93160  Biso   1.000  H
  C49      1.0000 0.22900  0.39010  0.39840  Biso   1.000  C
  C50      1.0000 0.27100  0.89010  0.10160  Biso   1.000  C
  C51      1.0000 0.77100  0.60990  0.60160  Biso   1.000  C
  C52      1.0000 0.72900  0.10990  0.89840  Biso   1.000  C
  C53      1.0000 0.11550  0.38790  0.41340  Biso   1.000  C
  C54      1.0000 0.38450  0.88790  0.08660  Biso   1.000  C
  C55      1.0000 0.88450  0.61210  0.58660  Biso   1.000  C
  C56      1.0000 0.61550  0.11210  0.91340  Biso   1.000  C
  H25      1.0000 0.06140  0.36730  0.40370  Biso   1.000  H
  H26      1.0000 0.43860  0.86730  0.09630  Biso   1.000  H
  H27      1.0000 0.93860  0.63270  0.59630  Biso   1.000  H
  H28      1.0000 0.56140  0.13270  0.90370  Biso   1.000  H
  H29      1.0000 0.13370  0.37780  0.43300  Biso   1.000  H
  H30      1.0000 0.36630  0.87780  0.06700  Biso   1.000  H
  H31      1.0000 0.86630  0.62220  0.56700  Biso   1.000  H
  H32      1.0000 0.63370  0.12220  0.93300  Biso   1.000  H
  C57      1.0000 0.05120  0.42800  0.41490  Biso   1.000  C
  C58      1.0000 0.44880  0.92800  0.08510  Biso   1.000  C
  C59      1.0000 0.94880  0.57200  0.58510  Biso   1.000  C
  C60      1.0000 0.55120  0.07200  0.91490  Biso   1.000  C
  C61      1.0000 0.08100  0.45740  0.43520  Biso   1.000  C
  C62      1.0000 0.41900  0.95740  0.06480  Biso   1.000  C
  C63      1.0000 0.91900  0.54260  0.56480  Biso   1.000  C
  C64      1.0000 0.58100  0.04260  0.93520  Biso   1.000  C
  H33      1.0000 0.14610  0.45130  0.44840  Biso   1.000  H
  H34      1.0000 0.35390  0.95130  0.05160  Biso   1.000  H
  H35      1.0000 0.85390  0.54870  0.55160  Biso   1.000  H
  H36      1.0000 0.64610  0.04870  0.94840  Biso   1.000  H
  C65      1.0000 0.02490  0.49400  0.43770  Biso   1.000  C
  C66      1.0000 0.47510  0.99400  0.06230  Biso   1.000  C
  C67      1.0000 0.97510  0.50600  0.56230  Biso   1.000  C
  C68      1.0000 0.52490  0.00600  0.93770  Biso   1.000  C
  C69      1.0000 0.93450  0.50610  0.41680  Biso   1.000  C
  C70      1.0000 0.56550  0.00610  0.08320  Biso   1.000  C
  C71      1.0000 0.06550  0.49390  0.58320  Biso   1.000  C
  C72      1.0000 0.43450  0.99390  0.91680  Biso   1.000  C
  C73      1.0000 0.90350  0.47740  0.39600  Biso   1.000  C
  C74      1.0000 0.59650  0.97740  0.10400  Biso   1.000  C
  C75      1.0000 0.09650  0.52260  0.60400  Biso   1.000  C
  C76      1.0000 0.40350  0.02260  0.89600  Biso   1.000  C
  H37      1.0000 0.84330  0.48490  0.38190  Biso   1.000  H
  H38      1.0000 0.65670  0.98490  0.11810  Biso   1.000  H
  H39      1.0000 0.15670  0.51510  0.61810  Biso   1.000  H
  H40      1.0000 0.34330  0.01510  0.88190  Biso   1.000  H
  C77      1.0000 0.95230  0.44030  0.39450  Biso   1.000  C
  C78      1.0000 0.54770  0.94030  0.10550  Biso   1.000  C
  C79      1.0000 0.04770  0.55970  0.60550  Biso   1.000  C
  C80      1.0000 0.45230  0.05970  0.89450  Biso   1.000  C
  C81      1.0000 0.91170  0.41100  0.36970  Biso   1.000  C
  C82      1.0000 0.58830  0.91100  0.13030  Biso   1.000  C
  C83      1.0000 0.08830  0.58900  0.63030  Biso   1.000  C
  C84      1.0000 0.41170  0.08900  0.86970  Biso   1.000  C
  H41      1.0000 0.92800  0.38170  0.37520  Biso   1.000  H
  H42      1.0000 0.57200  0.88170  0.12480  Biso   1.000  H
  H43      1.0000 0.07200  0.61830  0.62480  Biso   1.000  H
  H44      1.0000 0.42800  0.11830  0.87520  Biso   1.000  H
  H45      1.0000 0.82380  0.41410  0.36540  Biso   1.000  H
  H46      1.0000 0.67620  0.91410  0.13460  Biso   1.000  H
  H47      1.0000 0.17620  0.58590  0.63460  Biso   1.000  H
  H48      1.0000 0.32380  0.08590  0.86540  Biso   1.000  H
  C85      1.0000 0.86430  0.52500  0.29550  Biso   1.000  C
  C86      1.0000 0.63570  0.02500  0.20450  Biso   1.000  C
  C87      1.0000 0.13570  0.47500  0.70450  Biso   1.000  C
  C88      1.0000 0.36430  0.97500  0.79550  Biso   1.000  C
  H49      1.0000 0.88830  0.53750  0.31420  Biso   1.000  H
  H50      1.0000 0.61170  0.03750  0.18580  Biso   1.000  H
  H51      1.0000 0.11170  0.46250  0.68580  Biso   1.000  H
  H52      1.0000 0.38830  0.96250  0.81420  Biso   1.000  H
  H53      1.0000 0.79030  0.50820  0.29760  Biso   1.000  H
  H54      1.0000 0.70970  0.00820  0.20240  Biso   1.000  H
  H55      1.0000 0.20970  0.49180  0.70240  Biso   1.000  H
  H56      1.0000 0.29030  0.99180  0.79760  Biso   1.000  H
  C89      1.0000 0.84280  0.55860  0.27320  Biso   1.000  C
  C90      1.0000 0.65720  0.05860  0.22680  Biso   1.000  C
  C91      1.0000 0.15720  0.44140  0.72680  Biso   1.000  C
  C92      1.0000 0.34280  0.94140  0.77320  Biso   1.000  C
  C93      1.0000 0.73420  0.55750  0.25730  Biso   1.000  C
  C94      1.0000 0.76580  0.05750  0.24270  Biso   1.000  C
  C95      1.0000 0.26580  0.44250  0.74270  Biso   1.000  C
  C96      1.0000 0.23420  0.94250  0.75730  Biso   1.000  C
  H57      1.0000 0.67690  0.53620  0.26050  Biso   1.000  H
  H58      1.0000 0.82310  0.03620  0.23950  Biso   1.000  H
  H59      1.0000 0.32310  0.46380  0.73950  Biso   1.000  H
  H60      1.0000 0.17690  0.96380  0.76050  Biso   1.000  H
  C97      1.0000 0.71070  0.58560  0.23790  Biso   1.000  C
  C98      1.0000 0.78930  0.08560  0.26210  Biso   1.000  C
  C99      1.0000 0.28930  0.41440  0.76210  Biso   1.000  C
  C100     1.0000 0.21070  0.91440  0.73790  Biso   1.000  C
  H61      1.0000 0.63440  0.58440  0.22780  Biso   1.000  H
  H62      1.0000 0.86560  0.08440  0.27220  Biso   1.000  H
  H63      1.0000 0.36560  0.41560  0.77220  Biso   1.000  H
  H64      1.0000 0.13440  0.91560  0.72780  Biso   1.000  H
  C101     1.0000 0.78940  0.61760  0.23080  Biso   1.000  C
  C102     1.0000 0.71060  0.11760  0.26920  Biso   1.000  C
  C103     1.0000 0.21060  0.38240  0.76920  Biso   1.000  C
  C104     1.0000 0.28940  0.88240  0.73080  Biso   1.000  C
  C105     1.0000 0.90160  0.61750  0.24670  Biso   1.000  C
  C106     1.0000 0.59840  0.11750  0.25330  Biso   1.000  C
  C107     1.0000 0.09840  0.38250  0.75330  Biso   1.000  C
  C108     1.0000 0.40160  0.88250  0.74670  Biso   1.000  C
  H65      1.0000 0.96140  0.63760  0.24290  Biso   1.000  H
  H66      1.0000 0.53860  0.13760  0.25710  Biso   1.000  H
  H67      1.0000 0.03860  0.36240  0.75710  Biso   1.000  H
  H68      1.0000 0.46140  0.86240  0.74290  Biso   1.000  H
  C109     1.0000 0.92380  0.58850  0.26760  Biso   1.000  C
  C110     1.0000 0.57620  0.08850  0.23240  Biso   1.000  C
  C111     1.0000 0.07620  0.41150  0.73240  Biso   1.000  C
  C112     1.0000 0.42380  0.91150  0.76760  Biso   1.000  C
  H69      1.0000 0.99830  0.58950  0.27840  Biso   1.000  H
  H70      1.0000 0.50170  0.08950  0.22160  Biso   1.000  H
  H71      1.0000 0.00170  0.41050  0.72160  Biso   1.000  H
  H72      1.0000 0.49830  0.91050  0.77840  Biso   1.000  H
  C113     1.0000 0.76480  0.64690  0.20820  Biso   1.000  C
  C114     1.0000 0.73520  0.14690  0.29180  Biso   1.000  C
  C115     1.0000 0.23520  0.35310  0.79180  Biso   1.000  C
  C116     1.0000 0.26480  0.85310  0.70820  Biso   1.000  C
  C117     1.0000 0.65040  0.65850  0.20040  Biso   1.000  C
  C118     1.0000 0.84960  0.15850  0.29960  Biso   1.000  C
  C119     1.0000 0.34960  0.34150  0.79960  Biso   1.000  C
  C120     1.0000 0.15040  0.84150  0.70040  Biso   1.000  C
  H73      1.0000 0.58450  0.64820  0.21050  Biso   1.000  H
  H74      1.0000 0.91550  0.14820  0.28950  Biso   1.000  H
  H75      1.0000 0.41550  0.35180  0.78950  Biso   1.000  H
  H76      1.0000 0.08450  0.85180  0.71050  Biso   1.000  H
  C121     1.0000 0.62830  0.68670  0.17680  Biso   1.000  C
  C122     1.0000 0.87170  0.18670  0.32320  Biso   1.000  C
  C123     1.0000 0.37170  0.31330  0.82320  Biso   1.000  C
  C124     1.0000 0.12830  0.81330  0.67680  Biso   1.000  C
  H77      1.0000 0.54750  0.69490  0.17210  Biso   1.000  H
  H78      1.0000 0.95250  0.19490  0.32790  Biso   1.000  H
  H79      1.0000 0.45250  0.30510  0.82790  Biso   1.000  H
  H80      1.0000 0.04750  0.80510  0.67210  Biso   1.000  H
  C125     1.0000 0.83060  0.68970  0.16890  Biso   1.000  C
  C126     1.0000 0.66940  0.18970  0.33110  Biso   1.000  C
  C127     1.0000 0.16940  0.31030  0.83110  Biso   1.000  C
  C128     1.0000 0.33060  0.81030  0.66890  Biso   1.000  C
  H81      1.0000 0.89500  0.69940  0.15800  Biso   1.000  H
  H82      1.0000 0.60500  0.19940  0.34200  Biso   1.000  H
  H83      1.0000 0.10500  0.30060  0.84200  Biso   1.000  H
  H84      1.0000 0.39500  0.80060  0.65800  Biso   1.000  H
  C129     1.0000 0.85600  0.66310  0.19260  Biso   1.000  C
  C130     1.0000 0.64400  0.16310  0.30740  Biso   1.000  C
  C131     1.0000 0.14400  0.33690  0.80740  Biso   1.000  C
  C132     1.0000 0.35600  0.83690  0.69260  Biso   1.000  C
  H85      1.0000 0.93760  0.65640  0.19780  Biso   1.000  H
  H86      1.0000 0.56240  0.15640  0.30220  Biso   1.000  H
  H87      1.0000 0.06240  0.34360  0.80220  Biso   1.000  H
  H88      1.0000 0.43760  0.84360  0.69780  Biso   1.000  H
  C133     1.0000 0.24320  0.43460  0.25870  Biso   1.000  C
  C134     1.0000 0.25680  0.93460  0.24130  Biso   1.000  C
  C135     1.0000 0.75680  0.56540  0.74130  Biso   1.000  C
  C136     1.0000 0.74320  0.06540  0.75870  Biso   1.000  C
  H89      1.0000 0.30760  0.43360  0.27370  Biso   1.000  H
  H90      1.0000 0.19240  0.93360  0.22630  Biso   1.000  H
  H91      1.0000 0.69240  0.56640  0.72630  Biso   1.000  H
  H92      1.0000 0.80760  0.06640  0.77370  Biso   1.000  H
  H93      1.0000 0.27270  0.44870  0.24200  Biso   1.000  H
  H94      1.0000 0.22730  0.94870  0.25800  Biso   1.000  H
  H95      1.0000 0.72730  0.55130  0.75800  Biso   1.000  H
  H96      1.0000 0.77270  0.05130  0.74200  Biso   1.000  H
  H97      1.0000 0.21880  0.40610  0.25360  Biso   1.000  H
  H98      1.0000 0.28120  0.90610  0.24640  Biso   1.000  H
  H99      1.0000 0.78120  0.59390  0.74640  Biso   1.000  H
  H100     1.0000 0.71880  0.09390  0.75360  Biso   1.000  H
  C137     1.0000 0.58110  0.41240  0.33590  Biso   1.000  C
  C138     1.0000 0.91890  0.91240  0.16410  Biso   1.000  C
  C139     1.0000 0.41890  0.58760  0.66410  Biso   1.000  C
  C140     1.0000 0.08110  0.08760  0.83590  Biso   1.000  C
  H101     1.0000 0.52040  0.39660  0.32410  Biso   1.000  H
  H102     1.0000 0.97960  0.89660  0.17590  Biso   1.000  H
  H103     1.0000 0.47960  0.60340  0.67590  Biso   1.000  H
  H104     1.0000 0.02040  0.10340  0.82410  Biso   1.000  H
  H105     1.0000 0.66210  0.40500  0.32940  Biso   1.000  H
  H106     1.0000 0.83790  0.90500  0.17060  Biso   1.000  H
  H107     1.0000 0.33790  0.59500  0.67060  Biso   1.000  H
  H108     1.0000 0.16210  0.09500  0.82940  Biso   1.000  H
  C141     1.0000 0.56020  0.45840  0.33150  Biso   1.000  C
  C142     1.0000 0.93980  0.95840  0.16850  Biso   1.000  C
  C143     1.0000 0.43980  0.54160  0.66850  Biso   1.000  C
  C144     1.0000 0.06020  0.04160  0.83150  Biso   1.000  C
  C145     1.0000 0.52680  0.47120  0.30420  Biso   1.000  C
  C146     1.0000 0.97320  0.97120  0.19580  Biso   1.000  C
  C147     1.0000 0.47320  0.52880  0.69580  Biso   1.000  C
  C148     1.0000 0.02680  0.02880  0.80420  Biso   1.000  C
  H109     1.0000 0.51560  0.45130  0.28940  Biso   1.000  H
  H110     1.0000 0.98440  0.95130  0.21060  Biso   1.000  H
  H111     1.0000 0.48440  0.54870  0.71060  Biso   1.000  H
  H112     1.0000 0.01560  0.04870  0.78940  Biso   1.000  H
  C149     1.0000 0.50920  0.51440  0.29810  Biso   1.000  C
  C150     1.0000 0.99080  0.01440  0.20190  Biso   1.000  C
  C151     1.0000 0.49080  0.48560  0.70190  Biso   1.000  C
  C152     1.0000 0.00920  0.98560  0.79810  Biso   1.000  C
  H113     1.0000 0.48060  0.52370  0.27980  Biso   1.000  H
  H114     1.0000 0.01940  0.02370  0.22020  Biso   1.000  H
  H115     1.0000 0.51940  0.47630  0.72020  Biso   1.000  H
  H116     1.0000 0.98060  0.97630  0.77980  Biso   1.000  H
  C153     1.0000 0.53620  0.54300  0.32060  Biso   1.000  C
  C154     1.0000 0.96380  0.04300  0.17940  Biso   1.000  C
  C155     1.0000 0.46380  0.45700  0.67940  Biso   1.000  C
  C156     1.0000 0.03620  0.95700  0.82060  Biso   1.000  C
  C157     1.0000 0.57520  0.52610  0.34700  Biso   1.000  C
  C158     1.0000 0.92480  0.02610  0.15300  Biso   1.000  C
  C159     1.0000 0.42480  0.47390  0.65300  Biso   1.000  C
  C160     1.0000 0.07520  0.97390  0.84700  Biso   1.000  C
  H117     1.0000 0.59460  0.54480  0.36220  Biso   1.000  H
  H118     1.0000 0.90540  0.04480  0.13780  Biso   1.000  H
  H119     1.0000 0.40540  0.45520  0.63780  Biso   1.000  H
  H120     1.0000 0.09460  0.95520  0.86220  Biso   1.000  H
  C161     1.0000 0.58620  0.48520  0.35190  Biso   1.000  C
  C162     1.0000 0.91380  0.98520  0.14810  Biso   1.000  C
  C163     1.0000 0.41380  0.51480  0.64810  Biso   1.000  C
  C164     1.0000 0.08620  0.01480  0.85190  Biso   1.000  C
  H121     1.0000 0.61290  0.47550  0.37020  Biso   1.000  H
  H122     1.0000 0.88710  0.97550  0.12980  Biso   1.000  H
  H123     1.0000 0.38710  0.52450  0.62980  Biso   1.000  H
  H124     1.0000 0.11290  0.02450  0.87020  Biso   1.000  H
  C165     1.0000 0.53700  0.58530  0.31380  Biso   1.000  C
  C166     1.0000 0.96300  0.08530  0.18620  Biso   1.000  C
  C167     1.0000 0.46300  0.41470  0.68620  Biso   1.000  C
  C168     1.0000 0.03700  0.91470  0.81380  Biso   1.000  C
  C169     1.0000 0.46490  0.60190  0.29160  Biso   1.000  C
  C170     1.0000 0.03510  0.10190  0.20840  Biso   1.000  C
  C171     1.0000 0.53510  0.39810  0.70840  Biso   1.000  C
  C172     1.0000 0.96490  0.89810  0.79160  Biso   1.000  C
  H125     1.0000 0.41990  0.58390  0.27910  Biso   1.000  H
  H126     1.0000 0.08010  0.08390  0.22090  Biso   1.000  H
  H127     1.0000 0.58010  0.41610  0.72090  Biso   1.000  H
  H128     1.0000 0.91990  0.91610  0.77910  Biso   1.000  H
  C173     1.0000 0.45870  0.64470  0.28770  Biso   1.000  C
  C174     1.0000 0.04130  0.14470  0.21230  Biso   1.000  C
  C175     1.0000 0.54130  0.35530  0.71230  Biso   1.000  C
  C176     1.0000 0.95870  0.85530  0.78770  Biso   1.000  C
  H129     1.0000 0.40950  0.65600  0.27260  Biso   1.000  H
  H130     1.0000 0.09050  0.15600  0.22740  Biso   1.000  H
  H131     1.0000 0.59050  0.34400  0.72740  Biso   1.000  H
  H132     1.0000 0.90950  0.84400  0.77260  Biso   1.000  H
  N21      1.0000 0.52450  0.67110  0.30610  Biso   1.000  N
  N22      1.0000 0.97550  0.17110  0.19390  Biso   1.000  N
  N23      1.0000 0.47550  0.32890  0.69390  Biso   1.000  N
  N24      1.0000 0.02450  0.82890  0.80610  Biso   1.000  N
  C177     1.0000 0.59660  0.65450  0.32820  Biso   1.000  C
  C178     1.0000 0.90340  0.15450  0.17180  Biso   1.000  C
  C179     1.0000 0.40340  0.34550  0.67180  Biso   1.000  C
  C180     1.0000 0.09660  0.84550  0.82820  Biso   1.000  C
  H133     1.0000 0.64160  0.67250  0.34080  Biso   1.000  H
  H134     1.0000 0.85840  0.17250  0.15920  Biso   1.000  H
  H135     1.0000 0.35840  0.32750  0.65920  Biso   1.000  H
  H136     1.0000 0.14160  0.82750  0.84080  Biso   1.000  H
  C181     1.0000 0.60280  0.61170  0.33210  Biso   1.000  C
  C182     1.0000 0.89720  0.11170  0.16790  Biso   1.000  C
  C183     1.0000 0.39720  0.38830  0.66790  Biso   1.000  C
  C184     1.0000 0.10280  0.88830  0.83210  Biso   1.000  C
  H137     1.0000 0.65200  0.60040  0.34730  Biso   1.000  H
  H138     1.0000 0.84800  0.10040  0.15270  Biso   1.000  H
  H139     1.0000 0.34800  0.39960  0.65270  Biso   1.000  H
  H140     1.0000 0.15200  0.89960  0.84730  Biso   1.000  H
  C185     1.0000 0.52100  0.47050  0.43170  Biso   1.000  C
  C186     1.0000 0.97900  0.97050  0.06830  Biso   1.000  C
  C187     1.0000 0.47900  0.52950  0.56830  Biso   1.000  C
  C188     1.0000 0.02100  0.02950  0.93170  Biso   1.000  C
  H141     1.0000 0.44870  0.48470  0.42410  Biso   1.000  H
  H142     1.0000 0.05130  0.98470  0.07590  Biso   1.000  H
  H143     1.0000 0.55130  0.51530  0.57590  Biso   1.000  H
  H144     1.0000 0.94870  0.01530  0.92410  Biso   1.000  H
  H145     1.0000 0.59060  0.48940  0.43130  Biso   1.000  H
  H146     1.0000 0.90940  0.98940  0.06870  Biso   1.000  H
  H147     1.0000 0.40940  0.51060  0.56870  Biso   1.000  H
  H148     1.0000 0.09060  0.01060  0.93130  Biso   1.000  H
  H149     1.0000 0.50970  0.46180  0.45140  Biso   1.000  H
  H150     1.0000 0.99030  0.96180  0.04860  Biso   1.000  H
  H151     1.0000 0.49030  0.53820  0.54860  Biso   1.000  H
  H152     1.0000 0.00970  0.03820  0.95140  Biso   1.000  H
  C189     1.0000 0.14200  0.51360  0.47820  Biso   1.000  C
  C190     1.0000 0.35800  0.01360  0.02180  Biso   1.000  C
  C191     1.0000 0.85800  0.48640  0.52180  Biso   1.000  C
  C192     1.0000 0.64200  0.98640  0.97820  Biso   1.000  C
  H153     1.0000 0.22160  0.51170  0.46950  Biso   1.000  H
  H154     1.0000 0.27840  0.01170  0.03050  Biso   1.000  H
  H155     1.0000 0.77840  0.48830  0.53050  Biso   1.000  H
  H156     1.0000 0.72160  0.98830  0.96950  Biso   1.000  H
  H157     1.0000 0.12450  0.48660  0.48730  Biso   1.000  H
  H158     1.0000 0.37550  0.98660  0.01270  Biso   1.000  H
  H159     1.0000 0.87550  0.51340  0.51270  Biso   1.000  H
  H160     1.0000 0.62450  0.01340  0.98730  Biso   1.000  H
  C193     1.0000 0.14140  0.54990  0.50045  Biso   1.000  C
  C194     1.0000 0.35860  0.04990  0.99955  Biso   1.000  C
  C195     1.0000 0.85860  0.45010  0.49955  Biso   1.000  C
  C196     1.0000 0.64140  0.95010  0.00045  Biso   1.000  C
  C197     1.0000 0.07460  0.58616  0.49611  Biso   1.000  C
  C198     1.0000 0.42540  0.08616  0.00389  Biso   1.000  C
  C199     1.0000 0.92540  0.41384  0.50389  Biso   1.000  C
  C200     1.0000 0.57460  0.91384  0.99611  Biso   1.000  C
  H161     1.0000 0.02300  0.58910  0.47950  Biso   1.000  H
  H162     1.0000 0.47700  0.08910  0.02050  Biso   1.000  H
  H163     1.0000 0.97700  0.41090  0.52050  Biso   1.000  H
  H164     1.0000 0.52300  0.91090  0.97950  Biso   1.000  H
  C201     1.0000 0.08330  0.61812  0.51600  Biso   1.000  C
  C202     1.0000 0.41670  0.11812  0.98400  Biso   1.000  C
  C203     1.0000 0.91670  0.38188  0.48400  Biso   1.000  C
  C204     1.0000 0.58330  0.88188  0.01600  Biso   1.000  C
  H165     1.0000 0.03760  0.64290  0.51300  Biso   1.000  H
  H166     1.0000 0.46240  0.14290  0.98700  Biso   1.000  H
  H167     1.0000 0.96240  0.35710  0.48700  Biso   1.000  H
  H168     1.0000 0.53760  0.85710  0.01300  Biso   1.000  H
  C205     1.0000 0.15880  0.61383  0.54024  Biso   1.000  C
  C206     1.0000 0.34120  0.11383  0.95976  Biso   1.000  C
  C207     1.0000 0.84120  0.38617  0.45976  Biso   1.000  C
  C208     1.0000 0.65880  0.88617  0.04024  Biso   1.000  C
  C209     1.0000 0.22560  0.57757  0.54458  Biso   1.000  C
  C210     1.0000 0.27440  0.07757  0.95542  Biso   1.000  C
  C211     1.0000 0.77440  0.42243  0.45542  Biso   1.000  C
  C212     1.0000 0.72560  0.92243  0.04458  Biso   1.000  C
  H169     1.0000 0.27730  0.57460  0.56110  Biso   1.000  H
  H170     1.0000 0.22270  0.07460  0.93890  Biso   1.000  H
  H171     1.0000 0.72270  0.42540  0.43890  Biso   1.000  H
  H172     1.0000 0.77730  0.92540  0.06110  Biso   1.000  H
  C213     1.0000 0.21700  0.54561  0.52469  Biso   1.000  C
  C214     1.0000 0.28300  0.04561  0.97531  Biso   1.000  C
  C215     1.0000 0.78300  0.45439  0.47531  Biso   1.000  C
  C216     1.0000 0.71700  0.95439  0.02469  Biso   1.000  C
  H173     1.0000 0.26260  0.52080  0.52770  Biso   1.000  H
  H174     1.0000 0.23740  0.02080  0.97230  Biso   1.000  H
  H175     1.0000 0.73740  0.47920  0.47230  Biso   1.000  H
  H176     1.0000 0.76260  0.97920  0.02770  Biso   1.000  H
  C217     1.0000 0.17480  0.64726  0.56026  Biso   1.000  C
  C218     1.0000 0.32520  0.14726  0.93974  Biso   1.000  C
  C219     1.0000 0.82520  0.35274  0.43974  Biso   1.000  C
  C220     1.0000 0.67480  0.85274  0.06026  Biso   1.000  C
  C221     1.0000 0.09340  0.67978  0.55966  Biso   1.000  C
  C222     1.0000 0.40660  0.17978  0.94034  Biso   1.000  C
  C223     1.0000 0.90660  0.32022  0.44034  Biso   1.000  C
  C224     1.0000 0.59340  0.82022  0.05966  Biso   1.000  C
  H177     1.0000 0.03150  0.68070  0.54500  Biso   1.000  H
  H178     1.0000 0.46850  0.18070  0.95500  Biso   1.000  H
  H179     1.0000 0.96850  0.31930  0.45500  Biso   1.000  H
  H180     1.0000 0.53150  0.81930  0.04500  Biso   1.000  H
  C225     1.0000 0.09980  0.71090  0.57970  Biso   1.000  C
  C226     1.0000 0.40020  0.21090  0.92030  Biso   1.000  C
  C227     1.0000 0.90020  0.28910  0.42030  Biso   1.000  C
  C228     1.0000 0.59980  0.78910  0.07970  Biso   1.000  C
  H181     1.0000 0.04400  0.73330  0.57830  Biso   1.000  H
  H182     1.0000 0.45600  0.23330  0.92170  Biso   1.000  H
  H183     1.0000 0.95600  0.26670  0.42170  Biso   1.000  H
  H184     1.0000 0.54400  0.76670  0.07830  Biso   1.000  H
  C229     1.0000 0.26610  0.67600  0.60178  Biso   1.000  C
  C230     1.0000 0.23390  0.17600  0.89822  Biso   1.000  C
  C231     1.0000 0.73390  0.32400  0.39822  Biso   1.000  C
  C232     1.0000 0.76610  0.82400  0.10178  Biso   1.000  C
  H185     1.0000 0.32610  0.67410  0.61680  Biso   1.000  H
  H186     1.0000 0.17390  0.17410  0.88320  Biso   1.000  H
  H187     1.0000 0.67390  0.32590  0.38320  Biso   1.000  H
  H188     1.0000 0.82610  0.82590  0.11680  Biso   1.000  H
  C233     1.0000 0.26340  0.64640  0.58210  Biso   1.000  C
  C234     1.0000 0.23660  0.14640  0.91790  Biso   1.000  C
  C235     1.0000 0.73660  0.35360  0.41790  Biso   1.000  C
  C236     1.0000 0.76340  0.85360  0.08210  Biso   1.000  C
  H189     1.0000 0.32180  0.62470  0.58290  Biso   1.000  H
  H190     1.0000 0.17820  0.12470  0.91710  Biso   1.000  H
  H191     1.0000 0.67820  0.37530  0.41710  Biso   1.000  H
  H192     1.0000 0.82180  0.87530  0.08290  Biso   1.000  H
  C237     1.0000 0.79450  0.55820  0.39960  Biso   1.000  C
  C238     1.0000 0.70550  0.05820  0.10040  Biso   1.000  C
  C239     1.0000 0.20550  0.44180  0.60040  Biso   1.000  C
  C240     1.0000 0.29450  0.94180  0.89960  Biso   1.000  C
  H193     1.0000 0.82750  0.55710  0.38070  Biso   1.000  H
  H194     1.0000 0.67250  0.05710  0.11930  Biso   1.000  H
  H195     1.0000 0.17250  0.44290  0.61930  Biso   1.000  H
  H196     1.0000 0.32750  0.94290  0.88070  Biso   1.000  H
  H197     1.0000 0.77070  0.58690  0.40380  Biso   1.000  H
  H198     1.0000 0.72930  0.08690  0.09620  Biso   1.000  H
  H199     1.0000 0.22930  0.41310  0.59620  Biso   1.000  H
  H200     1.0000 0.27070  0.91310  0.90380  Biso   1.000  H
  H201     1.0000 0.72380  0.54000  0.40020  Biso   1.000  H
  H202     1.0000 0.77620  0.04000  0.09980  Biso   1.000  H
  H203     1.0000 0.27620  0.46000  0.59980  Biso   1.000  H
  H204     1.0000 0.22380  0.96000  0.90020  Biso   1.000  H
  C241     1.0000 0.02700  0.07610  0.33600  Biso   1.000  C
  C242     1.0000 0.47300  0.57610  0.16400  Biso   1.000  C
  C243     1.0000 0.97300  0.92390  0.66400  Biso   1.000  C
  C244     1.0000 0.52700  0.42390  0.83600  Biso   1.000  C
  C245     1.0000 0.97530  0.04100  0.32120  Biso   1.000  C
  C246     1.0000 0.52470  0.54100  0.17880  Biso   1.000  C
  C247     1.0000 0.02470  0.95900  0.67880  Biso   1.000  C
  C248     1.0000 0.47530  0.45900  0.82120  Biso   1.000  C
  H205     1.0000 0.90780  0.02690  0.32840  Biso   1.000  H
  H206     1.0000 0.59220  0.52690  0.17160  Biso   1.000  H
  H207     1.0000 0.09220  0.97310  0.67160  Biso   1.000  H
  H208     1.0000 0.40780  0.47310  0.82840  Biso   1.000  H
  C249     1.0000 0.02760  0.02731  0.29511  Biso   1.000  C
  C250     1.0000 0.47240  0.52731  0.20489  Biso   1.000  C
  C251     1.0000 0.97240  0.97269  0.70489  Biso   1.000  C
  C252     1.0000 0.52760  0.47269  0.79511  Biso   1.000  C
  C253     1.0000 0.12370  0.04864  0.28541  Biso   1.000  C
  C254     1.0000 0.37630  0.54864  0.21459  Biso   1.000  C
  C255     1.0000 0.87630  0.95136  0.71459  Biso   1.000  C
  C256     1.0000 0.62370  0.45136  0.78541  Biso   1.000  C
  C257     1.0000 0.17200  0.08232  0.30037  Biso   1.000  C
  C258     1.0000 0.32800  0.58232  0.19963  Biso   1.000  C
  C259     1.0000 0.82800  0.91768  0.69963  Biso   1.000  C
  C260     1.0000 0.67200  0.41768  0.80037  Biso   1.000  C
  H209     1.0000 0.23770  0.09730  0.29300  Biso   1.000  H
  H210     1.0000 0.26230  0.59730  0.20700  Biso   1.000  H
  H211     1.0000 0.76230  0.90270  0.70700  Biso   1.000  H
  H212     1.0000 0.73770  0.40270  0.79300  Biso   1.000  H
  C261     1.0000 0.12570  0.09460  0.32600  Biso   1.000  C
  C262     1.0000 0.37430  0.59460  0.17400  Biso   1.000  C
  C263     1.0000 0.87430  0.90540  0.67400  Biso   1.000  C
  C264     1.0000 0.62570  0.40540  0.82600  Biso   1.000  C
  C265     1.0000 0.19830  0.12910  0.34120  Biso   1.000  C
  C266     1.0000 0.30170  0.62910  0.15880  Biso   1.000  C
  C267     1.0000 0.80170  0.87090  0.65880  Biso   1.000  C
  C268     1.0000 0.69830  0.37090  0.84120  Biso   1.000  C
  H213     1.0000 0.14480  0.14520  0.35340  Biso   1.000  H
  H214     1.0000 0.35520  0.64520  0.14660  Biso   1.000  H
  H215     1.0000 0.85520  0.85480  0.64660  Biso   1.000  H
  H216     1.0000 0.64480  0.35480  0.85340  Biso   1.000  H
  H217     1.0000 0.23120  0.14820  0.32700  Biso   1.000  H
  H218     1.0000 0.26880  0.64820  0.17300  Biso   1.000  H
  H219     1.0000 0.76880  0.85180  0.67300  Biso   1.000  H
  H220     1.0000 0.73120  0.35180  0.82700  Biso   1.000  H
  C269     1.0000 0.30540  0.10950  0.36009  Biso   1.000  C
  C270     1.0000 0.19460  0.60950  0.13991  Biso   1.000  C
  C271     1.0000 0.69460  0.89050  0.63991  Biso   1.000  C
  C272     1.0000 0.80540  0.39050  0.86009  Biso   1.000  C
  C273     1.0000 0.40790  0.10181  0.34759  Biso   1.000  C
  C274     1.0000 0.09210  0.60181  0.15241  Biso   1.000  C
  C275     1.0000 0.59210  0.89819  0.65241  Biso   1.000  C
  C276     1.0000 0.90790  0.39819  0.84759  Biso   1.000  C
  H221     1.0000 0.41400  0.10940  0.32820  Biso   1.000  H
  H222     1.0000 0.08600  0.60940  0.17180  Biso   1.000  H
  H223     1.0000 0.58600  0.89060  0.67180  Biso   1.000  H
  H224     1.0000 0.91400  0.39060  0.82820  Biso   1.000  H
  C277     1.0000 0.51010  0.08250  0.36210  Biso   1.000  C
  C278     1.0000 0.98990  0.58250  0.13790  Biso   1.000  C
  C279     1.0000 0.48990  0.91750  0.63790  Biso   1.000  C
  C280     1.0000 0.01010  0.41750  0.86210  Biso   1.000  C
  C281     1.0000 0.49660  0.07250  0.39060  Biso   1.000  C
  C282     1.0000 0.00340  0.57250  0.10940  Biso   1.000  C
  C283     1.0000 0.50340  0.92750  0.60940  Biso   1.000  C
  C284     1.0000 0.99660  0.42750  0.89060  Biso   1.000  C
  C285     1.0000 0.39100  0.08330  0.40340  Biso   1.000  C
  C286     1.0000 0.10900  0.58330  0.09660  Biso   1.000  C
  C287     1.0000 0.60900  0.91670  0.59660  Biso   1.000  C
  C288     1.0000 0.89100  0.41670  0.90340  Biso   1.000  C
  H225     1.0000 0.38540  0.07840  0.42320  Biso   1.000  H
  H226     1.0000 0.11460  0.57840  0.07680  Biso   1.000  H
  H227     1.0000 0.61460  0.92160  0.57680  Biso   1.000  H
  H228     1.0000 0.88540  0.42160  0.92320  Biso   1.000  H
  C289     1.0000 0.29370  0.10084  0.38864  Biso   1.000  C
  C290     1.0000 0.20630  0.60084  0.11136  Biso   1.000  C
  C291     1.0000 0.70630  0.89916  0.61136  Biso   1.000  C
  C292     1.0000 0.79370  0.39916  0.88864  Biso   1.000  C
  C293     1.0000 0.17870  0.11037  0.40535  Biso   1.000  C
  C294     1.0000 0.32130  0.61037  0.09465  Biso   1.000  C
  C295     1.0000 0.82130  0.88963  0.59465  Biso   1.000  C
  C296     1.0000 0.67870  0.38963  0.90535  Biso   1.000  C
  H229     1.0000 0.20280  0.12060  0.42460  Biso   1.000  H
  H230     1.0000 0.29720  0.62060  0.07540  Biso   1.000  H
  H231     1.0000 0.79720  0.87940  0.57540  Biso   1.000  H
  H232     1.0000 0.70280  0.37940  0.92460  Biso   1.000  H
  H233     1.0000 0.13060  0.13240  0.39540  Biso   1.000  H
  H234     1.0000 0.36940  0.63240  0.10460  Biso   1.000  H
  H235     1.0000 0.86940  0.86760  0.60460  Biso   1.000  H
  H236     1.0000 0.63060  0.36760  0.89540  Biso   1.000  H
  C297     1.0000 0.10150  0.07070  0.40770  Biso   1.000  C
  C298     1.0000 0.39850  0.57070  0.09230  Biso   1.000  C
  C299     1.0000 0.89850  0.92930  0.59230  Biso   1.000  C
  C300     1.0000 0.60150  0.42930  0.90770  Biso   1.000  C
  C301     1.0000 0.13220  0.04340  0.42850  Biso   1.000  C
  C302     1.0000 0.36780  0.54340  0.07150  Biso   1.000  C
  C303     1.0000 0.86780  0.95660  0.57150  Biso   1.000  C
  C304     1.0000 0.63220  0.45660  0.92850  Biso   1.000  C
  H237     1.0000 0.19870  0.04980  0.44120  Biso   1.000  H
  H238     1.0000 0.30130  0.54980  0.05880  Biso   1.000  H
  H239     1.0000 0.80130  0.95020  0.55880  Biso   1.000  H
  H240     1.0000 0.69870  0.45020  0.94120  Biso   1.000  H
  C305     1.0000 0.07240  0.00740  0.43210  Biso   1.000  C
  C306     1.0000 0.42760  0.50740  0.06790  Biso   1.000  C
  C307     1.0000 0.92760  0.99260  0.56790  Biso   1.000  C
  C308     1.0000 0.57240  0.49260  0.93210  Biso   1.000  C
  C309     1.0000 0.96410  0.99865  0.41361  Biso   1.000  C
  C310     1.0000 0.53590  0.49865  0.08639  Biso   1.000  C
  C311     1.0000 0.03590  0.00135  0.58639  Biso   1.000  C
  C312     1.0000 0.46410  0.50135  0.91361  Biso   1.000  C
  C313     1.0000 0.93670  0.02462  0.39141  Biso   1.000  C
  C314     1.0000 0.56330  0.52462  0.10859  Biso   1.000  C
  C315     1.0000 0.06330  0.97538  0.60859  Biso   1.000  C
  C316     1.0000 0.43670  0.47538  0.89141  Biso   1.000  C
  H241     1.0000 0.87060  0.01870  0.37840  Biso   1.000  H
  H242     1.0000 0.62940  0.51870  0.12160  Biso   1.000  H
  H243     1.0000 0.12940  0.98130  0.62160  Biso   1.000  H
  H244     1.0000 0.37060  0.48130  0.87840  Biso   1.000  H
  C317     1.0000 0.01030  0.06150  0.38790  Biso   1.000  C
  C318     1.0000 0.48970  0.56150  0.11210  Biso   1.000  C
  C319     1.0000 0.98970  0.93850  0.61210  Biso   1.000  C
  C320     1.0000 0.51030  0.43850  0.88790  Biso   1.000  C
  C321     1.0000 0.97010  0.08880  0.36250  Biso   1.000  C
  C322     1.0000 0.52990  0.58880  0.13750  Biso   1.000  C
  C323     1.0000 0.02990  0.91120  0.63750  Biso   1.000  C
  C324     1.0000 0.47010  0.41120  0.86250  Biso   1.000  C
  H245     1.0000 0.88110  0.08720  0.35970  Biso   1.000  H
  H246     1.0000 0.61890  0.58720  0.14030  Biso   1.000  H
  H247     1.0000 0.11890  0.91280  0.64030  Biso   1.000  H
  H248     1.0000 0.38110  0.41280  0.85970  Biso   1.000  H
  H249     1.0000 0.99140  0.11820  0.36680  Biso   1.000  H
  H250     1.0000 0.50860  0.61820  0.13320  Biso   1.000  H
  H251     1.0000 0.00860  0.88180  0.63320  Biso   1.000  H
  H252     1.0000 0.49140  0.38180  0.86680  Biso   1.000  H
  C325     1.0000 0.88850  0.97190  0.29110  Biso   1.000  C
  C326     1.0000 0.61150  0.47190  0.20890  Biso   1.000  C
  C327     1.0000 0.11150  0.02810  0.70890  Biso   1.000  C
  C328     1.0000 0.38850  0.52810  0.79110  Biso   1.000  C
  H253     1.0000 0.81880  0.99040  0.29390  Biso   1.000  H
  H254     1.0000 0.68120  0.49040  0.20610  Biso   1.000  H
  H255     1.0000 0.18120  0.00960  0.70610  Biso   1.000  H
  H256     1.0000 0.31880  0.50960  0.79390  Biso   1.000  H
  H257     1.0000 0.91360  0.95900  0.30950  Biso   1.000  H
  H258     1.0000 0.58640  0.45900  0.19050  Biso   1.000  H
  H259     1.0000 0.08640  0.04100  0.69050  Biso   1.000  H
  H260     1.0000 0.41360  0.54100  0.80950  Biso   1.000  H
  C329     1.0000 0.85540  0.93848  0.26909  Biso   1.000  C
  C330     1.0000 0.64460  0.43848  0.23091  Biso   1.000  C
  C331     1.0000 0.14460  0.06152  0.73091  Biso   1.000  C
  C332     1.0000 0.35540  0.56152  0.76909  Biso   1.000  C
  C333     1.0000 0.76130  0.94212  0.25196  Biso   1.000  C
  C334     1.0000 0.73870  0.44212  0.24804  Biso   1.000  C
  C335     1.0000 0.23870  0.05788  0.74804  Biso   1.000  C
  C336     1.0000 0.26130  0.55788  0.75196  Biso   1.000  C
  H261     1.0000 0.71410  0.96680  0.25250  Biso   1.000  H
  H262     1.0000 0.78590  0.46680  0.24750  Biso   1.000  H
  H263     1.0000 0.28590  0.03320  0.74750  Biso   1.000  H
  H264     1.0000 0.21410  0.53320  0.75250  Biso   1.000  H
  C337     1.0000 0.72590  0.90940  0.23190  Biso   1.000  C
  C338     1.0000 0.77410  0.40940  0.26810  Biso   1.000  C
  C339     1.0000 0.27410  0.09060  0.76810  Biso   1.000  C
  C340     1.0000 0.22590  0.59060  0.73190  Biso   1.000  C
  H265     1.0000 0.65350  0.91180  0.22030  Biso   1.000  H
  H266     1.0000 0.84650  0.41180  0.27970  Biso   1.000  H
  H267     1.0000 0.34650  0.08820  0.77970  Biso   1.000  H
  H268     1.0000 0.15350  0.58820  0.72030  Biso   1.000  H
  C341     1.0000 0.79770  0.87560  0.22990  Biso   1.000  C
  C342     1.0000 0.70230  0.37560  0.27010  Biso   1.000  C
  C343     1.0000 0.20230  0.12440  0.77010  Biso   1.000  C
  C344     1.0000 0.29770  0.62440  0.72990  Biso   1.000  C
  C345     1.0000 0.90060  0.87260  0.24770  Biso   1.000  C
  C346     1.0000 0.59940  0.37260  0.25230  Biso   1.000  C
  C347     1.0000 0.09940  0.12740  0.75230  Biso   1.000  C
  C348     1.0000 0.40060  0.62740  0.74770  Biso   1.000  C
  H269     1.0000 0.95280  0.84930  0.24610  Biso   1.000  H
  H270     1.0000 0.54720  0.34930  0.25390  Biso   1.000  H
  H271     1.0000 0.04720  0.15070  0.75390  Biso   1.000  H
  H272     1.0000 0.45280  0.65070  0.74610  Biso   1.000  H
  C349     1.0000 0.92800  0.90306  0.26764  Biso   1.000  C
  C350     1.0000 0.57200  0.40306  0.23236  Biso   1.000  C
  C351     1.0000 0.07200  0.09694  0.73236  Biso   1.000  C
  C352     1.0000 0.42800  0.59694  0.76764  Biso   1.000  C
  H273     1.0000 0.99630  0.89990  0.28040  Biso   1.000  H
  H274     1.0000 0.50370  0.39990  0.21960  Biso   1.000  H
  H275     1.0000 0.00370  0.10010  0.71960  Biso   1.000  H
  H276     1.0000 0.49630  0.60010  0.78040  Biso   1.000  H
  C353     1.0000 0.76860  0.84390  0.20820  Biso   1.000  C
  C354     1.0000 0.73140  0.34390  0.29180  Biso   1.000  C
  C355     1.0000 0.23140  0.15610  0.79180  Biso   1.000  C
  C356     1.0000 0.26860  0.65610  0.70820  Biso   1.000  C
  C357     1.0000 0.65130  0.83600  0.19710  Biso   1.000  C
  C358     1.0000 0.84870  0.33600  0.30290  Biso   1.000  C
  C359     1.0000 0.34870  0.16400  0.80290  Biso   1.000  C
  C360     1.0000 0.15130  0.66400  0.69710  Biso   1.000  C
  H277     1.0000 0.58580  0.85030  0.20500  Biso   1.000  H
  H278     1.0000 0.91420  0.35030  0.29500  Biso   1.000  H
  H279     1.0000 0.41420  0.14970  0.79500  Biso   1.000  H
  H280     1.0000 0.08580  0.64970  0.70500  Biso   1.000  H
  C361     1.0000 0.62670  0.80850  0.17550  Biso   1.000  C
  C362     1.0000 0.87330  0.30850  0.32450  Biso   1.000  C
  C363     1.0000 0.37330  0.19150  0.82450  Biso   1.000  C
  C364     1.0000 0.12670  0.69150  0.67550  Biso   1.000  C
  H281     1.0000 0.54510  0.80460  0.16890  Biso   1.000  H
  H282     1.0000 0.95490  0.30460  0.33110  Biso   1.000  H
  H283     1.0000 0.45490  0.19540  0.83110  Biso   1.000  H
  H284     1.0000 0.04510  0.69540  0.66890  Biso   1.000  H
  C365     1.0000 0.83030  0.79320  0.17370  Biso   1.000  C
  C366     1.0000 0.66970  0.29320  0.32630  Biso   1.000  C
  C367     1.0000 0.16970  0.20680  0.82630  Biso   1.000  C
  C368     1.0000 0.33030  0.70680  0.67370  Biso   1.000  C
  H285     1.0000 0.89190  0.77790  0.16500  Biso   1.000  H
  H286     1.0000 0.60810  0.27790  0.33500  Biso   1.000  H
  H287     1.0000 0.10810  0.22210  0.83500  Biso   1.000  H
  H288     1.0000 0.39190  0.72210  0.66500  Biso   1.000  H
  C369     1.0000 0.86210  0.82029  0.19631  Biso   1.000  C
  C370     1.0000 0.63790  0.32029  0.30369  Biso   1.000  C
  C371     1.0000 0.13790  0.17971  0.80369  Biso   1.000  C
  C372     1.0000 0.36210  0.67971  0.69631  Biso   1.000  C
  H289     1.0000 0.94350  0.82270  0.20340  Biso   1.000  H
  H290     1.0000 0.55650  0.32270  0.29660  Biso   1.000  H
  H291     1.0000 0.05650  0.17730  0.79660  Biso   1.000  H
  H292     1.0000 0.44350  0.67730  0.70340  Biso   1.000  H
  C373     1.0000 0.27700  0.05150  0.25170  Biso   1.000  C
  C374     1.0000 0.22300  0.55150  0.24830  Biso   1.000  C
  C375     1.0000 0.72300  0.94850  0.74830  Biso   1.000  C
  C376     1.0000 0.77700  0.44850  0.75170  Biso   1.000  C
  H293     1.0000 0.26220  0.08080  0.24710  Biso   1.000  H
  H294     1.0000 0.23780  0.58080  0.25290  Biso   1.000  H
  H295     1.0000 0.73780  0.91920  0.75290  Biso   1.000  H
  H296     1.0000 0.76220  0.41920  0.74710  Biso   1.000  H
  H297     1.0000 0.30350  0.03690  0.23480  Biso   1.000  H
  H298     1.0000 0.19650  0.53690  0.26520  Biso   1.000  H
  H299     1.0000 0.69650  0.96310  0.76520  Biso   1.000  H
  H300     1.0000 0.80350  0.46310  0.73480  Biso   1.000  H
  H301     1.0000 0.33990  0.04940  0.26700  Biso   1.000  H
  H302     1.0000 0.16010  0.54940  0.23300  Biso   1.000  H
  H303     1.0000 0.66010  0.95060  0.73300  Biso   1.000  H
  H304     1.0000 0.83990  0.45060  0.76700  Biso   1.000  H
  C377     1.0000 0.61670  0.06050  0.32220  Biso   1.000  C
  C378     1.0000 0.88330  0.56050  0.17780  Biso   1.000  C
  C379     1.0000 0.38330  0.93950  0.67780  Biso   1.000  C
  C380     1.0000 0.11670  0.43950  0.82220  Biso   1.000  C
  H305     1.0000 0.69860  0.06440  0.31500  Biso   1.000  H
  H306     1.0000 0.80140  0.56440  0.18500  Biso   1.000  H
  H307     1.0000 0.30140  0.93560  0.68500  Biso   1.000  H
  H308     1.0000 0.19860  0.43560  0.81500  Biso   1.000  H
  H309     1.0000 0.55910  0.07650  0.30980  Biso   1.000  H
  H310     1.0000 0.94090  0.57650  0.19020  Biso   1.000  H
  H311     1.0000 0.44090  0.92350  0.69020  Biso   1.000  H
  H312     1.0000 0.05910  0.42350  0.80980  Biso   1.000  H
  C381     1.0000 0.58360  0.01440  0.32060  Biso   1.000  C
  C382     1.0000 0.91640  0.51440  0.17940  Biso   1.000  C
  C383     1.0000 0.41640  0.98560  0.67940  Biso   1.000  C
  C384     1.0000 0.08360  0.48560  0.82060  Biso   1.000  C
  C385     1.0000 0.54710  0.99660  0.29560  Biso   1.000  C
  C386     1.0000 0.95290  0.49660  0.20440  Biso   1.000  C
  C387     1.0000 0.45290  0.00340  0.70440  Biso   1.000  C
  C388     1.0000 0.04710  0.50340  0.79560  Biso   1.000  C
  H313     1.0000 0.53460  0.01450  0.27960  Biso   1.000  H
  H314     1.0000 0.96540  0.51450  0.22040  Biso   1.000  H
  H315     1.0000 0.46540  0.98550  0.72040  Biso   1.000  H
  H316     1.0000 0.03460  0.48550  0.77960  Biso   1.000  H
  C389     1.0000 0.52680  0.95494  0.29136  Biso   1.000  C
  C390     1.0000 0.97320  0.45494  0.20864  Biso   1.000  C
  C391     1.0000 0.47320  0.04506  0.70864  Biso   1.000  C
  C392     1.0000 0.02680  0.54506  0.79136  Biso   1.000  C
  H317     1.0000 0.50290  0.94470  0.27300  Biso   1.000  H
  H318     1.0000 0.99710  0.44470  0.22700  Biso   1.000  H
  H319     1.0000 0.49710  0.05530  0.72700  Biso   1.000  H
  H320     1.0000 0.00290  0.55530  0.77300  Biso   1.000  H
  C393     1.0000 0.54180  0.92760  0.31450  Biso   1.000  C
  C394     1.0000 0.95820  0.42760  0.18550  Biso   1.000  C
  C395     1.0000 0.45820  0.07240  0.68550  Biso   1.000  C
  C396     1.0000 0.04180  0.57240  0.81450  Biso   1.000  C
  C397     1.0000 0.57700  0.94370  0.34060  Biso   1.000  C
  C398     1.0000 0.92300  0.44370  0.15940  Biso   1.000  C
  C399     1.0000 0.42300  0.05630  0.65940  Biso   1.000  C
  C400     1.0000 0.07700  0.55630  0.84060  Biso   1.000  C
  H321     1.0000 0.58740  0.92560  0.35660  Biso   1.000  H
  H322     1.0000 0.91260  0.42560  0.14340  Biso   1.000  H
  H323     1.0000 0.41260  0.07440  0.64340  Biso   1.000  H
  H324     1.0000 0.08740  0.57440  0.85660  Biso   1.000  H
  C401     1.0000 0.59820  0.98800  0.34400  Biso   1.000  C
  C402     1.0000 0.90180  0.48800  0.15600  Biso   1.000  C
  C403     1.0000 0.40180  0.01200  0.65600  Biso   1.000  C
  C404     1.0000 0.09820  0.51200  0.84400  Biso   1.000  C
  H325     1.0000 0.62210  0.99900  0.36220  Biso   1.000  H
  H326     1.0000 0.87790  0.49900  0.13780  Biso   1.000  H
  H327     1.0000 0.37790  0.00100  0.63780  Biso   1.000  H
  H328     1.0000 0.12210  0.50100  0.86220  Biso   1.000  H
  C405     1.0000 0.52680  0.88130  0.31110  Biso   1.000  C
  C406     1.0000 0.97320  0.38130  0.18890  Biso   1.000  C
  C407     1.0000 0.47320  0.11870  0.68890  Biso   1.000  C
  C408     1.0000 0.02680  0.61870  0.81110  Biso   1.000  C
  C409     1.0000 0.48910  0.85348  0.33286  Biso   1.000  C
  C410     1.0000 0.01090  0.35348  0.16714  Biso   1.000  C
  C411     1.0000 0.51090  0.14652  0.66714  Biso   1.000  C
  C412     1.0000 0.98910  0.64652  0.83286  Biso   1.000  C
  H329     1.0000 0.46760  0.86430  0.35070  Biso   1.000  H
  H330     1.0000 0.03240  0.36430  0.14930  Biso   1.000  H
  H331     1.0000 0.53240  0.13570  0.64930  Biso   1.000  H
  H332     1.0000 0.96760  0.63570  0.85070  Biso   1.000  H
  C413     1.0000 0.48400  0.81240  0.32810  Biso   1.000  C
  C414     1.0000 0.01600  0.31240  0.17190  Biso   1.000  C
  C415     1.0000 0.51600  0.18760  0.67190  Biso   1.000  C
  C416     1.0000 0.98400  0.68760  0.82810  Biso   1.000  C
  H333     1.0000 0.46870  0.79510  0.34390  Biso   1.000  H
  H334     1.0000 0.03130  0.29510  0.15610  Biso   1.000  H
  H335     1.0000 0.53130  0.20490  0.65610  Biso   1.000  H
  H336     1.0000 0.96870  0.70490  0.84390  Biso   1.000  H
  C417     1.0000 0.52300  0.82000  0.28350  Biso   1.000  C
  C418     1.0000 0.97700  0.32000  0.21650  Biso   1.000  C
  C419     1.0000 0.47700  0.18000  0.71650  Biso   1.000  C
  C420     1.0000 0.02300  0.68000  0.78350  Biso   1.000  C
  H337     1.0000 0.53810  0.80780  0.26560  Biso   1.000  H
  H338     1.0000 0.96190  0.30780  0.23440  Biso   1.000  H
  H339     1.0000 0.46190  0.19220  0.73440  Biso   1.000  H
  H340     1.0000 0.03810  0.69220  0.76560  Biso   1.000  H
  C421     1.0000 0.53100  0.86210  0.28360  Biso   1.000  C
  C422     1.0000 0.96900  0.36210  0.21640  Biso   1.000  C
  C423     1.0000 0.46900  0.13790  0.71640  Biso   1.000  C
  C424     1.0000 0.03100  0.63790  0.78360  Biso   1.000  C
  H341     1.0000 0.53950  0.87780  0.26670  Biso   1.000  H
  H342     1.0000 0.96050  0.37780  0.23330  Biso   1.000  H
  H343     1.0000 0.46050  0.12220  0.73330  Biso   1.000  H
  H344     1.0000 0.03950  0.62220  0.76670  Biso   1.000  H
  C425     1.0000 0.57380  0.03630  0.42970  Biso   1.000  C
  C426     1.0000 0.92620  0.53630  0.07030  Biso   1.000  C
  C427     1.0000 0.42620  0.96370  0.57030  Biso   1.000  C
  C428     1.0000 0.07380  0.46370  0.92970  Biso   1.000  C
  H345     1.0000 0.49990  0.04790  0.43720  Biso   1.000  H
  H346     1.0000 0.00010  0.54790  0.06280  Biso   1.000  H
  H347     1.0000 0.50010  0.95210  0.56280  Biso   1.000  H
  H348     1.0000 0.99990  0.45210  0.93720  Biso   1.000  H
  H349     1.0000 0.64240  0.04210  0.44290  Biso   1.000  H
  H350     1.0000 0.85760  0.54210  0.05710  Biso   1.000  H
  H351     1.0000 0.35760  0.95790  0.55710  Biso   1.000  H
  H352     1.0000 0.14240  0.45790  0.94290  Biso   1.000  H
  H353     1.0000 0.56450  0.00610  0.42730  Biso   1.000  H
  H354     1.0000 0.93550  0.50610  0.07270  Biso   1.000  H
  H355     1.0000 0.43550  0.99390  0.57270  Biso   1.000  H
  H356     1.0000 0.06450  0.49390  0.92730  Biso   1.000  H
  C429     1.0000 0.20610  0.98718  0.47089  Biso   1.000  C
  C430     1.0000 0.29390  0.48718  0.02911  Biso   1.000  C
  C431     1.0000 0.79390  0.01282  0.52911  Biso   1.000  C
  C432     1.0000 0.70610  0.51282  0.97089  Biso   1.000  C
  H357     1.0000 0.20240  0.01510  0.47980  Biso   1.000  H
  H358     1.0000 0.29760  0.51510  0.02020  Biso   1.000  H
  H359     1.0000 0.79760  0.98490  0.52020  Biso   1.000  H
  H360     1.0000 0.70240  0.48490  0.97980  Biso   1.000  H
  H361     1.0000 0.27810  0.98570  0.45920  Biso   1.000  H
  H362     1.0000 0.22190  0.48570  0.04080  Biso   1.000  H
  H363     1.0000 0.72190  0.01430  0.54080  Biso   1.000  H
  H364     1.0000 0.77810  0.51430  0.95920  Biso   1.000  H
  C433     1.0000 0.20780  0.95260  0.49350  Biso   1.000  C
  C434     1.0000 0.29220  0.45260  0.00650  Biso   1.000  C
  C435     1.0000 0.79220  0.04740  0.50650  Biso   1.000  C
  C436     1.0000 0.70780  0.54740  0.99350  Biso   1.000  C
  C437     1.0000 0.27800  0.91870  0.49190  Biso   1.000  C
  C438     1.0000 0.22200  0.41870  0.00810  Biso   1.000  C
  C439     1.0000 0.72200  0.08130  0.50810  Biso   1.000  C
  C440     1.0000 0.77800  0.58130  0.99190  Biso   1.000  C
  H365     1.0000 0.32330  0.91480  0.47550  Biso   1.000  H
  H366     1.0000 0.17670  0.41480  0.02450  Biso   1.000  H
  H367     1.0000 0.67670  0.08520  0.52450  Biso   1.000  H
  H368     1.0000 0.82330  0.58520  0.97550  Biso   1.000  H
  C441     1.0000 0.28750  0.88760  0.51450  Biso   1.000  C
  C442     1.0000 0.21250  0.38760  0.98550  Biso   1.000  C
  C443     1.0000 0.71250  0.11240  0.48550  Biso   1.000  C
  C444     1.0000 0.78750  0.61240  0.01450  Biso   1.000  C
  H369     1.0000 0.34640  0.86610  0.51440  Biso   1.000  H
  H370     1.0000 0.15360  0.36610  0.98560  Biso   1.000  H
  H371     1.0000 0.65360  0.13390  0.48560  Biso   1.000  H
  H372     1.0000 0.84640  0.63390  0.01440  Biso   1.000  H
  C445     1.0000 0.20580  0.89070  0.53640  Biso   1.000  C
  C446     1.0000 0.29420  0.39070  0.96360  Biso   1.000  C
  C447     1.0000 0.79420  0.10930  0.46360  Biso   1.000  C
  C448     1.0000 0.70580  0.60930  0.03640  Biso   1.000  C
  C449     1.0000 0.13480  0.92605  0.53800  Biso   1.000  C
  C450     1.0000 0.36520  0.42605  0.96200  Biso   1.000  C
  C451     1.0000 0.86520  0.07395  0.46200  Biso   1.000  C
  C452     1.0000 0.63480  0.57395  0.03800  Biso   1.000  C
  H373     1.0000 0.08660  0.93040  0.55390  Biso   1.000  H
  H374     1.0000 0.41340  0.43040  0.94610  Biso   1.000  H
  H375     1.0000 0.91340  0.06960  0.44610  Biso   1.000  H
  H376     1.0000 0.58660  0.56960  0.05390  Biso   1.000  H
  C453     1.0000 0.13490  0.95570  0.51560  Biso   1.000  C
  C454     1.0000 0.36510  0.45570  0.98440  Biso   1.000  C
  C455     1.0000 0.86510  0.04430  0.48440  Biso   1.000  C
  C456     1.0000 0.63490  0.54430  0.01560  Biso   1.000  C
  H377     1.0000 0.08140  0.97870  0.51630  Biso   1.000  H
  H378     1.0000 0.41860  0.47870  0.98370  Biso   1.000  H
  H379     1.0000 0.91860  0.02130  0.48370  Biso   1.000  H
  H380     1.0000 0.58140  0.52130  0.01630  Biso   1.000  H
  C457     1.0000 0.20000  0.85930  0.55870  Biso   1.000  C
  C458     1.0000 0.30000  0.35930  0.94130  Biso   1.000  C
  C459     1.0000 0.80000  0.14070  0.44130  Biso   1.000  C
  C460     1.0000 0.70000  0.64070  0.05870  Biso   1.000  C
  C461     1.0000 0.09500  0.84900  0.56980  Biso   1.000  C
  C462     1.0000 0.40500  0.34900  0.93020  Biso   1.000  C
  C463     1.0000 0.90500  0.15100  0.43020  Biso   1.000  C
  C464     1.0000 0.59500  0.65100  0.06980  Biso   1.000  C
  H381     1.0000 0.02170  0.86120  0.56260  Biso   1.000  H
  H382     1.0000 0.47830  0.36120  0.93740  Biso   1.000  H
  H383     1.0000 0.97830  0.13880  0.43740  Biso   1.000  H
  H384     1.0000 0.52170  0.63880  0.06260  Biso   1.000  H
  C465     1.0000 0.09330  0.82030  0.59220  Biso   1.000  C
  C466     1.0000 0.40670  0.32030  0.90780  Biso   1.000  C
  C467     1.0000 0.90670  0.17970  0.40780  Biso   1.000  C
  C468     1.0000 0.59330  0.67970  0.09220  Biso   1.000  C
  H385     1.0000 0.01990  0.81560  0.60130  Biso   1.000  H
  H386     1.0000 0.48010  0.31560  0.89870  Biso   1.000  H
  H387     1.0000 0.98010  0.18440  0.39870  Biso   1.000  H
  H388     1.0000 0.51990  0.68440  0.10130  Biso   1.000  H
  C469     1.0000 0.28850  0.80690  0.58949  Biso   1.000  C
  C470     1.0000 0.21150  0.30690  0.91051  Biso   1.000  C
  C471     1.0000 0.71150  0.19310  0.41051  Biso   1.000  C
  C472     1.0000 0.78850  0.69310  0.08949  Biso   1.000  C
  H389     1.0000 0.35600  0.78970  0.59450  Biso   1.000  H
  H390     1.0000 0.14400  0.28970  0.90550  Biso   1.000  H
  H391     1.0000 0.64400  0.21030  0.40550  Biso   1.000  H
  H392     1.0000 0.85600  0.71030  0.09450  Biso   1.000  H
  C473     1.0000 0.30600  0.83820  0.57020  Biso   1.000  C
  C474     1.0000 0.19400  0.33820  0.92980  Biso   1.000  C
  C475     1.0000 0.69400  0.16180  0.42980  Biso   1.000  C
  C476     1.0000 0.80600  0.66180  0.07020  Biso   1.000  C
  H393     1.0000 0.38460  0.84550  0.56470  Biso   1.000  H
  H394     1.0000 0.11540  0.34550  0.93530  Biso   1.000  H
  H395     1.0000 0.61540  0.15450  0.43530  Biso   1.000  H
  H396     1.0000 0.88460  0.65450  0.06470  Biso   1.000  H
  C477     1.0000 0.81990  0.94890  0.39820  Biso   1.000  C
  C478     1.0000 0.68010  0.44890  0.10180  Biso   1.000  C
  C479     1.0000 0.18010  0.05110  0.60180  Biso   1.000  C
  C480     1.0000 0.31990  0.55110  0.89820  Biso   1.000  C
  H397     1.0000 0.76100  0.97150  0.39580  Biso   1.000  H
  H398     1.0000 0.73900  0.47150  0.10420  Biso   1.000  H
  H399     1.0000 0.23900  0.02850  0.60420  Biso   1.000  H
  H400     1.0000 0.26100  0.52850  0.89580  Biso   1.000  H
  H401     1.0000 0.77920  0.92380  0.40480  Biso   1.000  H
  H402     1.0000 0.72080  0.42380  0.09520  Biso   1.000  H
  H403     1.0000 0.22080  0.07620  0.59520  Biso   1.000  H
  H404     1.0000 0.27920  0.57620  0.90480  Biso   1.000  H
  H405     1.0000 0.85570  0.94310  0.38000  Biso   1.000  H
  H406     1.0000 0.64430  0.44310  0.12000  Biso   1.000  H
  H407     1.0000 0.14430  0.05690  0.62000  Biso   1.000  H
  H408     1.0000 0.35570  0.55690  0.88000  Biso   1.000  H
  C481     1.0000 0.78230  0.74740  0.25000  Biso   1.000  C
  C482     1.0000 0.71770  0.24740  0.25000  Biso   1.000  C
  C483     1.0000 0.21770  0.25260  0.75000  Biso   1.000  C
  C484     1.0000 0.28230  0.75260  0.75000  Biso   1.000  C
  H409     1.0000 0.78130  0.77530  0.25850  Biso   1.000  H
  H410     1.0000 0.71870  0.27530  0.24150  Biso   1.000  H
  H411     1.0000 0.21870  0.22470  0.74150  Biso   1.000  H
  H412     1.0000 0.28130  0.72470  0.75850  Biso   1.000  H
  H413     1.0000 0.71940  0.74560  0.23470  Biso   1.000  H
  H414     1.0000 0.78060  0.24560  0.26530  Biso   1.000  H
  H415     1.0000 0.28060  0.25440  0.76530  Biso   1.000  H
  H416     1.0000 0.21940  0.75440  0.73470  Biso   1.000  H
  H417     1.0000 0.86150  0.74230  0.24220  Biso   1.000  H
  H418     1.0000 0.63850  0.24230  0.25780  Biso   1.000  H
  H419     1.0000 0.13850  0.25770  0.75780  Biso   1.000  H
  H420     1.0000 0.36150  0.75770  0.74220  Biso   1.000  H
  C485     1.0000 0.89300  0.71700  0.28610  Biso   1.000  C
  C486     1.0000 0.60700  0.21700  0.21390  Biso   1.000  C
  C487     1.0000 0.10700  0.28300  0.71390  Biso   1.000  C
  C488     1.0000 0.39300  0.78300  0.78610  Biso   1.000  C
  H421     1.0000 0.90190  0.74260  0.29730  Biso   1.000  H
  H422     1.0000 0.59810  0.24260  0.20270  Biso   1.000  H
  H423     1.0000 0.09810  0.25740  0.70270  Biso   1.000  H
  H424     1.0000 0.40190  0.75740  0.79730  Biso   1.000  H
  H425     1.0000 0.94530  0.71840  0.26990  Biso   1.000  H
  H426     1.0000 0.55470  0.21840  0.23010  Biso   1.000  H
  H427     1.0000 0.05470  0.28160  0.73010  Biso   1.000  H
  H428     1.0000 0.44530  0.78160  0.76990  Biso   1.000  H
  H429     1.0000 0.91660  0.69300  0.29800  Biso   1.000  H
  H430     1.0000 0.58340  0.19300  0.20200  Biso   1.000  H
  H431     1.0000 0.08340  0.30700  0.70200  Biso   1.000  H
  H432     1.0000 0.41660  0.80700  0.79800  Biso   1.000  H
  Br9      1.0000 0.30810  0.32280  0.28330  Biso   1.000  Br
  Br10     1.0000 0.19190  0.82280  0.21670  Biso   1.000  Br
  Br11     1.0000 0.69190  0.67720  0.71670  Biso   1.000  Br
  Br12     1.0000 0.80810  0.17720  0.78330  Biso   1.000  Br
  Br13     1.0000 0.17540  0.66875  0.23367  Biso   1.000  Br
  Br14     1.0000 0.32460  0.16875  0.26633  Biso   1.000  Br
  Br15     1.0000 0.82460  0.33125  0.76633  Biso   1.000  Br
  Br16     1.0000 0.67540  0.83125  0.73367  Biso   1.000  Br
  Br17     1.0000 0.16310  0.66100  0.29070  Biso   1.000  Br
  Br18     1.0000 0.33690  0.16100  0.20930  Biso   1.000  Br
  Br19     1.0000 0.83690  0.33900  0.70930  Biso   1.000  Br
  Br20     1.0000 0.66310  0.83900  0.79070  Biso   1.000  Br
  S5       1.0000 0.17010  0.94920  0.35739  Biso   1.000  S
  S6       1.0000 0.32990  0.44920  0.14261  Biso   1.000  S
  S7       1.0000 0.82990  0.05080  0.64261  Biso   1.000  S
  S8       1.0000 0.67010  0.55080  0.85739  Biso   1.000  S
  O57      1.0000 0.25100  0.92250  0.37470  Biso   1.000  O
  O58      1.0000 0.24900  0.42250  0.12530  Biso   1.000  O
  O59      1.0000 0.74900  0.07750  0.62530  Biso   1.000  O
  O60      1.0000 0.75100  0.57750  0.87470  Biso   1.000  O
  C489     1.0000 0.21390  0.93360  0.32709  Biso   1.000  C
  C490     1.0000 0.28610  0.43360  0.17291  Biso   1.000  C
  C491     1.0000 0.78610  0.06640  0.67291  Biso   1.000  C
  C492     1.0000 0.71390  0.56640  0.82709  Biso   1.000  C
  H433     1.0000 0.29910  0.92530  0.32900  Biso   1.000  H
  H434     1.0000 0.20090  0.42530  0.17100  Biso   1.000  H
  H435     1.0000 0.70090  0.07470  0.67100  Biso   1.000  H
  H436     1.0000 0.79910  0.57470  0.82900  Biso   1.000  H
  H437     1.0000 0.20450  0.95620  0.31320  Biso   1.000  H
  H438     1.0000 0.29550  0.45620  0.18680  Biso   1.000  H
  H439     1.0000 0.79550  0.04380  0.68680  Biso   1.000  H
  H440     1.0000 0.70450  0.54380  0.81320  Biso   1.000  H
  H441     1.0000 0.16490  0.90970  0.32060  Biso   1.000  H
  H442     1.0000 0.33510  0.40970  0.17940  Biso   1.000  H
  H443     1.0000 0.83510  0.09030  0.67940  Biso   1.000  H
  H444     1.0000 0.66490  0.59030  0.82060  Biso   1.000  H
  C493     1.0000 0.25200  0.99640  0.35740  Biso   1.000  C
  C494     1.0000 0.24800  0.49640  0.14260  Biso   1.000  C
  C495     1.0000 0.74800  0.00360  0.64260  Biso   1.000  C
  C496     1.0000 0.75200  0.50360  0.85740  Biso   1.000  C
  H445     1.0000 0.27340  0.00460  0.37700  Biso   1.000  H
  H446     1.0000 0.22660  0.50460  0.12300  Biso   1.000  H
  H447     1.0000 0.72660  0.99540  0.62300  Biso   1.000  H
  H448     1.0000 0.77340  0.49540  0.87700  Biso   1.000  H
  H449     1.0000 0.20220  0.01810  0.34810  Biso   1.000  H
  H450     1.0000 0.29780  0.51810  0.15190  Biso   1.000  H
  H451     1.0000 0.79780  0.98190  0.65190  Biso   1.000  H
  H452     1.0000 0.70220  0.48190  0.84810  Biso   1.000  H
  H453     1.0000 0.32590  0.99250  0.34700  Biso   1.000  H
  H454     1.0000 0.17410  0.49250  0.15300  Biso   1.000  H
  H455     1.0000 0.67410  0.00750  0.65300  Biso   1.000  H
  H456     1.0000 0.82590  0.50750  0.84700  Biso   1.000  H
  S9       1.0000 0.14860  0.54280  0.35890  Biso   1.000  S
  S10      1.0000 0.35140  0.04280  0.14110  Biso   1.000  S
  S11      1.0000 0.85140  0.45720  0.64110  Biso   1.000  S
  S12      1.0000 0.64860  0.95720  0.85890  Biso   1.000  S
  O61      1.0000 0.19870  0.55420  0.32930  Biso   1.000  O
  O62      1.0000 0.30130  0.05420  0.17070  Biso   1.000  O
  O63      1.0000 0.80130  0.44580  0.67070  Biso   1.000  O
  O64      1.0000 0.69870  0.94580  0.82930  Biso   1.000  O
  C497     1.0000 0.24300  0.49290  0.36580  Biso   1.000  C
  C498     1.0000 0.25700  0.99290  0.13420  Biso   1.000  C
  C499     1.0000 0.75700  0.50710  0.63420  Biso   1.000  C
  C500     1.0000 0.74300  0.00710  0.86580  Biso   1.000  C
  H457     1.0000 0.21420  0.47850  0.38250  Biso   1.000  H
  H458     1.0000 0.28580  0.97850  0.11750  Biso   1.000  H
  H459     1.0000 0.78580  0.52150  0.61750  Biso   1.000  H
  H460     1.0000 0.71420  0.02150  0.88250  Biso   1.000  H
  H461     1.0000 0.32830  0.50040  0.36910  Biso   1.000  H
  H462     1.0000 0.17170  0.00040  0.13090  Biso   1.000  H
  H463     1.0000 0.67170  0.49960  0.63090  Biso   1.000  H
  H464     1.0000 0.82830  0.99960  0.86910  Biso   1.000  H
  H465     1.0000 0.23450  0.47460  0.34920  Biso   1.000  H
  H466     1.0000 0.26550  0.97460  0.15080  Biso   1.000  H
  H467     1.0000 0.76550  0.52540  0.65080  Biso   1.000  H
  H468     1.0000 0.73450  0.02540  0.84920  Biso   1.000  H
  C501     1.0000 0.20800  0.56630  0.38210  Biso   1.000  C
  C502     1.0000 0.29200  0.06630  0.11790  Biso   1.000  C
  C503     1.0000 0.79200  0.43370  0.61790  Biso   1.000  C
  C504     1.0000 0.70800  0.93370  0.88210  Biso   1.000  C
  H469     1.0000 0.29550  0.56640  0.37980  Biso   1.000  H
  H470     1.0000 0.20450  0.06640  0.12020  Biso   1.000  H
  H471     1.0000 0.70450  0.43360  0.62020  Biso   1.000  H
  H472     1.0000 0.79550  0.93360  0.87980  Biso   1.000  H
  H473     1.0000 0.19050  0.55330  0.40030  Biso   1.000  H
  H474     1.0000 0.30950  0.05330  0.09970  Biso   1.000  H
  H475     1.0000 0.80950  0.44670  0.59970  Biso   1.000  H
  H476     1.0000 0.69050  0.94670  0.90030  Biso   1.000  H
  H477     1.0000 0.17790  0.59500  0.38180  Biso   1.000  H
  H478     1.0000 0.32210  0.09500  0.11820  Biso   1.000  H
  H479     1.0000 0.82210  0.40500  0.61820  Biso   1.000  H
  H480     1.0000 0.67790  0.90500  0.88180  Biso   1.000  H
  S13      1.0000 0.08640  0.75509  0.12100  Biso   1.000  S
  S14      1.0000 0.41360  0.25509  0.37900  Biso   1.000  S
  S15      1.0000 0.91360  0.24491  0.87900  Biso   1.000  S
  S16      1.0000 0.58640  0.74491  0.62100  Biso   1.000  S
  O65      1.0000 0.95510  0.75210  0.12383  Biso   1.000  O
  O66      1.0000 0.54490  0.25210  0.37617  Biso   1.000  O
  O67      1.0000 0.04490  0.24790  0.87617  Biso   1.000  O
  O68      1.0000 0.45510  0.74790  0.62383  Biso   1.000  O
  C505     1.0000 0.12860  0.70700  0.10520  Biso   1.000  C
  C506     1.0000 0.37140  0.20700  0.39480  Biso   1.000  C
  C507     1.0000 0.87140  0.29300  0.89480  Biso   1.000  C
  C508     1.0000 0.62860  0.79300  0.60520  Biso   1.000  C
  H481     1.0000 0.15090  0.68690  0.12020  Biso   1.000  H
  H482     1.0000 0.34910  0.18690  0.37980  Biso   1.000  H
  H483     1.0000 0.84910  0.31310  0.87980  Biso   1.000  H
  H484     1.0000 0.65090  0.81310  0.62020  Biso   1.000  H
  H485     1.0000 0.19770  0.71160  0.09330  Biso   1.000  H
  H486     1.0000 0.30230  0.21160  0.40670  Biso   1.000  H
  H487     1.0000 0.80230  0.28840  0.90670  Biso   1.000  H
  H488     1.0000 0.69770  0.78840  0.59330  Biso   1.000  H
  H489     1.0000 0.06040  0.69610  0.09350  Biso   1.000  H
  H490     1.0000 0.43960  0.19610  0.40650  Biso   1.000  H
  H491     1.0000 0.93960  0.30390  0.90650  Biso   1.000  H
  H492     1.0000 0.56040  0.80390  0.59350  Biso   1.000  H
  C509     1.0000 0.13320  0.79330  0.09740  Biso   1.000  C
  C510     1.0000 0.36680  0.29330  0.40260  Biso   1.000  C
  C511     1.0000 0.86680  0.20670  0.90260  Biso   1.000  C
  C512     1.0000 0.63320  0.70670  0.59740  Biso   1.000  C
  H493     1.0000 0.07690  0.79430  0.08070  Biso   1.000  H
  H494     1.0000 0.42310  0.29430  0.41930  Biso   1.000  H
  H495     1.0000 0.92310  0.20570  0.91930  Biso   1.000  H
  H496     1.0000 0.57690  0.70570  0.58070  Biso   1.000  H
  H497     1.0000 0.21440  0.78670  0.09140  Biso   1.000  H
  H498     1.0000 0.28560  0.28670  0.40860  Biso   1.000  H
  H499     1.0000 0.78560  0.21330  0.90860  Biso   1.000  H
  H500     1.0000 0.71440  0.71330  0.59140  Biso   1.000  H
  H501     1.0000 0.13440  0.82050  0.10690  Biso   1.000  H
  H502     1.0000 0.36560  0.32050  0.39310  Biso   1.000  H
  H503     1.0000 0.86560  0.17950  0.89310  Biso   1.000  H
  H504     1.0000 0.63440  0.67950  0.60690  Biso   1.000  H
  Br21     1.0000 0.46510  0.92020  0.41720  Biso   1.000  Br
  Br22     1.0000 0.03490  0.42020  0.08280  Biso   1.000  Br
  Br23     1.0000 0.53490  0.07980  0.58280  Biso   1.000  Br
  Br24     1.0000 0.96510  0.57980  0.91720  Biso   1.000  Br
  Br25     1.0000 0.93310  0.63990  0.35070  Biso   1.000  Br
  Br26     1.0000 0.56690  0.13990  0.14930  Biso   1.000  Br
  Br27     1.0000 0.06690  0.36010  0.64930  Biso   1.000  Br
  Br28     1.0000 0.43310  0.86010  0.85070  Biso   1.000  Br
