data_image0
_cell_length_a       28.9123
_cell_length_b       20.7706
_cell_length_c       29.7284
_cell_angle_alpha    90
_cell_angle_beta     101.224
_cell_angle_gamma    90

_symmetry_space_group_name_H-M    "P 1"
_symmetry_int_tables_number       1

loop_
  _symmetry_equiv_pos_as_xyz
  'x, y, z'

loop_
  _atom_site_label
  _atom_site_occupancy
  _atom_site_fract_x
  _atom_site_fract_y
  _atom_site_fract_z
  _atom_site_thermal_displace_type
  _atom_site_B_iso_or_equiv
  _atom_site_type_symbol
  Cu1      1.0000 0.74012  0.50369  0.56474  Biso   1.000  Cu
  Cu2      1.0000 0.25988  0.00369  0.93526  Biso   1.000  Cu
  Cu3      1.0000 0.25988  0.49631  0.43526  Biso   1.000  Cu
  Cu4      1.0000 0.74012  0.99631  0.06474  Biso   1.000  Cu
  O1       1.0000 0.34210  0.83010  0.25930  Biso   1.000  O
  O2       1.0000 0.65790  0.33010  0.24070  Biso   1.000  O
  O3       1.0000 0.65790  0.16990  0.74070  Biso   1.000  O
  O4       1.0000 0.34210  0.66990  0.75930  Biso   1.000  O
  N1       1.0000 0.28330  0.60050  0.12047  Biso   1.000  N
  N2       1.0000 0.71670  0.10050  0.37953  Biso   1.000  N
  N3       1.0000 0.71670  0.39950  0.87953  Biso   1.000  N
  N4       1.0000 0.28330  0.89950  0.62047  Biso   1.000  N
  C1       1.0000 0.45700  0.91430  0.28400  Biso   1.000  C
  C2       1.0000 0.54300  0.41430  0.21600  Biso   1.000  C
  C3       1.0000 0.54300  0.08570  0.71600  Biso   1.000  C
  C4       1.0000 0.45700  0.58570  0.78400  Biso   1.000  C
  Cu5      1.0000 0.23860  0.54932  0.07284  Biso   1.000  Cu
  Cu6      1.0000 0.76140  0.04932  0.42716  Biso   1.000  Cu
  Cu7      1.0000 0.76140  0.45068  0.92716  Biso   1.000  Cu
  Cu8      1.0000 0.23860  0.95068  0.57284  Biso   1.000  Cu
  O5       1.0000 0.60870  0.66980  0.30200  Biso   1.000  O
  O6       1.0000 0.39130  0.16980  0.19800  Biso   1.000  O
  O7       1.0000 0.39130  0.33020  0.69800  Biso   1.000  O
  O8       1.0000 0.60870  0.83020  0.80200  Biso   1.000  O
  N5       1.0000 0.77110  0.43070  0.60240  Biso   1.000  N
  N6       1.0000 0.22890  0.93070  0.89760  Biso   1.000  N
  N7       1.0000 0.22890  0.56930  0.39760  Biso   1.000  N
  N8       1.0000 0.77110  0.06930  0.10240  Biso   1.000  N
  O9       1.0000 0.57450  0.64420  0.39120  Biso   1.000  O
  O10      1.0000 0.42550  0.14420  0.10880  Biso   1.000  O
  O11      1.0000 0.42550  0.35580  0.60880  Biso   1.000  O
  O12      1.0000 0.57450  0.85580  0.89120  Biso   1.000  O
  O13      1.0000 0.12420  0.35700  0.89600  Biso   1.000  O
  O14      1.0000 0.87580  0.85700  0.60400  Biso   1.000  O
  O15      1.0000 0.87580  0.64300  0.10400  Biso   1.000  O
  O16      1.0000 0.12420  0.14300  0.39600  Biso   1.000  O
  O17      1.0000 0.38870  0.76390  0.20500  Biso   1.000  O
  O18      1.0000 0.61130  0.26390  0.29500  Biso   1.000  O
  O19      1.0000 0.61130  0.23610  0.79500  Biso   1.000  O
  O20      1.0000 0.38870  0.73610  0.70500  Biso   1.000  O
  N9       1.0000 0.70170  0.55040  0.51220  Biso   1.000  N
  N10      1.0000 0.29830  0.05040  0.98780  Biso   1.000  N
  N11      1.0000 0.29830  0.44960  0.48780  Biso   1.000  N
  N12      1.0000 0.70170  0.94960  0.01220  Biso   1.000  N
  C5       1.0000 0.40910  0.90020  0.28360  Biso   1.000  C
  C6       1.0000 0.59090  0.40020  0.21640  Biso   1.000  C
  C7       1.0000 0.59090  0.09980  0.71640  Biso   1.000  C
  C8       1.0000 0.40910  0.59980  0.78360  Biso   1.000  C
  H1       1.0000 0.39160  0.92730  0.29990  Biso   1.000  H
  H2       1.0000 0.60840  0.42730  0.20010  Biso   1.000  H
  H3       1.0000 0.60840  0.07270  0.70010  Biso   1.000  H
  H4       1.0000 0.39160  0.57270  0.79990  Biso   1.000  H
  O21      1.0000 0.38580  0.69290  0.26190  Biso   1.000  O
  O22      1.0000 0.61420  0.19290  0.23810  Biso   1.000  O
  O23      1.0000 0.61420  0.30710  0.73810  Biso   1.000  O
  O24      1.0000 0.38580  0.80710  0.76190  Biso   1.000  O
  N13      1.0000 0.28610  0.94300  0.53070  Biso   1.000  N
  N14      1.0000 0.71390  0.44300  0.96930  Biso   1.000  N
  N15      1.0000 0.71390  0.05700  0.46930  Biso   1.000  N
  N16      1.0000 0.28610  0.55700  0.03070  Biso   1.000  N
  C9       1.0000 0.38740  0.84740  0.26000  Biso   1.000  C
  C10      1.0000 0.61260  0.34740  0.24000  Biso   1.000  C
  C11      1.0000 0.61260  0.15260  0.74000  Biso   1.000  C
  C12      1.0000 0.38740  0.65260  0.76000  Biso   1.000  C
  C13      1.0000 0.41270  0.81060  0.23520  Biso   1.000  C
  C14      1.0000 0.58730  0.31060  0.26480  Biso   1.000  C
  C15      1.0000 0.58730  0.18940  0.76480  Biso   1.000  C
  C16      1.0000 0.41270  0.68940  0.73520  Biso   1.000  C
  O25      1.0000 0.63808  0.70650  0.39049  Biso   1.000  O
  O26      1.0000 0.36192  0.20650  0.10951  Biso   1.000  O
  O27      1.0000 0.36192  0.29350  0.60951  Biso   1.000  O
  O28      1.0000 0.63808  0.79350  0.89049  Biso   1.000  O
  N17      1.0000 0.19461  0.49900  0.02431  Biso   1.000  N
  N18      1.0000 0.80539  0.99900  0.47569  Biso   1.000  N
  N19      1.0000 0.80539  0.50100  0.97569  Biso   1.000  N
  N20      1.0000 0.19461  0.00100  0.52431  Biso   1.000  N
  C17      1.0000 0.45910  0.82210  0.23470  Biso   1.000  C
  C18      1.0000 0.54090  0.32210  0.26530  Biso   1.000  C
  C19      1.0000 0.54090  0.17790  0.76530  Biso   1.000  C
  C20      1.0000 0.45910  0.67790  0.73470  Biso   1.000  C
  H5       1.0000 0.47570  0.79530  0.21730  Biso   1.000  H
  H6       1.0000 0.52430  0.29530  0.28270  Biso   1.000  H
  H7       1.0000 0.52430  0.20470  0.78270  Biso   1.000  H
  H8       1.0000 0.47570  0.70470  0.71730  Biso   1.000  H
  N21      1.0000 0.79490  0.99840  0.03160  Biso   1.000  N
  N22      1.0000 0.20510  0.49840  0.46840  Biso   1.000  N
  N23      1.0000 0.20510  0.00160  0.96840  Biso   1.000  N
  N24      1.0000 0.79490  0.50160  0.53160  Biso   1.000  N
  C21      1.0000 0.48240  0.87470  0.26030  Biso   1.000  C
  C22      1.0000 0.51760  0.37470  0.23970  Biso   1.000  C
  C23      1.0000 0.51760  0.12530  0.73970  Biso   1.000  C
  C24      1.0000 0.48240  0.62530  0.76030  Biso   1.000  C
  O29      1.0000 0.50614  0.90820  0.50098  Biso   1.000  O
  O30      1.0000 0.49386  0.40820  0.99902  Biso   1.000  O
  O31      1.0000 0.49386  0.09180  0.49902  Biso   1.000  O
  O32      1.0000 0.50614  0.59180  0.00098  Biso   1.000  O
  N25      1.0000 0.79480  0.66520  0.65890  Biso   1.000  N
  N26      1.0000 0.20520  0.16520  0.84110  Biso   1.000  N
  N27      1.0000 0.20520  0.33480  0.34110  Biso   1.000  N
  N28      1.0000 0.79480  0.83480  0.15890  Biso   1.000  N
  C25      1.0000 0.53530  0.88110  0.26150  Biso   1.000  C
  C26      1.0000 0.46470  0.38110  0.23850  Biso   1.000  C
  C27      1.0000 0.46470  0.11890  0.73850  Biso   1.000  C
  C28      1.0000 0.53530  0.61890  0.76150  Biso   1.000  C
  H9       1.0000 0.54190  0.87050  0.23090  Biso   1.000  H
  H10      1.0000 0.45810  0.37050  0.26910  Biso   1.000  H
  H11      1.0000 0.45810  0.12950  0.76910  Biso   1.000  H
  H12      1.0000 0.54190  0.62950  0.73090  Biso   1.000  H
  H13      1.0000 0.54500  0.92630  0.26860  Biso   1.000  H
  H14      1.0000 0.45500  0.42630  0.23140  Biso   1.000  H
  H15      1.0000 0.45500  0.07370  0.73140  Biso   1.000  H
  H16      1.0000 0.54500  0.57370  0.76860  Biso   1.000  H
  O33      1.0000 0.42469  0.95860  0.45713  Biso   1.000  O
  O34      1.0000 0.57531  0.45860  0.04287  Biso   1.000  O
  O35      1.0000 0.57531  0.04140  0.54287  Biso   1.000  O
  O36      1.0000 0.42469  0.54140  0.95713  Biso   1.000  O
  C29      1.0000 0.56360  0.83710  0.29700  Biso   1.000  C
  C30      1.0000 0.43640  0.33710  0.20300  Biso   1.000  C
  C31      1.0000 0.43640  0.16290  0.70300  Biso   1.000  C
  C32      1.0000 0.56360  0.66290  0.79700  Biso   1.000  C
  O37      1.0000 0.39380  0.86610  0.43060  Biso   1.000  O
  O38      1.0000 0.60620  0.36610  0.06940  Biso   1.000  O
  O39      1.0000 0.60620  0.13390  0.56940  Biso   1.000  O
  O40      1.0000 0.39380  0.63390  0.93060  Biso   1.000  O
  C33      1.0000 0.57250  0.77540  0.28270  Biso   1.000  C
  C34      1.0000 0.42750  0.27540  0.21730  Biso   1.000  C
  C35      1.0000 0.42750  0.22460  0.71730  Biso   1.000  C
  C36      1.0000 0.57250  0.72460  0.78270  Biso   1.000  C
  H17      1.0000 0.56190  0.76380  0.25150  Biso   1.000  H
  H18      1.0000 0.43810  0.26380  0.24850  Biso   1.000  H
  H19      1.0000 0.43810  0.23620  0.74850  Biso   1.000  H
  H20      1.0000 0.56190  0.73620  0.75150  Biso   1.000  H
  O41      1.0000 0.82810  0.19370  0.74770  Biso   1.000  O
  O42      1.0000 0.17190  0.69370  0.75230  Biso   1.000  O
  O43      1.0000 0.17190  0.80630  0.25230  Biso   1.000  O
  O44      1.0000 0.82810  0.30630  0.24770  Biso   1.000  O
  C37      1.0000 0.59680  0.73050  0.31310  Biso   1.000  C
  C38      1.0000 0.40320  0.23050  0.18690  Biso   1.000  C
  C39      1.0000 0.40320  0.26950  0.68690  Biso   1.000  C
  C40      1.0000 0.59680  0.76950  0.81310  Biso   1.000  C
  O45      1.0000 0.87315  0.28000  0.70475  Biso   1.000  O
  O46      1.0000 0.12685  0.78000  0.79525  Biso   1.000  O
  O47      1.0000 0.12685  0.72000  0.29525  Biso   1.000  O
  O48      1.0000 0.87315  0.22000  0.20475  Biso   1.000  O
  C41      1.0000 0.61080  0.74930  0.35840  Biso   1.000  C
  C42      1.0000 0.38920  0.24930  0.14160  Biso   1.000  C
  C43      1.0000 0.38920  0.25070  0.64160  Biso   1.000  C
  C44      1.0000 0.61080  0.75070  0.85840  Biso   1.000  C
  O49      1.0000 0.84480  0.21470  0.64580  Biso   1.000  O
  O50      1.0000 0.15520  0.71470  0.85420  Biso   1.000  O
  O51      1.0000 0.15520  0.78530  0.35420  Biso   1.000  O
  O52      1.0000 0.84480  0.28530  0.14580  Biso   1.000  O
  C45      1.0000 0.60370  0.81000  0.37310  Biso   1.000  C
  C46      1.0000 0.39630  0.31000  0.12690  Biso   1.000  C
  C47      1.0000 0.39630  0.19000  0.62690  Biso   1.000  C
  C48      1.0000 0.60370  0.69000  0.87310  Biso   1.000  C
  H21      1.0000 0.61470  0.82110  0.40440  Biso   1.000  H
  H22      1.0000 0.38530  0.32110  0.09560  Biso   1.000  H
  H23      1.0000 0.38530  0.17890  0.59560  Biso   1.000  H
  H24      1.0000 0.61470  0.67890  0.90440  Biso   1.000  H
  O53      1.0000 0.08260  0.40060  0.81200  Biso   1.000  O
  O54      1.0000 0.91740  0.90060  0.68800  Biso   1.000  O
  O55      1.0000 0.91740  0.59940  0.18800  Biso   1.000  O
  O56      1.0000 0.08260  0.09940  0.31200  Biso   1.000  O
  C49      1.0000 0.58040  0.85600  0.34250  Biso   1.000  C
  C50      1.0000 0.41960  0.35600  0.15750  Biso   1.000  C
  C51      1.0000 0.41960  0.14400  0.65750  Biso   1.000  C
  C52      1.0000 0.58040  0.64400  0.84250  Biso   1.000  C
  C53      1.0000 0.57510  0.92440  0.36040  Biso   1.000  C
  C54      1.0000 0.42490  0.42440  0.13960  Biso   1.000  C
  C55      1.0000 0.42490  0.07560  0.63960  Biso   1.000  C
  C56      1.0000 0.57510  0.57560  0.86040  Biso   1.000  C
  H25      1.0000 0.60460  0.93620  0.38180  Biso   1.000  H
  H26      1.0000 0.39540  0.43620  0.11820  Biso   1.000  H
  H27      1.0000 0.39540  0.06380  0.61820  Biso   1.000  H
  H28      1.0000 0.60460  0.56380  0.88180  Biso   1.000  H
  H29      1.0000 0.57110  0.95470  0.33420  Biso   1.000  H
  H30      1.0000 0.42890  0.45470  0.16580  Biso   1.000  H
  H31      1.0000 0.42890  0.04530  0.66580  Biso   1.000  H
  H32      1.0000 0.57110  0.54530  0.83420  Biso   1.000  H
  O57      1.0000 0.05921  0.39320  0.91890  Biso   1.000  O
  O58      1.0000 0.94079  0.89320  0.58110  Biso   1.000  O
  O59      1.0000 0.94079  0.60680  0.08110  Biso   1.000  O
  O60      1.0000 0.05921  0.10680  0.41890  Biso   1.000  O
  C57      1.0000 0.53390  0.93320  0.38490  Biso   1.000  C
  C58      1.0000 0.46610  0.43320  0.11510  Biso   1.000  C
  C59      1.0000 0.46610  0.06680  0.61510  Biso   1.000  C
  C60      1.0000 0.53390  0.56680  0.88490  Biso   1.000  C
  O61      1.0000 0.99029  0.14500  0.99601  Biso   1.000  O
  O62      1.0000 0.00971  0.64500  0.50399  Biso   1.000  O
  O63      1.0000 0.00971  0.85500  0.00399  Biso   1.000  O
  O64      1.0000 0.99029  0.35500  0.49601  Biso   1.000  O
  C61      1.0000 0.54040  0.91700  0.43170  Biso   1.000  C
  C62      1.0000 0.45960  0.41700  0.06830  Biso   1.000  C
  C63      1.0000 0.45960  0.08300  0.56830  Biso   1.000  C
  C64      1.0000 0.54040  0.58300  0.93170  Biso   1.000  C
  H33      1.0000 0.57010  0.90090  0.44690  Biso   1.000  H
  H34      1.0000 0.42990  0.40090  0.05310  Biso   1.000  H
  H35      1.0000 0.42990  0.09910  0.55310  Biso   1.000  H
  H36      1.0000 0.57010  0.59910  0.94690  Biso   1.000  H
  O65      1.0000 0.91304  0.08550  0.94940  Biso   1.000  O
  O66      1.0000 0.08696  0.58550  0.55060  Biso   1.000  O
  O67      1.0000 0.08696  0.91450  0.05060  Biso   1.000  O
  O68      1.0000 0.91304  0.41450  0.44940  Biso   1.000  O
  C65      1.0000 0.50440  0.92410  0.45630  Biso   1.000  C
  C66      1.0000 0.49560  0.42410  0.04370  Biso   1.000  C
  C67      1.0000 0.49560  0.07590  0.54370  Biso   1.000  C
  C68      1.0000 0.50440  0.57590  0.95630  Biso   1.000  C
  O69      1.0000 0.94560  0.98960  0.97230  Biso   1.000  O
  O70      1.0000 0.05440  0.48960  0.52770  Biso   1.000  O
  O71      1.0000 0.05440  0.01040  0.02770  Biso   1.000  O
  O72      1.0000 0.94560  0.51040  0.47230  Biso   1.000  O
  C69      1.0000 0.46100  0.94940  0.43220  Biso   1.000  C
  C70      1.0000 0.53900  0.44940  0.06780  Biso   1.000  C
  C71      1.0000 0.53900  0.05060  0.56780  Biso   1.000  C
  C72      1.0000 0.46100  0.55060  0.93220  Biso   1.000  C
  O73      1.0000 0.68460  0.49080  0.59230  Biso   1.000  O
  O74      1.0000 0.31540  0.99080  0.90770  Biso   1.000  O
  O75      1.0000 0.31540  0.50920  0.40770  Biso   1.000  O
  O76      1.0000 0.68460  0.00920  0.09230  Biso   1.000  O
  C73      1.0000 0.45460  0.96670  0.38770  Biso   1.000  C
  C74      1.0000 0.54540  0.46670  0.11230  Biso   1.000  C
  C75      1.0000 0.54540  0.03330  0.61230  Biso   1.000  C
  C76      1.0000 0.45460  0.53330  0.88770  Biso   1.000  C
  H37      1.0000 0.42540  0.98490  0.37310  Biso   1.000  H
  H38      1.0000 0.57460  0.48490  0.12690  Biso   1.000  H
  H39      1.0000 0.57460  0.01510  0.62690  Biso   1.000  H
  H40      1.0000 0.42540  0.51510  0.87310  Biso   1.000  H
  O77      1.0000 0.76950  0.58320  0.60830  Biso   1.000  O
  O78      1.0000 0.23050  0.08320  0.89170  Biso   1.000  O
  O79      1.0000 0.23050  0.41680  0.39170  Biso   1.000  O
  O80      1.0000 0.76950  0.91680  0.10830  Biso   1.000  O
  C77      1.0000 0.49050  0.95810  0.36230  Biso   1.000  C
  C78      1.0000 0.50950  0.45810  0.13770  Biso   1.000  C
  C79      1.0000 0.50950  0.04190  0.63770  Biso   1.000  C
  C80      1.0000 0.49050  0.54190  0.86230  Biso   1.000  C
  C81      1.0000 0.47840  0.97200  0.31150  Biso   1.000  C
  C82      1.0000 0.52160  0.47200  0.18850  Biso   1.000  C
  C83      1.0000 0.52160  0.02800  0.68850  Biso   1.000  C
  C84      1.0000 0.47840  0.52800  0.81150  Biso   1.000  C
  H41      1.0000 0.50730  0.98530  0.30080  Biso   1.000  H
  H42      1.0000 0.49270  0.48530  0.19920  Biso   1.000  H
  H43      1.0000 0.49270  0.01470  0.69920  Biso   1.000  H
  H44      1.0000 0.50730  0.51470  0.80080  Biso   1.000  H
  H45      1.0000 0.45570  0.00830  0.30610  Biso   1.000  H
  H46      1.0000 0.54430  0.50830  0.19390  Biso   1.000  H
  H47      1.0000 0.54430  0.99170  0.69390  Biso   1.000  H
  H48      1.0000 0.45570  0.49170  0.80610  Biso   1.000  H
  C85      1.0000 0.31720  0.86530  0.28680  Biso   1.000  C
  C86      1.0000 0.68280  0.36530  0.21320  Biso   1.000  C
  C87      1.0000 0.68280  0.13470  0.71320  Biso   1.000  C
  C88      1.0000 0.31720  0.63470  0.78680  Biso   1.000  C
  H49      1.0000 0.33560  0.86740  0.31810  Biso   1.000  H
  H50      1.0000 0.66440  0.36740  0.18190  Biso   1.000  H
  H51      1.0000 0.66440  0.13260  0.68190  Biso   1.000  H
  H52      1.0000 0.33560  0.63260  0.81810  Biso   1.000  H
  H53      1.0000 0.28690  0.84420  0.28700  Biso   1.000  H
  H54      1.0000 0.71310  0.34420  0.21300  Biso   1.000  H
  H55      1.0000 0.71310  0.15580  0.71300  Biso   1.000  H
  H56      1.0000 0.28690  0.65580  0.78700  Biso   1.000  H
  H57      1.0000 0.31160  0.90900  0.27450  Biso   1.000  H
  H58      1.0000 0.68840  0.40900  0.22550  Biso   1.000  H
  H59      1.0000 0.68840  0.09100  0.72550  Biso   1.000  H
  H60      1.0000 0.31160  0.59100  0.77450  Biso   1.000  H
  C89      1.0000 0.37490  0.70880  0.22180  Biso   1.000  C
  C90      1.0000 0.62510  0.20880  0.27820  Biso   1.000  C
  C91      1.0000 0.62510  0.29120  0.77820  Biso   1.000  C
  C92      1.0000 0.37490  0.79120  0.72180  Biso   1.000  C
  C93      1.0000 0.34410  0.67030  0.18550  Biso   1.000  C
  C94      1.0000 0.65590  0.17030  0.31450  Biso   1.000  C
  C95      1.0000 0.65590  0.32970  0.81450  Biso   1.000  C
  C96      1.0000 0.34410  0.82970  0.68550  Biso   1.000  C
  C97      1.0000 0.32980  0.61070  0.19640  Biso   1.000  C
  C98      1.0000 0.67020  0.11070  0.30360  Biso   1.000  C
  C99      1.0000 0.67020  0.38930  0.80360  Biso   1.000  C
  C100     1.0000 0.32980  0.88930  0.69640  Biso   1.000  C
  H61      1.0000 0.34070  0.59270  0.22590  Biso   1.000  H
  H62      1.0000 0.65930  0.09270  0.27410  Biso   1.000  H
  H63      1.0000 0.65930  0.40730  0.77410  Biso   1.000  H
  H64      1.0000 0.34070  0.90730  0.72590  Biso   1.000  H
  C101     1.0000 0.29850  0.57690  0.16240  Biso   1.000  C
  C102     1.0000 0.70150  0.07690  0.33760  Biso   1.000  C
  C103     1.0000 0.70150  0.42310  0.83760  Biso   1.000  C
  C104     1.0000 0.29850  0.92310  0.66240  Biso   1.000  C
  H65      1.0000 0.28770  0.53560  0.16960  Biso   1.000  H
  H66      1.0000 0.71230  0.03560  0.33040  Biso   1.000  H
  H67      1.0000 0.71230  0.46440  0.83040  Biso   1.000  H
  H68      1.0000 0.28770  0.96440  0.66960  Biso   1.000  H
  C105     1.0000 0.29980  0.65740  0.11050  Biso   1.000  C
  C106     1.0000 0.70020  0.15740  0.38950  Biso   1.000  C
  C107     1.0000 0.70020  0.34260  0.88950  Biso   1.000  C
  C108     1.0000 0.29980  0.84260  0.61050  Biso   1.000  C
  H69      1.0000 0.29050  0.67330  0.08010  Biso   1.000  H
  H70      1.0000 0.70950  0.17330  0.41990  Biso   1.000  H
  H71      1.0000 0.70950  0.32670  0.91990  Biso   1.000  H
  H72      1.0000 0.29050  0.82670  0.58010  Biso   1.000  H
  C109     1.0000 0.32960  0.69500  0.14210  Biso   1.000  C
  C110     1.0000 0.67040  0.19500  0.35790  Biso   1.000  C
  C111     1.0000 0.67040  0.30500  0.85790  Biso   1.000  C
  C112     1.0000 0.32960  0.80500  0.64210  Biso   1.000  C
  H73      1.0000 0.33980  0.73620  0.13410  Biso   1.000  H
  H74      1.0000 0.66020  0.23620  0.36590  Biso   1.000  H
  H75      1.0000 0.66020  0.26380  0.86590  Biso   1.000  H
  H76      1.0000 0.33980  0.76380  0.63410  Biso   1.000  H
  C113     1.0000 0.60200  0.65540  0.25350  Biso   1.000  C
  C114     1.0000 0.39800  0.15540  0.24650  Biso   1.000  C
  C115     1.0000 0.39800  0.34460  0.74650  Biso   1.000  C
  C116     1.0000 0.60200  0.84460  0.75350  Biso   1.000  C
  H77      1.0000 0.56840  0.65840  0.23970  Biso   1.000  H
  H78      1.0000 0.43160  0.15840  0.26030  Biso   1.000  H
  H79      1.0000 0.43160  0.34160  0.76030  Biso   1.000  H
  H80      1.0000 0.56840  0.84160  0.73970  Biso   1.000  H
  H81      1.0000 0.61330  0.61170  0.24940  Biso   1.000  H
  H82      1.0000 0.38670  0.11170  0.25060  Biso   1.000  H
  H83      1.0000 0.38670  0.38830  0.75060  Biso   1.000  H
  H84      1.0000 0.61330  0.88830  0.74940  Biso   1.000  H
  H85      1.0000 0.61980  0.68630  0.23870  Biso   1.000  H
  H86      1.0000 0.38020  0.18630  0.26130  Biso   1.000  H
  H87      1.0000 0.38020  0.31370  0.76130  Biso   1.000  H
  H88      1.0000 0.61980  0.81370  0.73870  Biso   1.000  H
  C117     1.0000 0.61520  0.65690  0.40490  Biso   1.000  C
  C118     1.0000 0.38480  0.15690  0.09510  Biso   1.000  C
  C119     1.0000 0.38480  0.34310  0.59510  Biso   1.000  C
  C120     1.0000 0.61520  0.84310  0.90490  Biso   1.000  C
  C121     1.0000 0.64710  0.61960  0.44130  Biso   1.000  C
  C122     1.0000 0.35290  0.11960  0.05870  Biso   1.000  C
  C123     1.0000 0.35290  0.38040  0.55870  Biso   1.000  C
  C124     1.0000 0.64710  0.88040  0.94130  Biso   1.000  C
  C125     1.0000 0.63060  0.56070  0.45570  Biso   1.000  C
  C126     1.0000 0.36940  0.06070  0.04430  Biso   1.000  C
  C127     1.0000 0.36940  0.43930  0.54430  Biso   1.000  C
  C128     1.0000 0.63060  0.93930  0.95570  Biso   1.000  C
  H89      1.0000 0.60100  0.54360  0.44100  Biso   1.000  H
  H90      1.0000 0.39900  0.04360  0.05900  Biso   1.000  H
  H91      1.0000 0.39900  0.45640  0.55900  Biso   1.000  H
  H92      1.0000 0.60100  0.95640  0.94100  Biso   1.000  H
  C129     1.0000 0.65850  0.52870  0.49130  Biso   1.000  C
  C130     1.0000 0.34150  0.02870  0.00870  Biso   1.000  C
  C131     1.0000 0.34150  0.47130  0.50870  Biso   1.000  C
  C132     1.0000 0.65850  0.97130  0.99130  Biso   1.000  C
  H93      1.0000 0.64710  0.48980  0.50190  Biso   1.000  H
  H94      1.0000 0.35290  0.98980  0.99810  Biso   1.000  H
  H95      1.0000 0.35290  0.51020  0.49810  Biso   1.000  H
  H96      1.0000 0.64710  0.01020  0.00190  Biso   1.000  H
  O81      1.0000 0.19471  0.53990  0.11689  Biso   1.000  O
  O82      1.0000 0.80529  0.03990  0.38311  Biso   1.000  O
  O83      1.0000 0.80529  0.46010  0.88311  Biso   1.000  O
  O84      1.0000 0.19471  0.96010  0.61689  Biso   1.000  O
  C133     1.0000 0.71750  0.60500  0.49710  Biso   1.000  C
  C134     1.0000 0.28250  0.10500  0.00290  Biso   1.000  C
  C135     1.0000 0.28250  0.39500  0.50290  Biso   1.000  C
  C136     1.0000 0.71750  0.89500  0.99710  Biso   1.000  C
  H97      1.0000 0.74810  0.61970  0.51090  Biso   1.000  H
  H98      1.0000 0.25190  0.11970  0.98910  Biso   1.000  H
  H99      1.0000 0.25190  0.38030  0.48910  Biso   1.000  H
  H100     1.0000 0.74810  0.88030  0.01090  Biso   1.000  H
  C137     1.0000 0.69130  0.64130  0.46230  Biso   1.000  C
  C138     1.0000 0.30870  0.14130  0.03770  Biso   1.000  C
  C139     1.0000 0.30870  0.35870  0.53770  Biso   1.000  C
  C140     1.0000 0.69130  0.85870  0.96230  Biso   1.000  C
  H101     1.0000 0.70350  0.68050  0.45290  Biso   1.000  H
  H102     1.0000 0.29650  0.18050  0.04710  Biso   1.000  H
  H103     1.0000 0.29650  0.31950  0.54710  Biso   1.000  H
  H104     1.0000 0.70350  0.81950  0.95290  Biso   1.000  H
  C141     1.0000 0.54910  0.88040  0.52450  Biso   1.000  C
  C142     1.0000 0.45090  0.38040  0.97550  Biso   1.000  C
  C143     1.0000 0.45090  0.11960  0.47550  Biso   1.000  C
  C144     1.0000 0.54910  0.61960  0.02450  Biso   1.000  C
  H105     1.0000 0.55520  0.84040  0.50920  Biso   1.000  H
  H106     1.0000 0.44480  0.34040  0.99080  Biso   1.000  H
  H107     1.0000 0.44480  0.15960  0.49080  Biso   1.000  H
  H108     1.0000 0.55520  0.65960  0.00920  Biso   1.000  H
  H109     1.0000 0.54670  0.87100  0.55630  Biso   1.000  H
  H110     1.0000 0.45330  0.37100  0.94370  Biso   1.000  H
  H111     1.0000 0.45330  0.12900  0.44370  Biso   1.000  H
  H112     1.0000 0.54670  0.62900  0.05630  Biso   1.000  H
  H113     1.0000 0.57510  0.91070  0.52430  Biso   1.000  H
  H114     1.0000 0.42490  0.41070  0.97570  Biso   1.000  H
  H115     1.0000 0.42490  0.08930  0.47570  Biso   1.000  H
  H116     1.0000 0.57510  0.58930  0.02430  Biso   1.000  H
  C145     1.0000 0.39210  0.91300  0.45290  Biso   1.000  C
  C146     1.0000 0.60790  0.41300  0.04710  Biso   1.000  C
  C147     1.0000 0.60790  0.08700  0.54710  Biso   1.000  C
  C148     1.0000 0.39210  0.58700  0.95290  Biso   1.000  C
  C149     1.0000 0.35530  0.92560  0.48000  Biso   1.000  C
  C150     1.0000 0.64470  0.42560  0.02000  Biso   1.000  C
  C151     1.0000 0.64470  0.07440  0.52000  Biso   1.000  C
  C152     1.0000 0.35530  0.57440  0.98000  Biso   1.000  C
  C153     1.0000 0.31780  0.88450  0.47530  Biso   1.000  C
  C154     1.0000 0.68220  0.38450  0.02470  Biso   1.000  C
  C155     1.0000 0.68220  0.11550  0.52470  Biso   1.000  C
  C156     1.0000 0.31780  0.61550  0.97530  Biso   1.000  C
  H117     1.0000 0.31570  0.84860  0.45520  Biso   1.000  H
  H118     1.0000 0.68430  0.34860  0.04480  Biso   1.000  H
  H119     1.0000 0.68430  0.15140  0.54480  Biso   1.000  H
  H120     1.0000 0.31570  0.65140  0.95520  Biso   1.000  H
  C157     1.0000 0.28270  0.89620  0.50030  Biso   1.000  C
  C158     1.0000 0.71730  0.39620  0.99970  Biso   1.000  C
  C159     1.0000 0.71730  0.10380  0.49970  Biso   1.000  C
  C160     1.0000 0.28270  0.60380  0.00030  Biso   1.000  C
  H121     1.0000 0.25550  0.86960  0.49530  Biso   1.000  H
  H122     1.0000 0.74450  0.36960  0.00470  Biso   1.000  H
  H123     1.0000 0.74450  0.13040  0.50470  Biso   1.000  H
  H124     1.0000 0.25550  0.63040  0.99530  Biso   1.000  H
  C161     1.0000 0.32330  0.98240  0.53590  Biso   1.000  C
  C162     1.0000 0.67670  0.48240  0.96410  Biso   1.000  C
  C163     1.0000 0.67670  0.01760  0.46410  Biso   1.000  C
  C164     1.0000 0.32330  0.51760  0.03590  Biso   1.000  C
  H125     1.0000 0.32540  0.01660  0.55740  Biso   1.000  H
  H126     1.0000 0.67460  0.51660  0.94260  Biso   1.000  H
  H127     1.0000 0.67460  0.98340  0.44260  Biso   1.000  H
  H128     1.0000 0.32540  0.48340  0.05740  Biso   1.000  H
  C165     1.0000 0.35860  0.97510  0.51130  Biso   1.000  C
  C166     1.0000 0.64140  0.47510  0.98870  Biso   1.000  C
  C167     1.0000 0.64140  0.02490  0.48870  Biso   1.000  C
  C168     1.0000 0.35860  0.52490  0.01130  Biso   1.000  C
  H129     1.0000 0.38480  0.00360  0.51590  Biso   1.000  H
  H130     1.0000 0.61520  0.50360  0.98410  Biso   1.000  H
  H131     1.0000 0.61520  0.99640  0.48410  Biso   1.000  H
  H132     1.0000 0.38480  0.49640  0.01590  Biso   1.000  H
  C169     1.0000 0.97370  0.17950  0.75800  Biso   1.000  C
  C170     1.0000 0.02630  0.67950  0.74200  Biso   1.000  C
  C171     1.0000 0.02630  0.82050  0.24200  Biso   1.000  C
  C172     1.0000 0.97370  0.32050  0.25800  Biso   1.000  C
  C173     1.0000 0.94690  0.22720  0.73170  Biso   1.000  C
  C174     1.0000 0.05310  0.72720  0.76830  Biso   1.000  C
  C175     1.0000 0.05310  0.77280  0.26830  Biso   1.000  C
  C176     1.0000 0.94690  0.27280  0.23170  Biso   1.000  C
  H133     1.0000 0.96180  0.25850  0.71610  Biso   1.000  H
  H134     1.0000 0.03820  0.75850  0.78390  Biso   1.000  H
  H135     1.0000 0.03820  0.74150  0.28390  Biso   1.000  H
  H136     1.0000 0.96180  0.24150  0.21610  Biso   1.000  H
  C177     1.0000 0.89910  0.22840  0.72850  Biso   1.000  C
  C178     1.0000 0.10090  0.72840  0.77150  Biso   1.000  C
  C179     1.0000 0.10090  0.77160  0.27150  Biso   1.000  C
  C180     1.0000 0.89910  0.27160  0.22850  Biso   1.000  C
  C181     1.0000 0.87580  0.18480  0.75090  Biso   1.000  C
  C182     1.0000 0.12420  0.68480  0.74910  Biso   1.000  C
  C183     1.0000 0.12420  0.81520  0.24910  Biso   1.000  C
  C184     1.0000 0.87580  0.31520  0.25090  Biso   1.000  C
  C185     1.0000 0.90200  0.13620  0.77520  Biso   1.000  C
  C186     1.0000 0.09800  0.63620  0.72480  Biso   1.000  C
  C187     1.0000 0.09800  0.86380  0.22480  Biso   1.000  C
  C188     1.0000 0.90200  0.36380  0.27520  Biso   1.000  C
  H137     1.0000 0.88640  0.10420  0.78950  Biso   1.000  H
  H138     1.0000 0.11360  0.60420  0.71050  Biso   1.000  H
  H139     1.0000 0.11360  0.89580  0.21050  Biso   1.000  H
  H140     1.0000 0.88640  0.39580  0.28950  Biso   1.000  H
  C189     1.0000 0.95100  0.13300  0.77930  Biso   1.000  C
  C190     1.0000 0.04900  0.63300  0.72070  Biso   1.000  C
  C191     1.0000 0.04900  0.86700  0.22070  Biso   1.000  C
  C192     1.0000 0.95100  0.36700  0.27930  Biso   1.000  C
  C193     1.0000 0.97660  0.07890  0.80860  Biso   1.000  C
  C194     1.0000 0.02340  0.57890  0.69140  Biso   1.000  C
  C195     1.0000 0.02340  0.92110  0.19140  Biso   1.000  C
  C196     1.0000 0.97660  0.42110  0.30860  Biso   1.000  C
  H141     1.0000 0.95790  0.03880  0.80270  Biso   1.000  H
  H142     1.0000 0.04210  0.53880  0.69730  Biso   1.000  H
  H143     1.0000 0.04210  0.96120  0.19730  Biso   1.000  H
  H144     1.0000 0.95790  0.46120  0.30270  Biso   1.000  H
  H145     1.0000 0.00750  0.07130  0.80000  Biso   1.000  H
  H146     1.0000 0.99250  0.57130  0.70000  Biso   1.000  H
  H147     1.0000 0.99250  0.92870  0.20000  Biso   1.000  H
  H148     1.0000 0.00750  0.42870  0.30000  Biso   1.000  H
  C197     1.0000 0.98390  0.09560  0.85920  Biso   1.000  C
  C198     1.0000 0.01610  0.59560  0.64080  Biso   1.000  C
  C199     1.0000 0.01610  0.90440  0.14080  Biso   1.000  C
  C200     1.0000 0.98390  0.40440  0.35920  Biso   1.000  C
  C201     1.0000 0.94720  0.08270  0.88210  Biso   1.000  C
  C202     1.0000 0.05280  0.58270  0.61790  Biso   1.000  C
  C203     1.0000 0.05280  0.91730  0.11790  Biso   1.000  C
  C204     1.0000 0.94720  0.41730  0.38210  Biso   1.000  C
  H149     1.0000 0.91930  0.06240  0.86640  Biso   1.000  H
  H150     1.0000 0.08070  0.56240  0.63360  Biso   1.000  H
  H151     1.0000 0.08070  0.93760  0.13360  Biso   1.000  H
  H152     1.0000 0.91930  0.43760  0.36640  Biso   1.000  H
  C205     1.0000 0.95130  0.09920  0.92700  Biso   1.000  C
  C206     1.0000 0.04870  0.59920  0.57300  Biso   1.000  C
  C207     1.0000 0.04870  0.90080  0.07300  Biso   1.000  C
  C208     1.0000 0.95130  0.40080  0.42700  Biso   1.000  C
  C209     1.0000 0.99150  0.13000  0.95150  Biso   1.000  C
  C210     1.0000 0.00850  0.63000  0.54850  Biso   1.000  C
  C211     1.0000 0.00850  0.87000  0.04850  Biso   1.000  C
  C212     1.0000 0.99150  0.37000  0.45150  Biso   1.000  C
  C213     1.0000 0.02800  0.14150  0.92920  Biso   1.000  C
  C214     1.0000 0.97200  0.64150  0.57080  Biso   1.000  C
  C215     1.0000 0.97200  0.85850  0.07080  Biso   1.000  C
  C216     1.0000 0.02800  0.35850  0.42920  Biso   1.000  C
  H153     1.0000 0.05580  0.16160  0.94540  Biso   1.000  H
  H154     1.0000 0.94420  0.66160  0.55460  Biso   1.000  H
  H155     1.0000 0.94420  0.83840  0.05460  Biso   1.000  H
  H156     1.0000 0.05580  0.33840  0.44540  Biso   1.000  H
  C217     1.0000 0.02520  0.12420  0.88310  Biso   1.000  C
  C218     1.0000 0.97480  0.62420  0.61690  Biso   1.000  C
  C219     1.0000 0.97480  0.87580  0.11690  Biso   1.000  C
  C220     1.0000 0.02520  0.37580  0.38310  Biso   1.000  C
  C221     1.0000 0.06770  0.13720  0.86180  Biso   1.000  C
  C222     1.0000 0.93230  0.63720  0.63820  Biso   1.000  C
  C223     1.0000 0.93230  0.86280  0.13820  Biso   1.000  C
  C224     1.0000 0.06770  0.36280  0.36180  Biso   1.000  C
  H157     1.0000 0.06670  0.10770  0.83550  Biso   1.000  H
  H158     1.0000 0.93330  0.60770  0.66450  Biso   1.000  H
  H159     1.0000 0.93330  0.89230  0.16450  Biso   1.000  H
  H160     1.0000 0.06670  0.39230  0.33550  Biso   1.000  H
  H161     1.0000 0.09660  0.12730  0.88460  Biso   1.000  H
  H162     1.0000 0.90340  0.62730  0.61540  Biso   1.000  H
  H163     1.0000 0.90340  0.87270  0.11540  Biso   1.000  H
  H164     1.0000 0.09660  0.37270  0.38460  Biso   1.000  H
  C225     1.0000 0.07080  0.20700  0.84500  Biso   1.000  C
  C226     1.0000 0.92920  0.70700  0.65500  Biso   1.000  C
  C227     1.0000 0.92920  0.79300  0.15500  Biso   1.000  C
  C228     1.0000 0.07080  0.29300  0.34500  Biso   1.000  C
  C229     1.0000 0.09350  0.25120  0.87650  Biso   1.000  C
  C230     1.0000 0.90650  0.75120  0.62350  Biso   1.000  C
  C231     1.0000 0.90650  0.74880  0.12350  Biso   1.000  C
  C232     1.0000 0.09350  0.24880  0.37650  Biso   1.000  C
  H165     1.0000 0.10680  0.23770  0.90670  Biso   1.000  H
  H166     1.0000 0.89320  0.73770  0.59330  Biso   1.000  H
  H167     1.0000 0.89320  0.76230  0.09330  Biso   1.000  H
  H168     1.0000 0.10680  0.26230  0.40670  Biso   1.000  H
  C233     1.0000 0.09720  0.31530  0.86430  Biso   1.000  C
  C234     1.0000 0.90280  0.81530  0.63570  Biso   1.000  C
  C235     1.0000 0.90280  0.68470  0.13570  Biso   1.000  C
  C236     1.0000 0.09720  0.18470  0.36430  Biso   1.000  C
  C237     1.0000 0.07770  0.33710  0.82070  Biso   1.000  C
  C238     1.0000 0.92230  0.83710  0.67930  Biso   1.000  C
  C239     1.0000 0.92230  0.66290  0.17930  Biso   1.000  C
  C240     1.0000 0.07770  0.16290  0.32070  Biso   1.000  C
  C241     1.0000 0.05540  0.29150  0.78890  Biso   1.000  C
  C242     1.0000 0.94460  0.79150  0.71110  Biso   1.000  C
  C243     1.0000 0.94460  0.70850  0.21110  Biso   1.000  C
  C244     1.0000 0.05540  0.20850  0.28890  Biso   1.000  C
  H169     1.0000 0.04230  0.30510  0.75860  Biso   1.000  H
  H170     1.0000 0.95770  0.80510  0.74140  Biso   1.000  H
  H171     1.0000 0.95770  0.69490  0.24140  Biso   1.000  H
  H172     1.0000 0.04230  0.19490  0.25860  Biso   1.000  H
  C245     1.0000 0.05190  0.22740  0.80030  Biso   1.000  C
  C246     1.0000 0.94810  0.72740  0.69970  Biso   1.000  C
  C247     1.0000 0.94810  0.77260  0.19970  Biso   1.000  C
  C248     1.0000 0.05190  0.27260  0.30030  Biso   1.000  C
  C249     1.0000 0.02730  0.18330  0.76200  Biso   1.000  C
  C250     1.0000 0.97270  0.68330  0.73800  Biso   1.000  C
  C251     1.0000 0.97270  0.81670  0.23800  Biso   1.000  C
  C252     1.0000 0.02730  0.31670  0.26200  Biso   1.000  C
  H173     1.0000 0.04070  0.13950  0.76740  Biso   1.000  H
  H174     1.0000 0.95930  0.63950  0.73260  Biso   1.000  H
  H175     1.0000 0.95930  0.86050  0.23260  Biso   1.000  H
  H176     1.0000 0.04070  0.36050  0.26740  Biso   1.000  H
  H177     1.0000 0.03420  0.19880  0.73250  Biso   1.000  H
  H178     1.0000 0.96580  0.69880  0.76750  Biso   1.000  H
  H179     1.0000 0.96580  0.80120  0.26750  Biso   1.000  H
  H180     1.0000 0.03420  0.30120  0.23250  Biso   1.000  H
  C253     1.0000 0.80630  0.15890  0.78030  Biso   1.000  C
  C254     1.0000 0.19370  0.65890  0.71970  Biso   1.000  C
  C255     1.0000 0.19370  0.84110  0.21970  Biso   1.000  C
  C256     1.0000 0.80630  0.34110  0.28030  Biso   1.000  C
  H181     1.0000 0.80270  0.11360  0.77130  Biso   1.000  H
  H182     1.0000 0.19730  0.61360  0.72870  Biso   1.000  H
  H183     1.0000 0.19730  0.88640  0.22870  Biso   1.000  H
  H184     1.0000 0.80270  0.38640  0.27130  Biso   1.000  H
  H185     1.0000 0.77530  0.17760  0.78090  Biso   1.000  H
  H186     1.0000 0.22470  0.67760  0.71910  Biso   1.000  H
  H187     1.0000 0.22470  0.82240  0.21910  Biso   1.000  H
  H188     1.0000 0.77530  0.32240  0.28090  Biso   1.000  H
  H189     1.0000 0.82630  0.16220  0.81090  Biso   1.000  H
  H190     1.0000 0.17370  0.66220  0.68910  Biso   1.000  H
  H191     1.0000 0.17370  0.83780  0.18910  Biso   1.000  H
  H192     1.0000 0.82630  0.33780  0.31090  Biso   1.000  H
  C257     1.0000 0.84650  0.26650  0.66410  Biso   1.000  C
  C258     1.0000 0.15350  0.76650  0.83590  Biso   1.000  C
  C259     1.0000 0.15350  0.73350  0.33590  Biso   1.000  C
  C260     1.0000 0.84650  0.23350  0.16410  Biso   1.000  C
  C261     1.0000 0.82010  0.32410  0.64320  Biso   1.000  C
  C262     1.0000 0.17990  0.82410  0.85680  Biso   1.000  C
  C263     1.0000 0.17990  0.67590  0.35680  Biso   1.000  C
  C264     1.0000 0.82010  0.17590  0.14320  Biso   1.000  C
  C265     1.0000 0.78250  0.31610  0.60720  Biso   1.000  C
  C266     1.0000 0.21750  0.81610  0.89280  Biso   1.000  C
  C267     1.0000 0.21750  0.68390  0.39280  Biso   1.000  C
  C268     1.0000 0.78250  0.18390  0.10720  Biso   1.000  C
  H193     1.0000 0.77290  0.27440  0.59600  Biso   1.000  H
  H194     1.0000 0.22710  0.77440  0.90400  Biso   1.000  H
  H195     1.0000 0.22710  0.72560  0.40400  Biso   1.000  H
  H196     1.0000 0.77290  0.22560  0.09600  Biso   1.000  H
  C269     1.0000 0.75900  0.37060  0.58780  Biso   1.000  C
  C270     1.0000 0.24100  0.87060  0.91220  Biso   1.000  C
  C271     1.0000 0.24100  0.62940  0.41220  Biso   1.000  C
  C272     1.0000 0.75900  0.12940  0.08780  Biso   1.000  C
  H197     1.0000 0.73310  0.36520  0.56310  Biso   1.000  H
  H198     1.0000 0.26690  0.86520  0.93690  Biso   1.000  H
  H199     1.0000 0.26690  0.63480  0.43690  Biso   1.000  H
  H200     1.0000 0.73310  0.13480  0.06310  Biso   1.000  H
  C273     1.0000 0.80750  0.43750  0.63740  Biso   1.000  C
  C274     1.0000 0.19250  0.93750  0.86260  Biso   1.000  C
  C275     1.0000 0.19250  0.56250  0.36260  Biso   1.000  C
  C276     1.0000 0.80750  0.06250  0.13740  Biso   1.000  C
  H201     1.0000 0.81660  0.47970  0.64780  Biso   1.000  H
  H202     1.0000 0.18340  0.97970  0.85220  Biso   1.000  H
  H203     1.0000 0.18340  0.52030  0.35220  Biso   1.000  H
  H204     1.0000 0.81660  0.02030  0.14780  Biso   1.000  H
  C277     1.0000 0.83240  0.38560  0.65920  Biso   1.000  C
  C278     1.0000 0.16760  0.88560  0.84080  Biso   1.000  C
  C279     1.0000 0.16760  0.61440  0.34080  Biso   1.000  C
  C280     1.0000 0.83240  0.11440  0.15920  Biso   1.000  C
  H205     1.0000 0.85750  0.39200  0.68470  Biso   1.000  H
  H206     1.0000 0.14250  0.89200  0.81530  Biso   1.000  H
  H207     1.0000 0.14250  0.60800  0.31530  Biso   1.000  H
  H208     1.0000 0.85750  0.10800  0.18470  Biso   1.000  H
  C281     1.0000 0.05680  0.42460  0.76870  Biso   1.000  C
  C282     1.0000 0.94320  0.92460  0.73130  Biso   1.000  C
  C283     1.0000 0.94320  0.57540  0.23130  Biso   1.000  C
  C284     1.0000 0.05680  0.07540  0.26870  Biso   1.000  C
  H209     1.0000 0.07090  0.40760  0.74370  Biso   1.000  H
  H210     1.0000 0.92910  0.90760  0.75630  Biso   1.000  H
  H211     1.0000 0.92910  0.59240  0.25630  Biso   1.000  H
  H212     1.0000 0.07090  0.09240  0.24370  Biso   1.000  H
  H213     1.0000 0.05830  0.47180  0.76850  Biso   1.000  H
  H214     1.0000 0.94170  0.97180  0.73150  Biso   1.000  H
  H215     1.0000 0.94170  0.52820  0.23150  Biso   1.000  H
  H216     1.0000 0.05830  0.02820  0.26850  Biso   1.000  H
  H217     1.0000 0.02390  0.41080  0.76450  Biso   1.000  H
  H218     1.0000 0.97610  0.91080  0.73550  Biso   1.000  H
  H219     1.0000 0.97610  0.58920  0.23550  Biso   1.000  H
  H220     1.0000 0.02390  0.08920  0.26450  Biso   1.000  H
  C285     1.0000 0.10160  0.39170  0.92290  Biso   1.000  C
  C286     1.0000 0.89840  0.89170  0.57710  Biso   1.000  C
  C287     1.0000 0.89840  0.60830  0.07710  Biso   1.000  C
  C288     1.0000 0.10160  0.10830  0.42290  Biso   1.000  C
  C289     1.0000 0.13480  0.42810  0.95810  Biso   1.000  C
  C290     1.0000 0.86520  0.92810  0.54190  Biso   1.000  C
  C291     1.0000 0.86520  0.57190  0.04190  Biso   1.000  C
  C292     1.0000 0.13480  0.07190  0.45810  Biso   1.000  C
  C293     1.0000 0.11840  0.48220  0.97780  Biso   1.000  C
  C294     1.0000 0.88160  0.98220  0.52220  Biso   1.000  C
  C295     1.0000 0.88160  0.51780  0.02220  Biso   1.000  C
  C296     1.0000 0.11840  0.01780  0.47780  Biso   1.000  C
  H221     1.0000 0.08650  0.49580  0.96870  Biso   1.000  H
  H222     1.0000 0.91350  0.99580  0.53130  Biso   1.000  H
  H223     1.0000 0.91350  0.50420  0.03130  Biso   1.000  H
  H224     1.0000 0.08650  0.00420  0.46870  Biso   1.000  H
  C297     1.0000 0.14970  0.51610  0.01110  Biso   1.000  C
  C298     1.0000 0.85030  0.01610  0.48890  Biso   1.000  C
  C299     1.0000 0.85030  0.48390  0.98890  Biso   1.000  C
  C300     1.0000 0.14970  0.98390  0.51110  Biso   1.000  C
  H225     1.0000 0.13850  0.55270  0.02490  Biso   1.000  H
  H226     1.0000 0.86150  0.05270  0.47510  Biso   1.000  H
  H227     1.0000 0.86150  0.44730  0.97510  Biso   1.000  H
  H228     1.0000 0.13850  0.94730  0.52490  Biso   1.000  H
  C301     1.0000 0.21040  0.44670  0.00510  Biso   1.000  C
  C302     1.0000 0.78960  0.94670  0.49490  Biso   1.000  C
  C303     1.0000 0.78960  0.55330  0.99490  Biso   1.000  C
  C304     1.0000 0.21040  0.05330  0.50510  Biso   1.000  C
  H229     1.0000 0.24250  0.43450  0.01460  Biso   1.000  H
  H230     1.0000 0.75750  0.93450  0.48540  Biso   1.000  H
  H231     1.0000 0.75750  0.56550  0.98540  Biso   1.000  H
  H232     1.0000 0.24250  0.06550  0.51460  Biso   1.000  H
  C305     1.0000 0.18170  0.41000  0.97200  Biso   1.000  C
  C306     1.0000 0.81830  0.91000  0.52800  Biso   1.000  C
  C307     1.0000 0.81830  0.59000  0.02800  Biso   1.000  C
  C308     1.0000 0.18170  0.09000  0.47200  Biso   1.000  C
  H233     1.0000 0.19380  0.37330  0.95900  Biso   1.000  H
  H234     1.0000 0.80620  0.87330  0.54100  Biso   1.000  H
  H235     1.0000 0.80620  0.62670  0.04100  Biso   1.000  H
  H236     1.0000 0.19380  0.12670  0.45900  Biso   1.000  H
  C309     1.0000 0.03320  0.17190  0.02210  Biso   1.000  C
  C310     1.0000 0.96680  0.67190  0.47790  Biso   1.000  C
  C311     1.0000 0.96680  0.82810  0.97790  Biso   1.000  C
  C312     1.0000 0.03320  0.32810  0.52210  Biso   1.000  C
  H237     1.0000 0.05920  0.14170  0.02230  Biso   1.000  H
  H238     1.0000 0.94080  0.64170  0.47770  Biso   1.000  H
  H239     1.0000 0.94080  0.85830  0.97770  Biso   1.000  H
  H240     1.0000 0.05920  0.35830  0.52230  Biso   1.000  H
  H241     1.0000 0.02930  0.17980  0.05370  Biso   1.000  H
  H242     1.0000 0.97070  0.67980  0.44630  Biso   1.000  H
  H243     1.0000 0.97070  0.82020  0.94630  Biso   1.000  H
  H244     1.0000 0.02930  0.32020  0.55370  Biso   1.000  H
  H245     1.0000 0.04010  0.21260  0.00810  Biso   1.000  H
  H246     1.0000 0.95990  0.71260  0.49190  Biso   1.000  H
  H247     1.0000 0.95990  0.78740  0.99190  Biso   1.000  H
  H248     1.0000 0.04010  0.28740  0.50810  Biso   1.000  H
  C313     1.0000 0.91420  0.02750  0.97060  Biso   1.000  C
  C314     1.0000 0.08580  0.52750  0.52940  Biso   1.000  C
  C315     1.0000 0.08580  0.97250  0.02940  Biso   1.000  C
  C316     1.0000 0.91420  0.47250  0.47060  Biso   1.000  C
  C317     1.0000 0.87180  0.01800  0.99100  Biso   1.000  C
  C318     1.0000 0.12820  0.51800  0.50900  Biso   1.000  C
  C319     1.0000 0.12820  0.98200  0.00900  Biso   1.000  C
  C320     1.0000 0.87180  0.48200  0.49100  Biso   1.000  C
  C321     1.0000 0.87400  0.97580  0.02660  Biso   1.000  C
  C322     1.0000 0.12600  0.47580  0.47340  Biso   1.000  C
  C323     1.0000 0.12600  0.02420  0.97340  Biso   1.000  C
  C324     1.0000 0.87400  0.52420  0.52660  Biso   1.000  C
  H249     1.0000 0.90220  0.95240  0.03750  Biso   1.000  H
  H250     1.0000 0.09780  0.45240  0.46250  Biso   1.000  H
  H251     1.0000 0.09780  0.04760  0.96250  Biso   1.000  H
  H252     1.0000 0.90220  0.54760  0.53750  Biso   1.000  H
  C325     1.0000 0.83570  0.96740  0.04640  Biso   1.000  C
  C326     1.0000 0.16430  0.46740  0.45360  Biso   1.000  C
  C327     1.0000 0.16430  0.03260  0.95360  Biso   1.000  C
  C328     1.0000 0.83570  0.53260  0.54640  Biso   1.000  C
  H253     1.0000 0.83800  0.93870  0.07160  Biso   1.000  H
  H254     1.0000 0.16200  0.43870  0.42840  Biso   1.000  H
  H255     1.0000 0.16200  0.06130  0.92840  Biso   1.000  H
  H256     1.0000 0.83800  0.56130  0.57160  Biso   1.000  H
  C329     1.0000 0.79230  0.03860  0.99580  Biso   1.000  C
  C330     1.0000 0.20770  0.53860  0.50420  Biso   1.000  C
  C331     1.0000 0.20770  0.96140  0.00420  Biso   1.000  C
  C332     1.0000 0.79230  0.46140  0.49580  Biso   1.000  C
  H257     1.0000 0.76340  0.06020  0.98460  Biso   1.000  H
  H258     1.0000 0.23660  0.56020  0.51540  Biso   1.000  H
  H259     1.0000 0.23660  0.93980  0.01540  Biso   1.000  H
  H260     1.0000 0.76340  0.43980  0.48460  Biso   1.000  H
  C333     1.0000 0.82980  0.04980  0.97490  Biso   1.000  C
  C334     1.0000 0.17020  0.54980  0.52510  Biso   1.000  C
  C335     1.0000 0.17020  0.95020  0.02510  Biso   1.000  C
  C336     1.0000 0.82980  0.45020  0.47490  Biso   1.000  C
  H261     1.0000 0.82700  0.07880  0.94990  Biso   1.000  H
  H262     1.0000 0.17300  0.57880  0.55010  Biso   1.000  H
  H263     1.0000 0.17300  0.92120  0.05010  Biso   1.000  H
  H264     1.0000 0.82700  0.42120  0.44990  Biso   1.000  H
  C337     1.0000 0.77350  0.63560  0.62460  Biso   1.000  C
  C338     1.0000 0.22650  0.13560  0.87540  Biso   1.000  C
  C339     1.0000 0.22650  0.36440  0.37540  Biso   1.000  C
  C340     1.0000 0.77350  0.86440  0.12460  Biso   1.000  C
  C341     1.0000 0.74420  0.69230  0.59380  Biso   1.000  C
  C342     1.0000 0.25580  0.19230  0.90620  Biso   1.000  C
  C343     1.0000 0.25580  0.30770  0.40620  Biso   1.000  C
  C344     1.0000 0.74420  0.80770  0.09380  Biso   1.000  C
  H265     1.0000 0.74770  0.68970  0.56140  Biso   1.000  H
  H266     1.0000 0.25230  0.18970  0.93860  Biso   1.000  H
  H267     1.0000 0.25230  0.31030  0.43860  Biso   1.000  H
  H268     1.0000 0.74770  0.81030  0.06140  Biso   1.000  H
  H269     1.0000 0.71030  0.69110  0.59530  Biso   1.000  H
  H270     1.0000 0.28970  0.19110  0.90470  Biso   1.000  H
  H271     1.0000 0.28970  0.30890  0.40470  Biso   1.000  H
  H272     1.0000 0.71030  0.80890  0.09530  Biso   1.000  H
  C345     1.0000 0.78910  0.73260  0.66610  Biso   1.000  C
  C346     1.0000 0.21090  0.23260  0.83390  Biso   1.000  C
  C347     1.0000 0.21090  0.26740  0.33390  Biso   1.000  C
  C348     1.0000 0.78910  0.76740  0.16610  Biso   1.000  C
  H273     1.0000 0.81950  0.75520  0.67610  Biso   1.000  H
  H274     1.0000 0.18050  0.25520  0.82390  Biso   1.000  H
  H275     1.0000 0.18050  0.24480  0.32390  Biso   1.000  H
  H276     1.0000 0.81950  0.74480  0.17610  Biso   1.000  H
  H277     1.0000 0.76770  0.74180  0.68750  Biso   1.000  H
  H278     1.0000 0.23230  0.24180  0.81250  Biso   1.000  H
  H279     1.0000 0.23230  0.25820  0.31250  Biso   1.000  H
  H280     1.0000 0.76770  0.75820  0.18750  Biso   1.000  H
  C349     1.0000 0.82420  0.62680  0.69110  Biso   1.000  C
  C350     1.0000 0.17580  0.12680  0.80890  Biso   1.000  C
  C351     1.0000 0.17580  0.37320  0.30890  Biso   1.000  C
  C352     1.0000 0.82420  0.87320  0.19110  Biso   1.000  C
  H281     1.0000 0.80500  0.60050  0.70770  Biso   1.000  H
  H282     1.0000 0.19500  0.10050  0.79230  Biso   1.000  H
  H283     1.0000 0.19500  0.39950  0.29230  Biso   1.000  H
  H284     1.0000 0.80500  0.89950  0.20770  Biso   1.000  H
  H285     1.0000 0.84520  0.65440  0.71280  Biso   1.000  H
  H286     1.0000 0.15480  0.15440  0.78720  Biso   1.000  H
  H287     1.0000 0.15480  0.34560  0.28720  Biso   1.000  H
  H288     1.0000 0.84520  0.84560  0.21280  Biso   1.000  H
  H289     1.0000 0.84310  0.59870  0.67530  Biso   1.000  H
  H290     1.0000 0.15690  0.09870  0.82470  Biso   1.000  H
  H291     1.0000 0.15690  0.40130  0.32470  Biso   1.000  H
  H292     1.0000 0.84310  0.90130  0.17530  Biso   1.000  H
  C353     1.0000 0.76630  0.74680  0.61540  Biso   1.000  C
  C354     1.0000 0.23370  0.24680  0.88460  Biso   1.000  C
  C355     1.0000 0.23370  0.25320  0.38460  Biso   1.000  C
  C356     1.0000 0.76630  0.75320  0.11540  Biso   1.000  C
  H293     1.0000 0.74290  0.78180  0.61420  Biso   1.000  H
  H294     1.0000 0.25710  0.28180  0.88580  Biso   1.000  H
  H295     1.0000 0.25710  0.21820  0.38580  Biso   1.000  H
  H296     1.0000 0.74290  0.71820  0.11420  Biso   1.000  H
  H297     1.0000 0.79100  0.76150  0.59880  Biso   1.000  H
  H298     1.0000 0.20900  0.26150  0.90120  Biso   1.000  H
  H299     1.0000 0.20900  0.23850  0.40120  Biso   1.000  H
  H300     1.0000 0.79100  0.73850  0.09880  Biso   1.000  H
  N29      1.0000 0.15210  0.72210  0.01730  Biso   1.000  N
  N30      1.0000 0.84790  0.22210  0.48270  Biso   1.000  N
  N31      1.0000 0.84790  0.27790  0.98270  Biso   1.000  N
  N32      1.0000 0.15210  0.77790  0.51730  Biso   1.000  N
  O85      1.0000 0.20272  0.64270  0.04450  Biso   1.000  O
  O86      1.0000 0.79728  0.14270  0.45550  Biso   1.000  O
  O87      1.0000 0.79728  0.35730  0.95550  Biso   1.000  O
  O88      1.0000 0.20272  0.85730  0.54450  Biso   1.000  O
  C357     1.0000 0.18220  0.69150  0.04830  Biso   1.000  C
  C358     1.0000 0.81780  0.19150  0.45170  Biso   1.000  C
  C359     1.0000 0.81780  0.30850  0.95170  Biso   1.000  C
  C360     1.0000 0.18220  0.80850  0.54830  Biso   1.000  C
  C361     1.0000 0.18780  0.73200  0.09240  Biso   1.000  C
  C362     1.0000 0.81220  0.23200  0.40760  Biso   1.000  C
  C363     1.0000 0.81220  0.26800  0.90760  Biso   1.000  C
  C364     1.0000 0.18780  0.76800  0.59240  Biso   1.000  C
  H301     1.0000 0.21920  0.75280  0.09920  Biso   1.000  H
  H302     1.0000 0.78080  0.25280  0.40080  Biso   1.000  H
  H303     1.0000 0.78080  0.24720  0.90080  Biso   1.000  H
  H304     1.0000 0.21920  0.74720  0.59920  Biso   1.000  H
  H305     1.0000 0.18410  0.70480  0.11880  Biso   1.000  H
  H306     1.0000 0.81590  0.20480  0.38120  Biso   1.000  H
  H307     1.0000 0.81590  0.29520  0.88120  Biso   1.000  H
  H308     1.0000 0.18410  0.79520  0.61880  Biso   1.000  H
  C365     1.0000 0.14960  0.78130  0.08260  Biso   1.000  C
  C366     1.0000 0.85040  0.28130  0.41740  Biso   1.000  C
  C367     1.0000 0.85040  0.21870  0.91740  Biso   1.000  C
  C368     1.0000 0.14960  0.71870  0.58260  Biso   1.000  C
  H309     1.0000 0.12250  0.76870  0.09660  Biso   1.000  H
  H310     1.0000 0.87750  0.26870  0.40340  Biso   1.000  H
  H311     1.0000 0.87750  0.23130  0.90340  Biso   1.000  H
  H312     1.0000 0.12250  0.73130  0.59660  Biso   1.000  H
  H313     1.0000 0.16130  0.82380  0.09480  Biso   1.000  H
  H314     1.0000 0.83870  0.32380  0.40520  Biso   1.000  H
  H315     1.0000 0.83870  0.17620  0.90520  Biso   1.000  H
  H316     1.0000 0.16130  0.67620  0.59480  Biso   1.000  H
  C369     1.0000 0.13450  0.78370  0.02890  Biso   1.000  C
  C370     1.0000 0.86550  0.28370  0.47110  Biso   1.000  C
  C371     1.0000 0.86550  0.21630  0.97110  Biso   1.000  C
  C372     1.0000 0.13450  0.71630  0.52890  Biso   1.000  C
  H317     1.0000 0.14990  0.81980  0.01570  Biso   1.000  H
  H318     1.0000 0.85010  0.31980  0.48430  Biso   1.000  H
  H319     1.0000 0.85010  0.18020  0.98430  Biso   1.000  H
  H320     1.0000 0.14990  0.68020  0.51570  Biso   1.000  H
  H321     1.0000 0.09990  0.78690  0.01890  Biso   1.000  H
  H322     1.0000 0.90010  0.28690  0.48110  Biso   1.000  H
  H323     1.0000 0.90010  0.21310  0.98110  Biso   1.000  H
  H324     1.0000 0.09990  0.71310  0.51890  Biso   1.000  H
  C373     1.0000 0.14380  0.69950  0.96900  Biso   1.000  C
  C374     1.0000 0.85620  0.19950  0.53100  Biso   1.000  C
  C375     1.0000 0.85620  0.30050  0.03100  Biso   1.000  C
  C376     1.0000 0.14380  0.80050  0.46900  Biso   1.000  C
  H325     1.0000 0.15980  0.65820  0.96740  Biso   1.000  H
  H326     1.0000 0.84020  0.15820  0.53260  Biso   1.000  H
  H327     1.0000 0.84020  0.34180  0.03260  Biso   1.000  H
  H328     1.0000 0.15980  0.84180  0.46740  Biso   1.000  H
  H329     1.0000 0.10990  0.69410  0.95750  Biso   1.000  H
  H330     1.0000 0.89010  0.19410  0.54250  Biso   1.000  H
  H331     1.0000 0.89010  0.30590  0.04250  Biso   1.000  H
  H332     1.0000 0.10990  0.80590  0.45750  Biso   1.000  H
  H333     1.0000 0.15630  0.73130  0.95010  Biso   1.000  H
  H334     1.0000 0.84370  0.23130  0.54990  Biso   1.000  H
  H335     1.0000 0.84370  0.26870  0.04990  Biso   1.000  H
  H336     1.0000 0.15630  0.76870  0.45010  Biso   1.000  H
  N33      1.0000 0.28730  0.36950  0.16150  Biso   1.000  N
  N34      1.0000 0.71270  0.86950  0.33850  Biso   1.000  N
  N35      1.0000 0.71270  0.63050  0.83850  Biso   1.000  N
  N36      1.0000 0.28730  0.13050  0.66150  Biso   1.000  N
  O89      1.0000 0.27730  0.44830  0.10863  Biso   1.000  O
  O90      1.0000 0.72270  0.94830  0.39137  Biso   1.000  O
  O91      1.0000 0.72270  0.55170  0.89137  Biso   1.000  O
  O92      1.0000 0.27730  0.05170  0.60863  Biso   1.000  O
  C377     1.0000 0.27230  0.39410  0.12130  Biso   1.000  C
  C378     1.0000 0.72770  0.89410  0.37870  Biso   1.000  C
  C379     1.0000 0.72770  0.60590  0.87870  Biso   1.000  C
  C380     1.0000 0.27230  0.10590  0.62130  Biso   1.000  C
  C381     1.0000 0.24870  0.33650  0.09000  Biso   1.000  C
  C382     1.0000 0.75130  0.83650  0.41000  Biso   1.000  C
  C383     1.0000 0.75130  0.66350  0.91000  Biso   1.000  C
  C384     1.0000 0.24870  0.16350  0.59000  Biso   1.000  C
  H337     1.0000 0.26850  0.32420  0.06770  Biso   1.000  H
  H338     1.0000 0.73150  0.82420  0.43230  Biso   1.000  H
  H339     1.0000 0.73150  0.67580  0.93230  Biso   1.000  H
  H340     1.0000 0.26850  0.17580  0.56770  Biso   1.000  H
  H341     1.0000 0.21710  0.34910  0.07300  Biso   1.000  H
  H342     1.0000 0.78290  0.84910  0.42700  Biso   1.000  H
  H343     1.0000 0.78290  0.65090  0.92700  Biso   1.000  H
  H344     1.0000 0.21710  0.15090  0.57300  Biso   1.000  H
  C385     1.0000 0.24500  0.28280  0.12100  Biso   1.000  C
  C386     1.0000 0.75500  0.78280  0.37900  Biso   1.000  C
  C387     1.0000 0.75500  0.71720  0.87900  Biso   1.000  C
  C388     1.0000 0.24500  0.21720  0.62100  Biso   1.000  C
  H345     1.0000 0.21180  0.27670  0.12440  Biso   1.000  H
  H346     1.0000 0.78820  0.77670  0.37560  Biso   1.000  H
  H347     1.0000 0.78820  0.72330  0.87560  Biso   1.000  H
  H348     1.0000 0.21180  0.22330  0.62440  Biso   1.000  H
  H349     1.0000 0.25620  0.24230  0.10920  Biso   1.000  H
  H350     1.0000 0.74380  0.74230  0.39080  Biso   1.000  H
  H351     1.0000 0.74380  0.75770  0.89080  Biso   1.000  H
  H352     1.0000 0.25620  0.25770  0.60920  Biso   1.000  H
  C389     1.0000 0.27630  0.30120  0.16750  Biso   1.000  C
  C390     1.0000 0.72370  0.80120  0.33250  Biso   1.000  C
  C391     1.0000 0.72370  0.69880  0.83250  Biso   1.000  C
  C392     1.0000 0.27630  0.19880  0.66750  Biso   1.000  C
  H353     1.0000 0.30540  0.27490  0.17380  Biso   1.000  H
  H354     1.0000 0.69460  0.77490  0.32620  Biso   1.000  H
  H355     1.0000 0.69460  0.72510  0.82620  Biso   1.000  H
  H356     1.0000 0.30540  0.22510  0.67380  Biso   1.000  H
  H357     1.0000 0.25920  0.29550  0.19300  Biso   1.000  H
  H358     1.0000 0.74080  0.79550  0.30700  Biso   1.000  H
  H359     1.0000 0.74080  0.70450  0.80700  Biso   1.000  H
  H360     1.0000 0.25920  0.20450  0.69300  Biso   1.000  H
  C393     1.0000 0.31500  0.40620  0.19720  Biso   1.000  C
  C394     1.0000 0.68500  0.90620  0.30280  Biso   1.000  C
  C395     1.0000 0.68500  0.59380  0.80280  Biso   1.000  C
  C396     1.0000 0.31500  0.09380  0.69720  Biso   1.000  C
  H361     1.0000 0.29430  0.43070  0.21330  Biso   1.000  H
  H362     1.0000 0.70570  0.93070  0.28670  Biso   1.000  H
  H363     1.0000 0.70570  0.56930  0.78670  Biso   1.000  H
  H364     1.0000 0.29430  0.06930  0.71330  Biso   1.000  H
  H365     1.0000 0.33470  0.37710  0.21890  Biso   1.000  H
  H366     1.0000 0.66530  0.87710  0.28110  Biso   1.000  H
  H367     1.0000 0.66530  0.62290  0.78110  Biso   1.000  H
  H368     1.0000 0.33470  0.12290  0.71890  Biso   1.000  H
  H369     1.0000 0.33520  0.43590  0.18410  Biso   1.000  H
  H370     1.0000 0.66480  0.93590  0.31590  Biso   1.000  H
  H371     1.0000 0.66480  0.56410  0.81590  Biso   1.000  H
  H372     1.0000 0.33520  0.06410  0.68410  Biso   1.000  H
  F1       1.0000 0.07830  0.57120  0.26050  Biso   1.000  F
  F2       1.0000 0.92170  0.07120  0.23950  Biso   1.000  F
  F3       1.0000 0.92170  0.42880  0.73950  Biso   1.000  F
  F4       1.0000 0.07830  0.92880  0.76050  Biso   1.000  F
  B1       1.0000 0.08730  0.50970  0.26770  Biso   1.000  B
  B2       1.0000 0.91270  0.00970  0.23230  Biso   1.000  B
  B3       1.0000 0.91270  0.49030  0.73230  Biso   1.000  B
  B4       1.0000 0.08730  0.99030  0.76770  Biso   1.000  B
  F5       1.0000 0.05630  0.47000  0.24560  Biso   1.000  F
  F6       1.0000 0.94370  0.97000  0.25440  Biso   1.000  F
  F7       1.0000 0.94370  0.53000  0.75440  Biso   1.000  F
  F8       1.0000 0.05630  0.03000  0.74560  Biso   1.000  F
  F9       1.0000 0.12740  0.51790  0.25040  Biso   1.000  F
  F10      1.0000 0.87260  0.01790  0.24960  Biso   1.000  F
  F11      1.0000 0.87260  0.48210  0.74960  Biso   1.000  F
  F12      1.0000 0.12740  0.98210  0.75040  Biso   1.000  F
  F13      1.0000 0.10000  0.49610  0.31300  Biso   1.000  F
  F14      1.0000 0.90000  0.99610  0.18700  Biso   1.000  F
  F15      1.0000 0.90000  0.50390  0.68700  Biso   1.000  F
  F16      1.0000 0.10000  0.00390  0.81300  Biso   1.000  F
  B5       1.0000 0.28710  0.68820  0.52900  Biso   1.000  B
  B6       1.0000 0.71290  0.18820  0.97100  Biso   1.000  B
  B7       1.0000 0.71290  0.31180  0.47100  Biso   1.000  B
  B8       1.0000 0.28710  0.81180  0.02900  Biso   1.000  B
  F17      1.0000 0.27050  0.72990  0.49290  Biso   1.000  F
  F18      1.0000 0.72950  0.22990  0.00710  Biso   1.000  F
  F19      1.0000 0.72950  0.27010  0.50710  Biso   1.000  F
  F20      1.0000 0.27050  0.77010  0.99290  Biso   1.000  F
  F21      1.0000 0.25070  0.67350  0.54840  Biso   1.000  F
  F22      1.0000 0.74930  0.17350  0.95160  Biso   1.000  F
  F23      1.0000 0.74930  0.32650  0.45160  Biso   1.000  F
  F24      1.0000 0.25070  0.82650  0.04840  Biso   1.000  F
  F25      1.0000 0.32090  0.71970  0.55750  Biso   1.000  F
  F26      1.0000 0.67910  0.21970  0.94250  Biso   1.000  F
  F27      1.0000 0.67910  0.28030  0.44250  Biso   1.000  F
  F28      1.0000 0.32090  0.78030  0.05750  Biso   1.000  F
  F29      1.0000 0.30420  0.63230  0.51223  Biso   1.000  F
  F30      1.0000 0.69580  0.13230  0.98777  Biso   1.000  F
  F31      1.0000 0.69580  0.36770  0.48777  Biso   1.000  F
  F32      1.0000 0.30420  0.86770  0.01223  Biso   1.000  F
  B9       1.0000 0.67130  0.83360  0.51160  Biso   1.000  B
  B10      1.0000 0.32870  0.33360  0.98840  Biso   1.000  B
  B11      1.0000 0.32870  0.16640  0.48840  Biso   1.000  B
  B12      1.0000 0.67130  0.66640  0.01160  Biso   1.000  B
  F33      1.0000 0.65190  0.87530  0.47880  Biso   1.000  F
  F34      1.0000 0.34810  0.37530  0.02120  Biso   1.000  F
  F35      1.0000 0.34810  0.12470  0.52120  Biso   1.000  F
  F36      1.0000 0.65190  0.62470  0.97880  Biso   1.000  F
  F37      1.0000 0.65480  0.84180  0.55220  Biso   1.000  F
  F38      1.0000 0.34520  0.34180  0.94780  Biso   1.000  F
  F39      1.0000 0.34520  0.15820  0.44780  Biso   1.000  F
  F40      1.0000 0.65480  0.65820  0.05220  Biso   1.000  F
  F41      1.0000 0.65680  0.77290  0.49580  Biso   1.000  F
  F42      1.0000 0.34320  0.27290  0.00420  Biso   1.000  F
  F43      1.0000 0.34320  0.22710  0.50420  Biso   1.000  F
  F44      1.0000 0.65680  0.72710  0.99580  Biso   1.000  F
  F45      1.0000 0.71970  0.83730  0.52000  Biso   1.000  F
  F46      1.0000 0.28030  0.33730  0.98000  Biso   1.000  F
  F47      1.0000 0.28030  0.16270  0.48000  Biso   1.000  F
  F48      1.0000 0.71970  0.66270  0.02000  Biso   1.000  F
  B13      1.0000 0.83360  0.70890  0.50060  Biso   1.000  B
  B14      1.0000 0.16640  0.20890  0.99940  Biso   1.000  B
  B15      1.0000 0.16640  0.29110  0.49940  Biso   1.000  B
  B16      1.0000 0.83360  0.79110  0.00060  Biso   1.000  B
  F49      1.0000 0.84950  0.76840  0.51370  Biso   1.000  F
  F50      1.0000 0.15050  0.26840  0.98630  Biso   1.000  F
  F51      1.0000 0.15050  0.23160  0.48630  Biso   1.000  F
  F52      1.0000 0.84950  0.73160  0.01370  Biso   1.000  F
  F53      1.0000 0.86230  0.67330  0.51240  Biso   1.000  F
  F54      1.0000 0.13770  0.17330  0.98760  Biso   1.000  F
  F55      1.0000 0.13770  0.32670  0.48760  Biso   1.000  F
  F56      1.0000 0.86230  0.82670  0.01240  Biso   1.000  F
  F57      1.0000 0.79130  0.70820  0.47810  Biso   1.000  F
  F58      1.0000 0.20870  0.20820  0.02190  Biso   1.000  F
  F59      1.0000 0.20870  0.29180  0.52190  Biso   1.000  F
  F60      1.0000 0.79130  0.79180  0.97810  Biso   1.000  F
  F61      1.0000 0.82240  0.67730  0.54780  Biso   1.000  F
  F62      1.0000 0.17760  0.17730  0.95220  Biso   1.000  F
  F63      1.0000 0.17760  0.32270  0.45220  Biso   1.000  F
  F64      1.0000 0.82240  0.82270  0.04780  Biso   1.000  F
  N37      1.0000 0.99980  0.95480  0.40270  Biso   1.000  N
  N38      1.0000 0.00020  0.45480  0.09730  Biso   1.000  N
  N39      1.0000 0.00020  0.04520  0.59730  Biso   1.000  N
  N40      1.0000 0.99980  0.54520  0.90270  Biso   1.000  N
  O93      1.0000 0.03070  0.87010  0.44430  Biso   1.000  O
  O94      1.0000 0.96930  0.37010  0.05570  Biso   1.000  O
  O95      1.0000 0.96930  0.12990  0.55570  Biso   1.000  O
  O96      1.0000 0.03070  0.62990  0.94430  Biso   1.000  O
  C397     1.0000 0.02310  0.90380  0.40950  Biso   1.000  C
  C398     1.0000 0.97690  0.40380  0.09050  Biso   1.000  C
  C399     1.0000 0.97690  0.09620  0.59050  Biso   1.000  C
  C400     1.0000 0.02310  0.59620  0.90950  Biso   1.000  C
  C401     1.0000 0.03820  0.88620  0.36700  Biso   1.000  C
  C402     1.0000 0.96180  0.38620  0.13300  Biso   1.000  C
  C403     1.0000 0.96180  0.11380  0.63300  Biso   1.000  C
  C404     1.0000 0.03820  0.61380  0.86700  Biso   1.000  C
  H373     1.0000 0.01850  0.85100  0.35100  Biso   1.000  H
  H374     1.0000 0.98150  0.35100  0.14900  Biso   1.000  H
  H375     1.0000 0.98150  0.14900  0.64900  Biso   1.000  H
  H376     1.0000 0.01850  0.64900  0.85100  Biso   1.000  H
  H377     1.0000 0.07170  0.87240  0.37310  Biso   1.000  H
  H378     1.0000 0.92830  0.37240  0.12690  Biso   1.000  H
  H379     1.0000 0.92830  0.12760  0.62690  Biso   1.000  H
  H380     1.0000 0.07170  0.62760  0.87310  Biso   1.000  H
  C405     1.0000 0.03190  0.94570  0.33980  Biso   1.000  C
  C406     1.0000 0.96810  0.44570  0.16020  Biso   1.000  C
  C407     1.0000 0.96810  0.05430  0.66020  Biso   1.000  C
  C408     1.0000 0.03190  0.55430  0.83980  Biso   1.000  C
  H381     1.0000 0.02160  0.93640  0.30670  Biso   1.000  H
  H382     1.0000 0.97840  0.43640  0.19330  Biso   1.000  H
  H383     1.0000 0.97840  0.06360  0.69330  Biso   1.000  H
  H384     1.0000 0.02160  0.56360  0.80670  Biso   1.000  H
  H385     1.0000 0.06120  0.97140  0.34450  Biso   1.000  H
  H386     1.0000 0.93880  0.47140  0.15550  Biso   1.000  H
  H387     1.0000 0.93880  0.02860  0.65550  Biso   1.000  H
  H388     1.0000 0.06120  0.52860  0.84450  Biso   1.000  H
  C409     1.0000 0.99290  0.98050  0.35920  Biso   1.000  C
  C410     1.0000 0.00710  0.48050  0.14080  Biso   1.000  C
  C411     1.0000 0.00710  0.01950  0.64080  Biso   1.000  C
  C412     1.0000 0.99290  0.51950  0.85920  Biso   1.000  C
  H389     1.0000 0.99740  0.02780  0.35990  Biso   1.000  H
  H390     1.0000 0.00260  0.52780  0.14010  Biso   1.000  H
  H391     1.0000 0.00260  0.97220  0.64010  Biso   1.000  H
  H392     1.0000 0.99740  0.47220  0.85990  Biso   1.000  H
  H393     1.0000 0.96110  0.97030  0.34130  Biso   1.000  H
  H394     1.0000 0.03890  0.47030  0.15870  Biso   1.000  H
  H395     1.0000 0.03890  0.02970  0.65870  Biso   1.000  H
  H396     1.0000 0.96110  0.52970  0.84130  Biso   1.000  H
  C413     1.0000 0.97470  0.98240  0.43360  Biso   1.000  C
  C414     1.0000 0.02530  0.48240  0.06640  Biso   1.000  C
  C415     1.0000 0.02530  0.01760  0.56640  Biso   1.000  C
  C416     1.0000 0.97470  0.51760  0.93360  Biso   1.000  C
  H397     1.0000 0.97520  0.95320  0.45950  Biso   1.000  H
  H398     1.0000 0.02480  0.45320  0.04050  Biso   1.000  H
  H399     1.0000 0.02480  0.04680  0.54050  Biso   1.000  H
  H400     1.0000 0.97520  0.54680  0.95950  Biso   1.000  H
  H401     1.0000 0.94200  0.99000  0.41810  Biso   1.000  H
  H402     1.0000 0.05800  0.49000  0.08190  Biso   1.000  H
  H403     1.0000 0.05800  0.01000  0.58190  Biso   1.000  H
  H404     1.0000 0.94200  0.51000  0.91810  Biso   1.000  H
  H405     1.0000 0.98940  0.02340  0.44470  Biso   1.000  H
  H406     1.0000 0.01060  0.52340  0.05530  Biso   1.000  H
  H407     1.0000 0.01060  0.97660  0.55530  Biso   1.000  H
  H408     1.0000 0.98940  0.47660  0.94470  Biso   1.000  H
  N41      1.0000 0.04150  0.66540  0.38070  Biso   1.000  N
  N42      1.0000 0.95850  0.16540  0.11930  Biso   1.000  N
  N43      1.0000 0.95850  0.33460  0.61930  Biso   1.000  N
  N44      1.0000 0.04150  0.83460  0.88070  Biso   1.000  N
  O97      1.0000 0.97600  0.68930  0.32605  Biso   1.000  O
  O98      1.0000 0.02400  0.18930  0.17395  Biso   1.000  O
  O99      1.0000 0.02400  0.31070  0.67395  Biso   1.000  O
  O100     1.0000 0.97600  0.81070  0.82605  Biso   1.000  O
  C417     1.0000 0.00140  0.65410  0.35180  Biso   1.000  C
  C418     1.0000 0.99860  0.15410  0.14820  Biso   1.000  C
  C419     1.0000 0.99860  0.34590  0.64820  Biso   1.000  C
  C420     1.0000 0.00140  0.84590  0.85180  Biso   1.000  C
  C421     1.0000 0.99670  0.59230  0.36340  Biso   1.000  C
  C422     1.0000 0.00330  0.09230  0.13660  Biso   1.000  C
  C423     1.0000 0.00330  0.40770  0.63660  Biso   1.000  C
  C424     1.0000 0.99670  0.90770  0.86340  Biso   1.000  C
  H409     1.0000 0.99350  0.56640  0.33500  Biso   1.000  H
  H410     1.0000 0.00650  0.06640  0.16500  Biso   1.000  H
  H411     1.0000 0.00650  0.43360  0.66500  Biso   1.000  H
  H412     1.0000 0.99350  0.93360  0.83500  Biso   1.000  H
  H413     1.0000 0.96640  0.58860  0.37400  Biso   1.000  H
  H414     1.0000 0.03360  0.08860  0.12600  Biso   1.000  H
  H415     1.0000 0.03360  0.41140  0.62600  Biso   1.000  H
  H416     1.0000 0.96640  0.91140  0.87400  Biso   1.000  H
  C425     1.0000 0.03160  0.56220  0.39700  Biso   1.000  C
  C426     1.0000 0.96840  0.06220  0.10300  Biso   1.000  C
  C427     1.0000 0.96840  0.43780  0.60300  Biso   1.000  C
  C428     1.0000 0.03160  0.93780  0.89700  Biso   1.000  C
  H417     1.0000 0.04680  0.52590  0.38380  Biso   1.000  H
  H418     1.0000 0.95320  0.02590  0.11620  Biso   1.000  H
  H419     1.0000 0.95320  0.47410  0.61620  Biso   1.000  H
  H420     1.0000 0.04680  0.97410  0.88380  Biso   1.000  H
  H421     1.0000 0.01830  0.54660  0.42320  Biso   1.000  H
  H422     1.0000 0.98170  0.04660  0.07680  Biso   1.000  H
  H423     1.0000 0.98170  0.45340  0.57680  Biso   1.000  H
  H424     1.0000 0.01830  0.95340  0.92320  Biso   1.000  H
  C429     1.0000 0.06480  0.61550  0.41050  Biso   1.000  C
  C430     1.0000 0.93520  0.11550  0.08950  Biso   1.000  C
  C431     1.0000 0.93520  0.38450  0.58950  Biso   1.000  C
  C432     1.0000 0.06480  0.88450  0.91050  Biso   1.000  C
  H425     1.0000 0.06760  0.62680  0.44320  Biso   1.000  H
  H426     1.0000 0.93240  0.12680  0.05680  Biso   1.000  H
  H427     1.0000 0.93240  0.37320  0.55680  Biso   1.000  H
  H428     1.0000 0.06760  0.87320  0.94320  Biso   1.000  H
  H429     1.0000 0.09640  0.60560  0.40410  Biso   1.000  H
  H430     1.0000 0.90360  0.10560  0.09590  Biso   1.000  H
  H431     1.0000 0.90360  0.39440  0.59590  Biso   1.000  H
  H432     1.0000 0.09640  0.89440  0.90410  Biso   1.000  H
  C433     1.0000 0.04400  0.73370  0.39750  Biso   1.000  C
  C434     1.0000 0.95600  0.23370  0.10250  Biso   1.000  C
  C435     1.0000 0.95600  0.26630  0.60250  Biso   1.000  C
  C436     1.0000 0.04400  0.76630  0.89750  Biso   1.000  C
  H433     1.0000 0.02070  0.75990  0.37700  Biso   1.000  H
  H434     1.0000 0.97930  0.25990  0.12300  Biso   1.000  H
  H435     1.0000 0.97930  0.24010  0.62300  Biso   1.000  H
  H436     1.0000 0.02070  0.74010  0.87700  Biso   1.000  H
  H437     1.0000 0.07560  0.75090  0.39800  Biso   1.000  H
  H438     1.0000 0.92440  0.25090  0.10200  Biso   1.000  H
  H439     1.0000 0.92440  0.24910  0.60200  Biso   1.000  H
  H440     1.0000 0.07560  0.74910  0.89800  Biso   1.000  H
  H441     1.0000 0.03720  0.73500  0.42860  Biso   1.000  H
  H442     1.0000 0.96280  0.23500  0.07140  Biso   1.000  H
  H443     1.0000 0.96280  0.26500  0.57140  Biso   1.000  H
  H444     1.0000 0.03720  0.76500  0.92860  Biso   1.000  H
  N45      1.0000 0.45410  0.78320  0.60510  Biso   1.000  N
  N46      1.0000 0.54590  0.28320  0.89490  Biso   1.000  N
  N47      1.0000 0.54590  0.21680  0.39490  Biso   1.000  N
  N48      1.0000 0.45410  0.71680  0.10510  Biso   1.000  N
  O101     1.0000 0.50860  0.78000  0.67360  Biso   1.000  O
  O102     1.0000 0.49140  0.28000  0.82640  Biso   1.000  O
  O103     1.0000 0.49140  0.22000  0.32640  Biso   1.000  O
  O104     1.0000 0.50860  0.72000  0.17360  Biso   1.000  O
  C437     1.0000 0.48330  0.80760  0.64270  Biso   1.000  C
  C438     1.0000 0.51670  0.30760  0.85730  Biso   1.000  C
  C439     1.0000 0.51670  0.19240  0.35730  Biso   1.000  C
  C440     1.0000 0.48330  0.69240  0.14270  Biso   1.000  C
  C441     1.0000 0.47780  0.87960  0.63870  Biso   1.000  C
  C442     1.0000 0.52220  0.37960  0.86130  Biso   1.000  C
  C443     1.0000 0.52220  0.12040  0.36130  Biso   1.000  C
  C444     1.0000 0.47780  0.62040  0.13870  Biso   1.000  C
  H445     1.0000 0.46830  0.89750  0.66640  Biso   1.000  H
  H446     1.0000 0.53170  0.39750  0.83360  Biso   1.000  H
  H447     1.0000 0.53170  0.10250  0.33360  Biso   1.000  H
  H448     1.0000 0.46830  0.60250  0.16640  Biso   1.000  H
  H449     1.0000 0.50780  0.89990  0.63520  Biso   1.000  H
  H450     1.0000 0.49220  0.39990  0.86480  Biso   1.000  H
  H451     1.0000 0.49220  0.10010  0.36480  Biso   1.000  H
  H452     1.0000 0.50780  0.60010  0.13520  Biso   1.000  H
  C445     1.0000 0.44120  0.89190  0.59800  Biso   1.000  C
  C446     1.0000 0.55880  0.39190  0.90200  Biso   1.000  C
  C447     1.0000 0.55880  0.10810  0.40200  Biso   1.000  C
  C448     1.0000 0.44120  0.60810  0.09800  Biso   1.000  C
  H453     1.0000 0.41240  0.90880  0.60730  Biso   1.000  H
  H454     1.0000 0.58760  0.40880  0.89270  Biso   1.000  H
  H455     1.0000 0.58760  0.09120  0.39270  Biso   1.000  H
  H456     1.0000 0.41240  0.59120  0.10730  Biso   1.000  H
  H457     1.0000 0.45240  0.92410  0.57810  Biso   1.000  H
  H458     1.0000 0.54760  0.42410  0.92190  Biso   1.000  H
  H459     1.0000 0.54760  0.07590  0.42190  Biso   1.000  H
  H460     1.0000 0.45240  0.57590  0.07810  Biso   1.000  H
  C449     1.0000 0.43080  0.83260  0.57380  Biso   1.000  C
  C450     1.0000 0.56920  0.33260  0.92620  Biso   1.000  C
  C451     1.0000 0.56920  0.16740  0.42620  Biso   1.000  C
  C452     1.0000 0.43080  0.66740  0.07380  Biso   1.000  C
  H461     1.0000 0.44330  0.83290  0.54510  Biso   1.000  H
  H462     1.0000 0.55670  0.33290  0.95490  Biso   1.000  H
  H463     1.0000 0.55670  0.16710  0.45490  Biso   1.000  H
  H464     1.0000 0.44330  0.66710  0.04510  Biso   1.000  H
  H465     1.0000 0.39630  0.82510  0.56620  Biso   1.000  H
  H466     1.0000 0.60370  0.32510  0.93380  Biso   1.000  H
  H467     1.0000 0.60370  0.17490  0.43380  Biso   1.000  H
  H468     1.0000 0.39630  0.67490  0.06620  Biso   1.000  H
  C453     1.0000 0.44960  0.71570  0.59810  Biso   1.000  C
  C454     1.0000 0.55040  0.21570  0.90190  Biso   1.000  C
  C455     1.0000 0.55040  0.28430  0.40190  Biso   1.000  C
  C456     1.0000 0.44960  0.78430  0.09810  Biso   1.000  C
  H469     1.0000 0.47930  0.69460  0.61200  Biso   1.000  H
  H470     1.0000 0.52070  0.19460  0.88800  Biso   1.000  H
  H471     1.0000 0.52070  0.30540  0.38800  Biso   1.000  H
  H472     1.0000 0.47930  0.80540  0.11200  Biso   1.000  H
  H473     1.0000 0.44240  0.70650  0.56520  Biso   1.000  H
  H474     1.0000 0.55760  0.20650  0.93480  Biso   1.000  H
  H475     1.0000 0.55760  0.29350  0.43480  Biso   1.000  H
  H476     1.0000 0.44240  0.79350  0.06520  Biso   1.000  H
  H477     1.0000 0.42410  0.69940  0.61240  Biso   1.000  H
  H478     1.0000 0.57590  0.19940  0.88760  Biso   1.000  H
  H479     1.0000 0.57590  0.30060  0.38760  Biso   1.000  H
  H480     1.0000 0.42410  0.80060  0.11240  Biso   1.000  H
  N49      1.0000 0.10940  0.34120  0.10840  Biso   1.000  N
  N50      1.0000 0.89060  0.84120  0.39160  Biso   1.000  N
  N51      1.0000 0.89060  0.65880  0.89160  Biso   1.000  N
  N52      1.0000 0.10940  0.15880  0.60840  Biso   1.000  N
  O105     1.0000 0.15480  0.42630  0.10330  Biso   1.000  O
  O106     1.0000 0.84520  0.92630  0.39670  Biso   1.000  O
  O107     1.0000 0.84520  0.57370  0.89670  Biso   1.000  O
  O108     1.0000 0.15480  0.07370  0.60330  Biso   1.000  O
  C457     1.0000 0.13900  0.38730  0.12650  Biso   1.000  C
  C458     1.0000 0.86100  0.88730  0.37350  Biso   1.000  C
  C459     1.0000 0.86100  0.61270  0.87350  Biso   1.000  C
  C460     1.0000 0.13900  0.11270  0.62650  Biso   1.000  C
  C461     1.0000 0.14800  0.38230  0.17590  Biso   1.000  C
  C462     1.0000 0.85200  0.88230  0.32410  Biso   1.000  C
  C463     1.0000 0.85200  0.61770  0.82410  Biso   1.000  C
  C464     1.0000 0.14800  0.11770  0.67590  Biso   1.000  C
  H481     1.0000 0.14110  0.42370  0.18980  Biso   1.000  H
  H482     1.0000 0.85890  0.92370  0.31020  Biso   1.000  H
  H483     1.0000 0.85890  0.57630  0.81020  Biso   1.000  H
  H484     1.0000 0.14110  0.07630  0.68980  Biso   1.000  H
  H485     1.0000 0.18140  0.37080  0.18780  Biso   1.000  H
  H486     1.0000 0.81860  0.87080  0.31220  Biso   1.000  H
  H487     1.0000 0.81860  0.62920  0.81220  Biso   1.000  H
  H488     1.0000 0.18140  0.12920  0.68780  Biso   1.000  H
  C465     1.0000 0.11620  0.33110  0.18640  Biso   1.000  C
  C466     1.0000 0.88380  0.83110  0.31360  Biso   1.000  C
  C467     1.0000 0.88380  0.66890  0.81360  Biso   1.000  C
  C468     1.0000 0.11620  0.16890  0.68640  Biso   1.000  C
  H489     1.0000 0.09030  0.34970  0.19950  Biso   1.000  H
  H490     1.0000 0.90970  0.84970  0.30050  Biso   1.000  H
  H491     1.0000 0.90970  0.65030  0.80050  Biso   1.000  H
  H492     1.0000 0.09030  0.15030  0.69950  Biso   1.000  H
  H493     1.0000 0.13380  0.30010  0.20870  Biso   1.000  H
  H494     1.0000 0.86620  0.80010  0.29130  Biso   1.000  H
  H495     1.0000 0.86620  0.69990  0.79130  Biso   1.000  H
  H496     1.0000 0.13380  0.19990  0.70870  Biso   1.000  H
  C469     1.0000 0.09570  0.29580  0.13790  Biso   1.000  C
  C470     1.0000 0.90430  0.79580  0.36210  Biso   1.000  C
  C471     1.0000 0.90430  0.70420  0.86210  Biso   1.000  C
  C472     1.0000 0.09570  0.20420  0.63790  Biso   1.000  C
  H497     1.0000 0.11070  0.25340  0.13560  Biso   1.000  H
  H498     1.0000 0.88930  0.75340  0.36440  Biso   1.000  H
  H499     1.0000 0.88930  0.74660  0.86440  Biso   1.000  H
  H500     1.0000 0.11070  0.24660  0.63560  Biso   1.000  H
  H501     1.0000 0.06100  0.29070  0.13260  Biso   1.000  H
  H502     1.0000 0.93900  0.79070  0.36740  Biso   1.000  H
  H503     1.0000 0.93900  0.70930  0.86740  Biso   1.000  H
  H504     1.0000 0.06100  0.20930  0.63260  Biso   1.000  H
  C473     1.0000 0.09450  0.32920  0.06190  Biso   1.000  C
  C474     1.0000 0.90550  0.82920  0.43810  Biso   1.000  C
  C475     1.0000 0.90550  0.67080  0.93810  Biso   1.000  C
  C476     1.0000 0.09450  0.17080  0.56190  Biso   1.000  C
  H505     1.0000 0.10830  0.36130  0.04420  Biso   1.000  H
  H506     1.0000 0.89170  0.86130  0.45580  Biso   1.000  H
  H507     1.0000 0.89170  0.63870  0.95580  Biso   1.000  H
  H508     1.0000 0.10830  0.13870  0.54420  Biso   1.000  H
  H509     1.0000 0.06000  0.33190  0.05390  Biso   1.000  H
  H510     1.0000 0.94000  0.83190  0.44610  Biso   1.000  H
  H511     1.0000 0.94000  0.66810  0.94610  Biso   1.000  H
  H512     1.0000 0.06000  0.16810  0.55390  Biso   1.000  H
  H513     1.0000 0.10470  0.28610  0.05470  Biso   1.000  H
  H514     1.0000 0.89530  0.78610  0.44530  Biso   1.000  H
  H515     1.0000 0.89530  0.71390  0.94530  Biso   1.000  H
  H516     1.0000 0.10470  0.21390  0.55470  Biso   1.000  H
  N53      1.0000 0.46420  0.58100  0.29980  Biso   1.000  N
  N54      1.0000 0.53580  0.08100  0.20020  Biso   1.000  N
  N55      1.0000 0.53580  0.41900  0.70020  Biso   1.000  N
  N56      1.0000 0.46420  0.91900  0.79980  Biso   1.000  N
  O109     1.0000 0.42770  0.54370  0.22810  Biso   1.000  O
  O110     1.0000 0.57230  0.04370  0.27190  Biso   1.000  O
  O111     1.0000 0.57230  0.45630  0.77190  Biso   1.000  O
  O112     1.0000 0.42770  0.95630  0.72810  Biso   1.000  O
  C477     1.0000 0.43330  0.54670  0.26890  Biso   1.000  C
  C478     1.0000 0.56670  0.04670  0.23110  Biso   1.000  C
  C479     1.0000 0.56670  0.45330  0.73110  Biso   1.000  C
  C480     1.0000 0.43330  0.95330  0.76890  Biso   1.000  C
  C481     1.0000 0.40550  0.50720  0.30000  Biso   1.000  C
  C482     1.0000 0.59450  0.00720  0.20000  Biso   1.000  C
  C483     1.0000 0.59450  0.49280  0.70000  Biso   1.000  C
  C484     1.0000 0.40550  0.99280  0.80000  Biso   1.000  C
  H517     1.0000 0.37310  0.52440  0.29700  Biso   1.000  H
  H518     1.0000 0.62690  0.02440  0.20300  Biso   1.000  H
  H519     1.0000 0.62690  0.47560  0.70300  Biso   1.000  H
  H520     1.0000 0.37310  0.97560  0.79700  Biso   1.000  H
  H521     1.0000 0.40340  0.46150  0.29040  Biso   1.000  H
  H522     1.0000 0.59660  0.96150  0.20960  Biso   1.000  H
  H523     1.0000 0.59660  0.53850  0.70960  Biso   1.000  H
  H524     1.0000 0.40340  0.03850  0.79040  Biso   1.000  H
  C485     1.0000 0.43020  0.51240  0.34720  Biso   1.000  C
  C486     1.0000 0.56980  0.01240  0.15280  Biso   1.000  C
  C487     1.0000 0.56980  0.48760  0.65280  Biso   1.000  C
  C488     1.0000 0.43020  0.98760  0.84720  Biso   1.000  C
  H525     1.0000 0.44950  0.47350  0.35660  Biso   1.000  H
  H526     1.0000 0.55050  0.97350  0.14340  Biso   1.000  H
  H527     1.0000 0.55050  0.52650  0.64340  Biso   1.000  H
  H528     1.0000 0.44950  0.02650  0.85660  Biso   1.000  H
  H529     1.0000 0.40780  0.51820  0.36810  Biso   1.000  H
  H530     1.0000 0.59220  0.01820  0.13190  Biso   1.000  H
  H531     1.0000 0.59220  0.48180  0.63190  Biso   1.000  H
  H532     1.0000 0.40780  0.98180  0.86810  Biso   1.000  H
  C489     1.0000 0.46440  0.57720  0.34780  Biso   1.000  C
  C490     1.0000 0.53560  0.07720  0.15220  Biso   1.000  C
  C491     1.0000 0.53560  0.42280  0.65220  Biso   1.000  C
  C492     1.0000 0.46440  0.92280  0.84780  Biso   1.000  C
  H533     1.0000 0.45030  0.61580  0.35920  Biso   1.000  H
  H534     1.0000 0.54970  0.11580  0.14080  Biso   1.000  H
  H535     1.0000 0.54970  0.38420  0.64080  Biso   1.000  H
  H536     1.0000 0.45030  0.88420  0.85920  Biso   1.000  H
  H537     1.0000 0.49650  0.57010  0.36610  Biso   1.000  H
  H538     1.0000 0.50350  0.07010  0.13390  Biso   1.000  H
  H539     1.0000 0.50350  0.42990  0.63390  Biso   1.000  H
  H540     1.0000 0.49650  0.92990  0.86610  Biso   1.000  H
  C493     1.0000 0.49370  0.62960  0.28400  Biso   1.000  C
  C494     1.0000 0.50630  0.12960  0.21600  Biso   1.000  C
  C495     1.0000 0.50630  0.37040  0.71600  Biso   1.000  C
  C496     1.0000 0.49370  0.87040  0.78400  Biso   1.000  C
  H541     1.0000 0.49630  0.62040  0.25230  Biso   1.000  H
  H542     1.0000 0.50370  0.12040  0.24770  Biso   1.000  H
  H543     1.0000 0.50370  0.37960  0.74770  Biso   1.000  H
  H544     1.0000 0.49630  0.87960  0.75230  Biso   1.000  H
  H545     1.0000 0.52520  0.62910  0.30360  Biso   1.000  H
  H546     1.0000 0.47480  0.12910  0.19640  Biso   1.000  H
  H547     1.0000 0.47480  0.37090  0.69640  Biso   1.000  H
  H548     1.0000 0.52520  0.87090  0.80360  Biso   1.000  H
  H549     1.0000 0.47940  0.67220  0.28550  Biso   1.000  H
  H550     1.0000 0.52060  0.17220  0.21450  Biso   1.000  H
  H551     1.0000 0.52060  0.32780  0.71450  Biso   1.000  H
  H552     1.0000 0.47940  0.82780  0.78550  Biso   1.000  H
  N57      1.0000 0.41790  0.72530  0.41510  Biso   1.000  N
  N58      1.0000 0.58210  0.22530  0.08490  Biso   1.000  N
  N59      1.0000 0.58210  0.27470  0.58490  Biso   1.000  N
  N60      1.0000 0.41790  0.77470  0.91510  Biso   1.000  N
  O113     1.0000 0.46320  0.71680  0.48360  Biso   1.000  O
  O114     1.0000 0.53680  0.21680  0.01640  Biso   1.000  O
  O115     1.0000 0.53680  0.28320  0.51640  Biso   1.000  O
  O116     1.0000 0.46320  0.78320  0.98360  Biso   1.000  O
  C497     1.0000 0.45690  0.73200  0.44560  Biso   1.000  C
  C498     1.0000 0.54310  0.23200  0.05440  Biso   1.000  C
  C499     1.0000 0.54310  0.26800  0.55440  Biso   1.000  C
  C500     1.0000 0.45690  0.76800  0.94560  Biso   1.000  C
  C501     1.0000 0.49220  0.75180  0.41990  Biso   1.000  C
  C502     1.0000 0.50780  0.25180  0.08010  Biso   1.000  C
  C503     1.0000 0.50780  0.24820  0.58010  Biso   1.000  C
  C504     1.0000 0.49220  0.74820  0.91990  Biso   1.000  C
  H553     1.0000 0.51090  0.78790  0.43580  Biso   1.000  H
  H554     1.0000 0.48910  0.28790  0.06420  Biso   1.000  H
  H555     1.0000 0.48910  0.21210  0.56420  Biso   1.000  H
  H556     1.0000 0.51090  0.71210  0.93580  Biso   1.000  H
  H557     1.0000 0.51390  0.71550  0.41780  Biso   1.000  H
  H558     1.0000 0.48610  0.21550  0.08220  Biso   1.000  H
  H559     1.0000 0.48610  0.28450  0.58220  Biso   1.000  H
  H560     1.0000 0.51390  0.78450  0.91780  Biso   1.000  H
  C505     1.0000 0.46970  0.77180  0.37430  Biso   1.000  C
  C506     1.0000 0.53030  0.27180  0.12570  Biso   1.000  C
  C507     1.0000 0.53030  0.22820  0.62570  Biso   1.000  C
  C508     1.0000 0.46970  0.72820  0.87430  Biso   1.000  C
  H561     1.0000 0.48320  0.74920  0.35050  Biso   1.000  H
  H562     1.0000 0.51680  0.24920  0.14950  Biso   1.000  H
  H563     1.0000 0.51680  0.25080  0.64950  Biso   1.000  H
  H564     1.0000 0.48320  0.75080  0.85050  Biso   1.000  H
  H565     1.0000 0.47250  0.81890  0.37030  Biso   1.000  H
  H566     1.0000 0.52750  0.31890  0.12970  Biso   1.000  H
  H567     1.0000 0.52750  0.18110  0.62970  Biso   1.000  H
  H568     1.0000 0.47250  0.68110  0.87030  Biso   1.000  H
  C509     1.0000 0.41810  0.75190  0.37260  Biso   1.000  C
  C510     1.0000 0.58190  0.25190  0.12740  Biso   1.000  C
  C511     1.0000 0.58190  0.24810  0.62740  Biso   1.000  C
  C512     1.0000 0.41810  0.74810  0.87260  Biso   1.000  C
  H569     1.0000 0.39690  0.78970  0.36720  Biso   1.000  H
  H570     1.0000 0.60310  0.28970  0.13280  Biso   1.000  H
  H571     1.0000 0.60310  0.21030  0.63280  Biso   1.000  H
  H572     1.0000 0.39690  0.71030  0.86720  Biso   1.000  H
  H573     1.0000 0.40770  0.72000  0.34790  Biso   1.000  H
  H574     1.0000 0.59230  0.22000  0.15210  Biso   1.000  H
  H575     1.0000 0.59230  0.28000  0.65210  Biso   1.000  H
  H576     1.0000 0.40770  0.78000  0.84790  Biso   1.000  H
  C513     1.0000 0.37070  0.71110  0.42790  Biso   1.000  C
  C514     1.0000 0.62930  0.21110  0.07210  Biso   1.000  C
  C515     1.0000 0.62930  0.28890  0.57210  Biso   1.000  C
  C516     1.0000 0.37070  0.78890  0.92790  Biso   1.000  C
  H577     1.0000 0.37520  0.70360  0.46100  Biso   1.000  H
  H578     1.0000 0.62480  0.20360  0.03900  Biso   1.000  H
  H579     1.0000 0.62480  0.29640  0.53900  Biso   1.000  H
  H580     1.0000 0.37520  0.79640  0.96100  Biso   1.000  H
  H581     1.0000 0.35680  0.67270  0.41150  Biso   1.000  H
  H582     1.0000 0.64320  0.17270  0.08850  Biso   1.000  H
  H583     1.0000 0.64320  0.32730  0.58850  Biso   1.000  H
  H584     1.0000 0.35680  0.82730  0.91150  Biso   1.000  H
  H585     1.0000 0.34950  0.74790  0.41960  Biso   1.000  H
  H586     1.0000 0.65050  0.24790  0.08040  Biso   1.000  H
  H587     1.0000 0.65050  0.25210  0.58040  Biso   1.000  H
  H588     1.0000 0.34950  0.75210  0.91960  Biso   1.000  H
  N61      1.0000 0.76480  0.62830  0.26260  Biso   1.000  N
  N62      1.0000 0.23520  0.12830  0.23740  Biso   1.000  N
  N63      1.0000 0.23520  0.37170  0.73740  Biso   1.000  N
  N64      1.0000 0.76480  0.87170  0.76260  Biso   1.000  N
  O117     1.0000 0.79910  0.71870  0.29150  Biso   1.000  O
  O118     1.0000 0.20090  0.21870  0.20850  Biso   1.000  O
  O119     1.0000 0.20090  0.28130  0.70850  Biso   1.000  O
  O120     1.0000 0.79910  0.78130  0.79150  Biso   1.000  O
  C517     1.0000 0.79910  0.66630  0.26960  Biso   1.000  C
  C518     1.0000 0.20090  0.16630  0.23040  Biso   1.000  C
  C519     1.0000 0.20090  0.33370  0.73040  Biso   1.000  C
  C520     1.0000 0.79910  0.83370  0.76960  Biso   1.000  C
  C521     1.0000 0.84150  0.64330  0.25450  Biso   1.000  C
  C522     1.0000 0.15850  0.14330  0.24550  Biso   1.000  C
  C523     1.0000 0.15850  0.35670  0.74550  Biso   1.000  C
  C524     1.0000 0.84150  0.85670  0.75450  Biso   1.000  C
  H589     1.0000 0.86950  0.64150  0.27960  Biso   1.000  H
  H590     1.0000 0.13050  0.14150  0.22040  Biso   1.000  H
  H591     1.0000 0.13050  0.35850  0.72040  Biso   1.000  H
  H592     1.0000 0.86950  0.85850  0.77960  Biso   1.000  H
  H593     1.0000 0.84870  0.66780  0.22810  Biso   1.000  H
  H594     1.0000 0.15130  0.16780  0.27190  Biso   1.000  H
  H595     1.0000 0.15130  0.33220  0.77190  Biso   1.000  H
  H596     1.0000 0.84870  0.83220  0.72810  Biso   1.000  H
  C525     1.0000 0.76930  0.57490  0.23520  Biso   1.000  C
  C526     1.0000 0.23070  0.07490  0.26480  Biso   1.000  C
  C527     1.0000 0.23070  0.42510  0.76480  Biso   1.000  C
  C528     1.0000 0.76930  0.92510  0.73520  Biso   1.000  C
  H597     1.0000 0.75350  0.58180  0.20290  Biso   1.000  H
  H598     1.0000 0.24650  0.08180  0.29710  Biso   1.000  H
  H599     1.0000 0.24650  0.41820  0.79710  Biso   1.000  H
  H600     1.0000 0.75350  0.91820  0.70290  Biso   1.000  H
  H601     1.0000 0.75700  0.53520  0.24710  Biso   1.000  H
  H602     1.0000 0.24300  0.03520  0.25290  Biso   1.000  H
  H603     1.0000 0.24300  0.46480  0.75290  Biso   1.000  H
  H604     1.0000 0.75700  0.96480  0.74710  Biso   1.000  H
  C529     1.0000 0.71840  0.64380  0.27000  Biso   1.000  C
  C530     1.0000 0.28160  0.14380  0.23000  Biso   1.000  C
  C531     1.0000 0.28160  0.35620  0.73000  Biso   1.000  C
  C532     1.0000 0.71840  0.85620  0.77000  Biso   1.000  C
  H605     1.0000 0.72060  0.67860  0.29260  Biso   1.000  H
  H606     1.0000 0.27940  0.17860  0.20740  Biso   1.000  H
  H607     1.0000 0.27940  0.32140  0.70740  Biso   1.000  H
  H608     1.0000 0.72060  0.82140  0.79260  Biso   1.000  H
  H609     1.0000 0.70440  0.60570  0.28140  Biso   1.000  H
  H610     1.0000 0.29560  0.10570  0.21860  Biso   1.000  H
  H611     1.0000 0.29560  0.39430  0.71860  Biso   1.000  H
  H612     1.0000 0.70440  0.89430  0.78140  Biso   1.000  H
  H613     1.0000 0.69860  0.65780  0.24100  Biso   1.000  H
  H614     1.0000 0.30140  0.15780  0.25900  Biso   1.000  H
  H615     1.0000 0.30140  0.34220  0.75900  Biso   1.000  H
  H616     1.0000 0.69860  0.84220  0.74100  Biso   1.000  H
  C533     1.0000 0.81940  0.57390  0.24040  Biso   1.000  C
  C534     1.0000 0.18060  0.07390  0.25960  Biso   1.000  C
  C535     1.0000 0.18060  0.42610  0.75960  Biso   1.000  C
  C536     1.0000 0.81940  0.92610  0.74040  Biso   1.000  C
  H617     1.0000 0.82800  0.56020  0.21120  Biso   1.000  H
  H618     1.0000 0.17200  0.06020  0.28880  Biso   1.000  H
  H619     1.0000 0.17200  0.43980  0.78880  Biso   1.000  H
  H620     1.0000 0.82800  0.93980  0.71120  Biso   1.000  H
  H621     1.0000 0.83270  0.54220  0.26430  Biso   1.000  H
  H622     1.0000 0.16730  0.04220  0.23570  Biso   1.000  H
  H623     1.0000 0.16730  0.45780  0.73570  Biso   1.000  H
  H624     1.0000 0.83270  0.95780  0.76430  Biso   1.000  H
  N65      1.0000 0.94740  0.17040  0.40500  Biso   1.000  N
  N66      1.0000 0.05260  0.67040  0.09500  Biso   1.000  N
  N67      1.0000 0.05260  0.82960  0.59500  Biso   1.000  N
  N68      1.0000 0.94740  0.32960  0.90500  Biso   1.000  N
  O121     1.0000 0.88357  0.10750  0.41025  Biso   1.000  O
  O122     1.0000 0.11643  0.60750  0.08975  Biso   1.000  O
  O123     1.0000 0.11643  0.89250  0.58975  Biso   1.000  O
  O124     1.0000 0.88357  0.39250  0.91025  Biso   1.000  O
  C537     1.0000 0.90880  0.13630  0.38800  Biso   1.000  C
  C538     1.0000 0.09120  0.63630  0.11200  Biso   1.000  C
  C539     1.0000 0.09120  0.86370  0.61200  Biso   1.000  C
  C540     1.0000 0.90880  0.36370  0.88800  Biso   1.000  C
  C541     1.0000 0.90060  0.14070  0.33660  Biso   1.000  C
  C542     1.0000 0.09940  0.64070  0.16340  Biso   1.000  C
  C543     1.0000 0.09940  0.85930  0.66340  Biso   1.000  C
  C544     1.0000 0.90060  0.35930  0.83660  Biso   1.000  C
  H625     1.0000 0.87450  0.17070  0.32470  Biso   1.000  H
  H626     1.0000 0.12550  0.67070  0.17530  Biso   1.000  H
  H627     1.0000 0.12550  0.82930  0.67530  Biso   1.000  H
  H628     1.0000 0.87450  0.32930  0.82470  Biso   1.000  H
  H629     1.0000 0.89310  0.09790  0.32230  Biso   1.000  H
  H630     1.0000 0.10690  0.59790  0.17770  Biso   1.000  H
  H631     1.0000 0.10690  0.90210  0.67770  Biso   1.000  H
  H632     1.0000 0.89310  0.40210  0.82230  Biso   1.000  H
  C545     1.0000 0.94690  0.16570  0.32740  Biso   1.000  C
  C546     1.0000 0.05310  0.66570  0.17260  Biso   1.000  C
  C547     1.0000 0.05310  0.83430  0.67260  Biso   1.000  C
  C548     1.0000 0.94690  0.33430  0.82740  Biso   1.000  C
  H633     1.0000 0.94180  0.19430  0.30020  Biso   1.000  H
  H634     1.0000 0.05820  0.69430  0.19980  Biso   1.000  H
  H635     1.0000 0.05820  0.80570  0.69980  Biso   1.000  H
  H636     1.0000 0.94180  0.30570  0.80020  Biso   1.000  H
  H637     1.0000 0.96780  0.12980  0.32230  Biso   1.000  H
  H638     1.0000 0.03220  0.62980  0.17770  Biso   1.000  H
  H639     1.0000 0.03220  0.87020  0.67770  Biso   1.000  H
  H640     1.0000 0.96780  0.37020  0.82230  Biso   1.000  H
  C549     1.0000 0.96790  0.20310  0.37110  Biso   1.000  C
  C550     1.0000 0.03210  0.70310  0.12890  Biso   1.000  C
  C551     1.0000 0.03210  0.79690  0.62890  Biso   1.000  C
  C552     1.0000 0.96790  0.29690  0.87110  Biso   1.000  C
  H641     1.0000 0.00270  0.20010  0.37800  Biso   1.000  H
  H642     1.0000 0.99730  0.70010  0.12200  Biso   1.000  H
  H643     1.0000 0.99730  0.79990  0.62200  Biso   1.000  H
  H644     1.0000 0.00270  0.29990  0.87800  Biso   1.000  H
  H645     1.0000 0.95850  0.24900  0.36850  Biso   1.000  H
  H646     1.0000 0.04150  0.74900  0.13150  Biso   1.000  H
  H647     1.0000 0.04150  0.75100  0.63150  Biso   1.000  H
  H648     1.0000 0.95850  0.25100  0.86850  Biso   1.000  H
  C553     1.0000 0.96460  0.17990  0.45340  Biso   1.000  C
  C554     1.0000 0.03540  0.67990  0.04660  Biso   1.000  C
  C555     1.0000 0.03540  0.82010  0.54660  Biso   1.000  C
  C556     1.0000 0.96460  0.32010  0.95340  Biso   1.000  C
  H649     1.0000 0.94580  0.15390  0.47080  Biso   1.000  H
  H650     1.0000 0.05420  0.65390  0.02920  Biso   1.000  H
  H651     1.0000 0.05420  0.84610  0.52920  Biso   1.000  H
  H652     1.0000 0.94580  0.34610  0.97080  Biso   1.000  H
  H653     1.0000 0.96180  0.22550  0.46090  Biso   1.000  H
  H654     1.0000 0.03820  0.72550  0.03910  Biso   1.000  H
  H655     1.0000 0.03820  0.77450  0.53910  Biso   1.000  H
  H656     1.0000 0.96180  0.27450  0.96090  Biso   1.000  H
  H657     1.0000 0.99770  0.16670  0.46130  Biso   1.000  H
  H658     1.0000 0.00230  0.66670  0.03870  Biso   1.000  H
  H659     1.0000 0.00230  0.83330  0.53870  Biso   1.000  H
  H660     1.0000 0.99770  0.33330  0.96130  Biso   1.000  H
  O125     1.0000 0.61700  0.57650  0.57430  Biso   1.000  O
  O126     1.0000 0.38300  0.07650  0.92570  Biso   1.000  O
  O127     1.0000 0.38300  0.42350  0.42570  Biso   1.000  O
  O128     1.0000 0.61700  0.92350  0.07430  Biso   1.000  O
  C557     1.0000 0.62030  0.62790  0.59990  Biso   1.000  C
  C558     1.0000 0.37970  0.12790  0.90010  Biso   1.000  C
  C559     1.0000 0.37970  0.37210  0.40010  Biso   1.000  C
  C560     1.0000 0.62030  0.87210  0.09990  Biso   1.000  C
  N69      1.0000 0.59120  0.68600  0.57250  Biso   1.000  N
  N70      1.0000 0.40880  0.18600  0.92750  Biso   1.000  N
  N71      1.0000 0.40880  0.31400  0.42750  Biso   1.000  N
  N72      1.0000 0.59120  0.81400  0.07250  Biso   1.000  N
  C561     1.0000 0.57200  0.68260  0.52510  Biso   1.000  C
  C562     1.0000 0.42800  0.18260  0.97490  Biso   1.000  C
  C563     1.0000 0.42800  0.31740  0.47490  Biso   1.000  C
  C564     1.0000 0.57200  0.81740  0.02510  Biso   1.000  C
  H661     1.0000 0.59620  0.69430  0.50760  Biso   1.000  H
  H662     1.0000 0.40380  0.19430  0.99240  Biso   1.000  H
  H663     1.0000 0.40380  0.30570  0.49240  Biso   1.000  H
  H664     1.0000 0.59620  0.80570  0.00760  Biso   1.000  H
  H665     1.0000 0.54540  0.71250  0.51770  Biso   1.000  H
  H666     1.0000 0.45460  0.21250  0.98230  Biso   1.000  H
  H667     1.0000 0.45460  0.28750  0.48230  Biso   1.000  H
  H668     1.0000 0.54540  0.78750  0.01770  Biso   1.000  H
  H669     1.0000 0.56110  0.63870  0.51710  Biso   1.000  H
  H670     1.0000 0.43890  0.13870  0.98290  Biso   1.000  H
  H671     1.0000 0.43890  0.36130  0.48290  Biso   1.000  H
  H672     1.0000 0.56110  0.86130  0.01710  Biso   1.000  H
  C565     1.0000 0.63140  0.70480  0.66330  Biso   1.000  C
  C566     1.0000 0.36860  0.20480  0.83670  Biso   1.000  C
  C567     1.0000 0.36860  0.29520  0.33670  Biso   1.000  C
  C568     1.0000 0.63140  0.79520  0.16330  Biso   1.000  C
  H673     1.0000 0.61090  0.69830  0.68600  Biso   1.000  H
  H674     1.0000 0.38910  0.19830  0.81400  Biso   1.000  H
  H675     1.0000 0.38910  0.30170  0.31400  Biso   1.000  H
  H676     1.0000 0.61090  0.80170  0.18600  Biso   1.000  H
  H677     1.0000 0.65800  0.73340  0.67620  Biso   1.000  H
  H678     1.0000 0.34200  0.23340  0.82380  Biso   1.000  H
  H679     1.0000 0.34200  0.26660  0.32380  Biso   1.000  H
  H680     1.0000 0.65800  0.76660  0.17620  Biso   1.000  H
  C569     1.0000 0.60360  0.72900  0.61650  Biso   1.000  C
  C570     1.0000 0.39640  0.22900  0.88350  Biso   1.000  C
  C571     1.0000 0.39640  0.27100  0.38350  Biso   1.000  C
  C572     1.0000 0.60360  0.77100  0.11650  Biso   1.000  C
  H681     1.0000 0.62120  0.76660  0.60800  Biso   1.000  H
  H682     1.0000 0.37880  0.26660  0.89200  Biso   1.000  H
  H683     1.0000 0.37880  0.23340  0.39200  Biso   1.000  H
  H684     1.0000 0.62120  0.73340  0.10800  Biso   1.000  H
  H685     1.0000 0.57320  0.74590  0.62230  Biso   1.000  H
  H686     1.0000 0.42680  0.24590  0.87770  Biso   1.000  H
  H687     1.0000 0.42680  0.25410  0.37770  Biso   1.000  H
  H688     1.0000 0.57320  0.75410  0.12230  Biso   1.000  H
  C573     1.0000 0.64860  0.63800  0.64500  Biso   1.000  C
  C574     1.0000 0.35140  0.13800  0.85500  Biso   1.000  C
  C575     1.0000 0.35140  0.36200  0.35500  Biso   1.000  C
  C576     1.0000 0.64860  0.86200  0.14500  Biso   1.000  C
  H689     1.0000 0.68240  0.64090  0.64340  Biso   1.000  H
  H690     1.0000 0.31760  0.14090  0.85660  Biso   1.000  H
  H691     1.0000 0.31760  0.35910  0.35660  Biso   1.000  H
  H692     1.0000 0.68240  0.85910  0.14340  Biso   1.000  H
  H693     1.0000 0.64410  0.60270  0.66580  Biso   1.000  H
  H694     1.0000 0.35590  0.10270  0.83420  Biso   1.000  H
  H695     1.0000 0.35590  0.39730  0.33420  Biso   1.000  H
  H696     1.0000 0.64410  0.89730  0.16580  Biso   1.000  H
  O129     1.0000 0.64730  0.52870  0.18700  Biso   1.000  O
  O130     1.0000 0.35270  0.02870  0.31300  Biso   1.000  O
  O131     1.0000 0.35270  0.47130  0.81300  Biso   1.000  O
  O132     1.0000 0.64730  0.97130  0.68700  Biso   1.000  O
  N73      1.0000 0.76130  0.49900  0.12020  Biso   1.000  N
  N74      1.0000 0.23870  0.99900  0.37980  Biso   1.000  N
  N75      1.0000 0.23870  0.50100  0.87980  Biso   1.000  N
  N76      1.0000 0.76130  0.00100  0.62020  Biso   1.000  N
  O133     1.0000 0.69520  0.44550  0.13490  Biso   1.000  O
  O134     1.0000 0.30480  0.94550  0.36510  Biso   1.000  O
  O135     1.0000 0.30480  0.55450  0.86510  Biso   1.000  O
  O136     1.0000 0.69520  0.05450  0.63490  Biso   1.000  O
  C577     1.0000 0.74360  0.45660  0.13560  Biso   1.000  C
  C578     1.0000 0.25640  0.95660  0.36440  Biso   1.000  C
  C579     1.0000 0.25640  0.54340  0.86440  Biso   1.000  C
  C580     1.0000 0.74360  0.04340  0.63560  Biso   1.000  C
  C581     1.0000 0.80660  0.48750  0.11610  Biso   1.000  C
  C582     1.0000 0.19340  0.98750  0.38390  Biso   1.000  C
  C583     1.0000 0.19340  0.51250  0.88390  Biso   1.000  C
  C584     1.0000 0.80660  0.01250  0.61610  Biso   1.000  C
  H697     1.0000 0.82700  0.52540  0.12520  Biso   1.000  H
  H698     1.0000 0.17300  0.02540  0.37480  Biso   1.000  H
  H699     1.0000 0.17300  0.47460  0.87480  Biso   1.000  H
  H700     1.0000 0.82700  0.97460  0.62520  Biso   1.000  H
  H701     1.0000 0.80850  0.47490  0.08440  Biso   1.000  H
  H702     1.0000 0.19150  0.97490  0.41560  Biso   1.000  H
  H703     1.0000 0.19150  0.52510  0.91560  Biso   1.000  H
  H704     1.0000 0.80850  0.02510  0.58440  Biso   1.000  H
  C585     1.0000 0.73780  0.55220  0.09840  Biso   1.000  C
  C586     1.0000 0.26220  0.05220  0.40160  Biso   1.000  C
  C587     1.0000 0.26220  0.44780  0.90160  Biso   1.000  C
  C588     1.0000 0.73780  0.94780  0.59840  Biso   1.000  C
  H705     1.0000 0.70370  0.54470  0.09310  Biso   1.000  H
  H706     1.0000 0.29630  0.04470  0.40690  Biso   1.000  H
  H707     1.0000 0.29630  0.45530  0.90690  Biso   1.000  H
  H708     1.0000 0.70370  0.95530  0.59310  Biso   1.000  H
  H709     1.0000 0.74750  0.55900  0.06890  Biso   1.000  H
  H710     1.0000 0.25250  0.05900  0.43110  Biso   1.000  H
  H711     1.0000 0.25250  0.44100  0.93110  Biso   1.000  H
  H712     1.0000 0.74750  0.94100  0.56890  Biso   1.000  H
  H713     1.0000 0.74560  0.59040  0.11770  Biso   1.000  H
  H714     1.0000 0.25440  0.09040  0.38230  Biso   1.000  H
  H715     1.0000 0.25440  0.40960  0.88230  Biso   1.000  H
  H716     1.0000 0.74560  0.90960  0.61770  Biso   1.000  H
  C589     1.0000 0.77320  0.39490  0.14460  Biso   1.000  C
  C590     1.0000 0.22680  0.89490  0.35540  Biso   1.000  C
  C591     1.0000 0.22680  0.60510  0.85540  Biso   1.000  C
  C592     1.0000 0.77320  0.10510  0.64460  Biso   1.000  C
  H717     1.0000 0.77000  0.37270  0.17330  Biso   1.000  H
  H718     1.0000 0.23000  0.87270  0.32670  Biso   1.000  H
  H719     1.0000 0.23000  0.62730  0.82670  Biso   1.000  H
  H720     1.0000 0.77000  0.12730  0.67330  Biso   1.000  H
  H721     1.0000 0.76760  0.36450  0.11840  Biso   1.000  H
  H722     1.0000 0.23240  0.86450  0.38160  Biso   1.000  H
  H723     1.0000 0.23240  0.63550  0.88160  Biso   1.000  H
  H724     1.0000 0.76760  0.13550  0.61840  Biso   1.000  H
  C593     1.0000 0.81950  0.43310  0.14870  Biso   1.000  C
  C594     1.0000 0.18050  0.93310  0.35130  Biso   1.000  C
  C595     1.0000 0.18050  0.56690  0.85130  Biso   1.000  C
  C596     1.0000 0.81950  0.06690  0.64870  Biso   1.000  C
  H725     1.0000 0.83050  0.44900  0.18040  Biso   1.000  H
  H726     1.0000 0.16950  0.94900  0.31960  Biso   1.000  H
  H727     1.0000 0.16950  0.55100  0.81960  Biso   1.000  H
  H728     1.0000 0.83050  0.05100  0.68040  Biso   1.000  H
  H729     1.0000 0.84460  0.40630  0.13980  Biso   1.000  H
  H730     1.0000 0.15540  0.90630  0.36020  Biso   1.000  H
  H731     1.0000 0.15540  0.59370  0.86020  Biso   1.000  H
  H732     1.0000 0.84460  0.09370  0.63980  Biso   1.000  H
  O137     1.0000 0.84250  0.48310  0.33170  Biso   1.000  O
  O138     1.0000 0.15750  0.98310  0.16830  Biso   1.000  O
  O139     1.0000 0.15750  0.51690  0.66830  Biso   1.000  O
  O140     1.0000 0.84250  0.01690  0.83170  Biso   1.000  O
  O141     1.0000 0.32510  0.99760  0.21920  Biso   1.000  O
  O142     1.0000 0.67490  0.49760  0.28080  Biso   1.000  O
  O143     1.0000 0.67490  0.00240  0.78080  Biso   1.000  O
  O144     1.0000 0.32510  0.50240  0.71920  Biso   1.000  O
  C597     1.0000 0.40880  0.95150  0.15180  Biso   1.000  C
  C598     1.0000 0.59120  0.45150  0.34820  Biso   1.000  C
  C599     1.0000 0.59120  0.04850  0.84820  Biso   1.000  C
  C600     1.0000 0.40880  0.54850  0.65180  Biso   1.000  C
  H733     1.0000 0.42290  0.97240  0.12770  Biso   1.000  H
  H734     1.0000 0.57710  0.47240  0.37230  Biso   1.000  H
  H735     1.0000 0.57710  0.02760  0.87230  Biso   1.000  H
  H736     1.0000 0.42290  0.52760  0.62770  Biso   1.000  H
  H737     1.0000 0.43230  0.92200  0.16980  Biso   1.000  H
  H738     1.0000 0.56770  0.42200  0.33020  Biso   1.000  H
  H739     1.0000 0.56770  0.07800  0.83020  Biso   1.000  H
  H740     1.0000 0.43230  0.57800  0.66980  Biso   1.000  H
  C601     1.0000 0.39250  0.99960  0.18160  Biso   1.000  C
  C602     1.0000 0.60750  0.49960  0.31840  Biso   1.000  C
  C603     1.0000 0.60750  0.00040  0.81840  Biso   1.000  C
  C604     1.0000 0.39250  0.50040  0.68160  Biso   1.000  C
  H741     1.0000 0.41600  0.00450  0.21050  Biso   1.000  H
  H742     1.0000 0.58400  0.50450  0.28950  Biso   1.000  H
  H743     1.0000 0.58400  0.99550  0.78950  Biso   1.000  H
  H744     1.0000 0.41600  0.49550  0.71050  Biso   1.000  H
  H745     1.0000 0.38830  0.04190  0.16600  Biso   1.000  H
  H746     1.0000 0.61170  0.54190  0.33400  Biso   1.000  H
  H747     1.0000 0.61170  0.95810  0.83400  Biso   1.000  H
  H748     1.0000 0.38830  0.45810  0.66600  Biso   1.000  H
  N77      1.0000 0.33340  0.92620  0.16130  Biso   1.000  N
  N78      1.0000 0.66660  0.42620  0.33870  Biso   1.000  N
  N79      1.0000 0.66660  0.07380  0.83870  Biso   1.000  N
  N80      1.0000 0.33340  0.57380  0.66130  Biso   1.000  N
  C605     1.0000 0.36550  0.91730  0.13190  Biso   1.000  C
  C606     1.0000 0.63450  0.41730  0.36810  Biso   1.000  C
  C607     1.0000 0.63450  0.08270  0.86810  Biso   1.000  C
  C608     1.0000 0.36550  0.58270  0.63190  Biso   1.000  C
  H749     1.0000 0.35220  0.93470  0.10110  Biso   1.000  H
  H750     1.0000 0.64780  0.43470  0.39890  Biso   1.000  H
  H751     1.0000 0.64780  0.06530  0.89890  Biso   1.000  H
  H752     1.0000 0.35220  0.56530  0.60110  Biso   1.000  H
  H753     1.0000 0.37210  0.87090  0.12890  Biso   1.000  H
  H754     1.0000 0.62790  0.37090  0.37110  Biso   1.000  H
  H755     1.0000 0.62790  0.12910  0.87110  Biso   1.000  H
  H756     1.0000 0.37210  0.62910  0.62890  Biso   1.000  H
  C609     1.0000 0.34850  0.97720  0.19100  Biso   1.000  C
  C610     1.0000 0.65150  0.47720  0.30900  Biso   1.000  C
  C611     1.0000 0.65150  0.02280  0.80900  Biso   1.000  C
  C612     1.0000 0.34850  0.52280  0.69100  Biso   1.000  C
  C613     1.0000 0.29230  0.88920  0.15920  Biso   1.000  C
  C614     1.0000 0.70770  0.38920  0.34080  Biso   1.000  C
  C615     1.0000 0.70770  0.11080  0.84080  Biso   1.000  C
  C616     1.0000 0.29230  0.61080  0.65920  Biso   1.000  C
  H757     1.0000 0.27010  0.89880  0.13060  Biso   1.000  H
  H758     1.0000 0.72990  0.39880  0.36940  Biso   1.000  H
  H759     1.0000 0.72990  0.10120  0.86940  Biso   1.000  H
  H760     1.0000 0.27010  0.60120  0.63060  Biso   1.000  H
  H761     1.0000 0.27770  0.89970  0.18540  Biso   1.000  H
  H762     1.0000 0.72230  0.39970  0.31460  Biso   1.000  H
  H763     1.0000 0.72230  0.10030  0.81460  Biso   1.000  H
  H764     1.0000 0.27770  0.60030  0.68540  Biso   1.000  H
  H765     1.0000 0.30050  0.84340  0.16010  Biso   1.000  H
  H766     1.0000 0.69950  0.34340  0.33990  Biso   1.000  H
  H767     1.0000 0.69950  0.15660  0.83990  Biso   1.000  H
  H768     1.0000 0.30050  0.65660  0.66010  Biso   1.000  H
  F65      1.0000 0.85420  0.70180  0.45070  Biso   1.000  F
  F66      1.0000 0.14580  0.20180  0.04930  Biso   1.000  F
  F67      1.0000 0.14580  0.29820  0.54930  Biso   1.000  F
  F68      1.0000 0.85420  0.79820  0.95070  Biso   1.000  F
  O145     1.0000 0.70850  0.38180  0.68760  Biso   1.000  O
  O146     1.0000 0.29150  0.88180  0.81240  Biso   1.000  O
  O147     1.0000 0.29150  0.61820  0.31240  Biso   1.000  O
  O148     1.0000 0.70850  0.11820  0.18760  Biso   1.000  O
  C617     1.0000 0.68970  0.41040  0.66140  Biso   1.000  C
  C618     1.0000 0.31030  0.91040  0.83860  Biso   1.000  C
  C619     1.0000 0.31030  0.58960  0.33860  Biso   1.000  C
  C620     1.0000 0.68970  0.08960  0.16140  Biso   1.000  C
  O149     1.0000 0.74300  0.31090  0.73200  Biso   1.000  O
  O150     1.0000 0.25700  0.81090  0.76800  Biso   1.000  O
  O151     1.0000 0.25700  0.68910  0.26800  Biso   1.000  O
  O152     1.0000 0.74300  0.18910  0.23200  Biso   1.000  O
  C621     1.0000 0.75320  0.41900  0.73440  Biso   1.000  C
  C622     1.0000 0.24680  0.91900  0.76560  Biso   1.000  C
  C623     1.0000 0.24680  0.58100  0.26560  Biso   1.000  C
  C624     1.0000 0.75320  0.08100  0.23440  Biso   1.000  C
  N81      1.0000 0.70980  0.46260  0.68520  Biso   1.000  N
  N82      1.0000 0.29020  0.96260  0.81480  Biso   1.000  N
  N83      1.0000 0.29020  0.53740  0.31480  Biso   1.000  N
  N84      1.0000 0.70980  0.03740  0.18520  Biso   1.000  N
  O153     1.0000 0.78220  0.40000  0.76280  Biso   1.000  O
  O154     1.0000 0.21780  0.90000  0.73720  Biso   1.000  O
  O155     1.0000 0.21780  0.60000  0.23720  Biso   1.000  O
  O156     1.0000 0.78220  0.10000  0.26280  Biso   1.000  O
  C625     1.0000 0.74960  0.49170  0.72130  Biso   1.000  C
  C626     1.0000 0.25040  0.99170  0.77870  Biso   1.000  C
  C627     1.0000 0.25040  0.50830  0.27870  Biso   1.000  C
  C628     1.0000 0.74960  0.00830  0.22130  Biso   1.000  C
  C629     1.0000 0.77410  0.35310  0.75770  Biso   1.000  C
  C630     1.0000 0.22590  0.85310  0.74230  Biso   1.000  C
  C631     1.0000 0.22590  0.64690  0.24230  Biso   1.000  C
  C632     1.0000 0.77410  0.14690  0.25770  Biso   1.000  C
  C633     1.0000 0.78340  0.47410  0.75970  Biso   1.000  C
  C634     1.0000 0.21660  0.97410  0.74030  Biso   1.000  C
  C635     1.0000 0.21660  0.52590  0.24030  Biso   1.000  C
  C636     1.0000 0.78340  0.02590  0.25970  Biso   1.000  C
  C637     1.0000 0.74060  0.36930  0.71930  Biso   1.000  C
  C638     1.0000 0.25940  0.86930  0.78070  Biso   1.000  C
  C639     1.0000 0.25940  0.63070  0.28070  Biso   1.000  C
  C640     1.0000 0.74060  0.13070  0.21930  Biso   1.000  C
  C641     1.0000 0.72630  0.32760  0.71090  Biso   1.000  C
  C642     1.0000 0.27370  0.82760  0.78910  Biso   1.000  C
  C643     1.0000 0.27370  0.67240  0.28910  Biso   1.000  C
  C644     1.0000 0.72630  0.17240  0.21090  Biso   1.000  C
  C645     1.0000 0.72350  0.41340  0.70180  Biso   1.000  C
  C646     1.0000 0.27650  0.91340  0.79820  Biso   1.000  C
  C647     1.0000 0.27650  0.58660  0.29820  Biso   1.000  C
  C648     1.0000 0.72350  0.08660  0.20180  Biso   1.000  C
