data_image0
_cell_length_a       11.0389
_cell_length_b       22.784
_cell_length_c       31.28
_cell_angle_alpha    90
_cell_angle_beta     90
_cell_angle_gamma    90

_symmetry_space_group_name_H-M    "P 1"
_symmetry_int_tables_number       1

loop_
  _symmetry_equiv_pos_as_xyz
  'x, y, z'

loop_
  _atom_site_label
  _atom_site_occupancy
  _atom_site_fract_x
  _atom_site_fract_y
  _atom_site_fract_z
  _atom_site_thermal_displace_type
  _atom_site_B_iso_or_equiv
  _atom_site_type_symbol
  Cu1      1.0000 0.00000  0.92766  0.00000  Biso   1.000  Cu
  Cu2      1.0000 0.00000  0.07234  0.00000  Biso   1.000  Cu
  Cu3      1.0000 0.00000  0.42766  0.50000  Biso   1.000  Cu
  Cu4      1.0000 0.00000  0.57234  0.50000  Biso   1.000  Cu
  Cu5      1.0000 0.50000  0.92766  0.50000  Biso   1.000  Cu
  Cu6      1.0000 0.50000  0.07234  0.50000  Biso   1.000  Cu
  Cu7      1.0000 0.50000  0.42766  0.00000  Biso   1.000  Cu
  Cu8      1.0000 0.50000  0.57234  0.00000  Biso   1.000  Cu
  Cu9      1.0000 0.00000  0.00000  0.90309  Biso   1.000  Cu
  Cu10     1.0000 0.00000  0.00000  0.09691  Biso   1.000  Cu
  Cu11     1.0000 0.00000  0.50000  0.40309  Biso   1.000  Cu
  Cu12     1.0000 0.00000  0.50000  0.59691  Biso   1.000  Cu
  Cu13     1.0000 0.50000  0.00000  0.40309  Biso   1.000  Cu
  Cu14     1.0000 0.50000  0.00000  0.59691  Biso   1.000  Cu
  Cu15     1.0000 0.50000  0.50000  0.90309  Biso   1.000  Cu
  Cu16     1.0000 0.50000  0.50000  0.09691  Biso   1.000  Cu
  Cu17     1.0000 0.00000  0.00000  0.81017  Biso   1.000  Cu
  Cu18     1.0000 0.00000  0.00000  0.18983  Biso   1.000  Cu
  Cu19     1.0000 0.00000  0.50000  0.31017  Biso   1.000  Cu
  Cu20     1.0000 0.00000  0.50000  0.68983  Biso   1.000  Cu
  Cu21     1.0000 0.50000  0.00000  0.31017  Biso   1.000  Cu
  Cu22     1.0000 0.50000  0.00000  0.68983  Biso   1.000  Cu
  Cu23     1.0000 0.50000  0.50000  0.81017  Biso   1.000  Cu
  Cu24     1.0000 0.50000  0.50000  0.18983  Biso   1.000  Cu
  Cu25     1.0000 0.75000  0.75000  0.75000  Biso   1.000  Cu
  Cu26     1.0000 0.25000  0.25000  0.75000  Biso   1.000  Cu
  Cu27     1.0000 0.25000  0.75000  0.25000  Biso   1.000  Cu
  Cu28     1.0000 0.75000  0.25000  0.25000  Biso   1.000  Cu
  O1       1.0000 0.86200  0.00000  0.00000  Biso   1.000  O
  O2       1.0000 0.13800  0.00000  0.00000  Biso   1.000  O
  O3       1.0000 0.86200  0.50000  0.50000  Biso   1.000  O
  O4       1.0000 0.13800  0.50000  0.50000  Biso   1.000  O
  O5       1.0000 0.36200  0.00000  0.50000  Biso   1.000  O
  O6       1.0000 0.63800  0.00000  0.50000  Biso   1.000  O
  O7       1.0000 0.36200  0.50000  0.00000  Biso   1.000  O
  O8       1.0000 0.63800  0.50000  0.00000  Biso   1.000  O
  H1       1.0000 0.80560  0.98600  0.97860  Biso   1.000  H
  H2       1.0000 0.19440  0.01400  0.97860  Biso   1.000  H
  H3       1.0000 0.19440  0.98600  0.02140  Biso   1.000  H
  H4       1.0000 0.80560  0.01400  0.02140  Biso   1.000  H
  H5       1.0000 0.80560  0.48600  0.47860  Biso   1.000  H
  H6       1.0000 0.19440  0.51400  0.47860  Biso   1.000  H
  H7       1.0000 0.19440  0.48600  0.52140  Biso   1.000  H
  H8       1.0000 0.80560  0.51400  0.52140  Biso   1.000  H
  H9       1.0000 0.30560  0.98600  0.47860  Biso   1.000  H
  H10      1.0000 0.69440  0.01400  0.47860  Biso   1.000  H
  H11      1.0000 0.69440  0.98600  0.52140  Biso   1.000  H
  H12      1.0000 0.30560  0.01400  0.52140  Biso   1.000  H
  H13      1.0000 0.30560  0.48600  0.97860  Biso   1.000  H
  H14      1.0000 0.69440  0.51400  0.97860  Biso   1.000  H
  H15      1.0000 0.69440  0.48600  0.02140  Biso   1.000  H
  H16      1.0000 0.30560  0.51400  0.02140  Biso   1.000  H
  O9       1.0000 0.99450  0.94020  0.76546  Biso   1.000  O
  O10      1.0000 0.00550  0.05980  0.76546  Biso   1.000  O
  O11      1.0000 0.00550  0.94020  0.23454  Biso   1.000  O
  O12      1.0000 0.99450  0.05980  0.23454  Biso   1.000  O
  O13      1.0000 0.99450  0.44020  0.26546  Biso   1.000  O
  O14      1.0000 0.00550  0.55980  0.26546  Biso   1.000  O
  O15      1.0000 0.00550  0.44020  0.73454  Biso   1.000  O
  O16      1.0000 0.99450  0.55980  0.73454  Biso   1.000  O
  O17      1.0000 0.49450  0.94020  0.26546  Biso   1.000  O
  O18      1.0000 0.50550  0.05980  0.26546  Biso   1.000  O
  O19      1.0000 0.50550  0.94020  0.73454  Biso   1.000  O
  O20      1.0000 0.49450  0.05980  0.73454  Biso   1.000  O
  O21      1.0000 0.49450  0.44020  0.76546  Biso   1.000  O
  O22      1.0000 0.50550  0.55980  0.76546  Biso   1.000  O
  O23      1.0000 0.50550  0.44020  0.23454  Biso   1.000  O
  O24      1.0000 0.49450  0.55980  0.23454  Biso   1.000  O
  O25      1.0000 0.16880  0.83340  0.87966  Biso   1.000  O
  O26      1.0000 0.83120  0.16660  0.87966  Biso   1.000  O
  O27      1.0000 0.83120  0.83340  0.12034  Biso   1.000  O
  O28      1.0000 0.16880  0.16660  0.12034  Biso   1.000  O
  O29      1.0000 0.16880  0.33340  0.37966  Biso   1.000  O
  O30      1.0000 0.83120  0.66660  0.37966  Biso   1.000  O
  O31      1.0000 0.83120  0.33340  0.62034  Biso   1.000  O
  O32      1.0000 0.16880  0.66660  0.62034  Biso   1.000  O
  O33      1.0000 0.66880  0.83340  0.37966  Biso   1.000  O
  O34      1.0000 0.33120  0.16660  0.37966  Biso   1.000  O
  O35      1.0000 0.33120  0.83340  0.62034  Biso   1.000  O
  O36      1.0000 0.66880  0.16660  0.62034  Biso   1.000  O
  O37      1.0000 0.66880  0.33340  0.87966  Biso   1.000  O
  O38      1.0000 0.33120  0.66660  0.87966  Biso   1.000  O
  O39      1.0000 0.33120  0.33340  0.12034  Biso   1.000  O
  O40      1.0000 0.66880  0.66660  0.12034  Biso   1.000  O
  O41      1.0000 0.02050  0.94600  0.85781  Biso   1.000  O
  O42      1.0000 0.97950  0.05400  0.85781  Biso   1.000  O
  O43      1.0000 0.97950  0.94600  0.14219  Biso   1.000  O
  O44      1.0000 0.02050  0.05400  0.14219  Biso   1.000  O
  O45      1.0000 0.02050  0.44600  0.35781  Biso   1.000  O
  O46      1.0000 0.97950  0.55400  0.35781  Biso   1.000  O
  O47      1.0000 0.97950  0.44600  0.64219  Biso   1.000  O
  O48      1.0000 0.02050  0.55400  0.64219  Biso   1.000  O
  O49      1.0000 0.52050  0.94600  0.35781  Biso   1.000  O
  O50      1.0000 0.47950  0.05400  0.35781  Biso   1.000  O
  O51      1.0000 0.47950  0.94600  0.64219  Biso   1.000  O
  O52      1.0000 0.52050  0.05400  0.64219  Biso   1.000  O
  O53      1.0000 0.52050  0.44600  0.85781  Biso   1.000  O
  O54      1.0000 0.47950  0.55400  0.85781  Biso   1.000  O
  O55      1.0000 0.47950  0.44600  0.14219  Biso   1.000  O
  O56      1.0000 0.52050  0.55400  0.14219  Biso   1.000  O
  O57      1.0000 0.98240  0.93267  0.93962  Biso   1.000  O
  O58      1.0000 0.01760  0.06733  0.93962  Biso   1.000  O
  O59      1.0000 0.01760  0.93267  0.06038  Biso   1.000  O
  O60      1.0000 0.98240  0.06733  0.06038  Biso   1.000  O
  O61      1.0000 0.98240  0.43267  0.43962  Biso   1.000  O
  O62      1.0000 0.01760  0.56733  0.43962  Biso   1.000  O
  O63      1.0000 0.01760  0.43267  0.56038  Biso   1.000  O
  O64      1.0000 0.98240  0.56733  0.56038  Biso   1.000  O
  O65      1.0000 0.48240  0.93267  0.43962  Biso   1.000  O
  O66      1.0000 0.51760  0.06733  0.43962  Biso   1.000  O
  O67      1.0000 0.51760  0.93267  0.56038  Biso   1.000  O
  O68      1.0000 0.48240  0.06733  0.56038  Biso   1.000  O
  O69      1.0000 0.48240  0.43267  0.93962  Biso   1.000  O
  O70      1.0000 0.51760  0.56733  0.93962  Biso   1.000  O
  O71      1.0000 0.51760  0.43267  0.06038  Biso   1.000  O
  O72      1.0000 0.48240  0.56733  0.06038  Biso   1.000  O
  O73      1.0000 0.14420  0.86350  0.99330  Biso   1.000  O
  O74      1.0000 0.85580  0.13650  0.99330  Biso   1.000  O
  O75      1.0000 0.85580  0.86350  0.00670  Biso   1.000  O
  O76      1.0000 0.14420  0.13650  0.00670  Biso   1.000  O
  O77      1.0000 0.14420  0.36350  0.49330  Biso   1.000  O
  O78      1.0000 0.85580  0.63650  0.49330  Biso   1.000  O
  O79      1.0000 0.85580  0.36350  0.50670  Biso   1.000  O
  O80      1.0000 0.14420  0.63650  0.50670  Biso   1.000  O
  O81      1.0000 0.64420  0.86350  0.49330  Biso   1.000  O
  O82      1.0000 0.35580  0.13650  0.49330  Biso   1.000  O
  O83      1.0000 0.35580  0.86350  0.50670  Biso   1.000  O
  O84      1.0000 0.64420  0.13650  0.50670  Biso   1.000  O
  O85      1.0000 0.64420  0.36350  0.99330  Biso   1.000  O
  O86      1.0000 0.35580  0.63650  0.99330  Biso   1.000  O
  O87      1.0000 0.35580  0.36350  0.00670  Biso   1.000  O
  O88      1.0000 0.64420  0.63650  0.00670  Biso   1.000  O
  C1       1.0000 0.07690  0.84490  0.84910  Biso   1.000  C
  C2       1.0000 0.92310  0.15510  0.84910  Biso   1.000  C
  C3       1.0000 0.92310  0.84490  0.15090  Biso   1.000  C
  C4       1.0000 0.07690  0.15510  0.15090  Biso   1.000  C
  C5       1.0000 0.07690  0.34490  0.34910  Biso   1.000  C
  C6       1.0000 0.92310  0.65510  0.34910  Biso   1.000  C
  C7       1.0000 0.92310  0.34490  0.65090  Biso   1.000  C
  C8       1.0000 0.07690  0.65510  0.65090  Biso   1.000  C
  C9       1.0000 0.57690  0.84490  0.34910  Biso   1.000  C
  C10      1.0000 0.42310  0.15510  0.34910  Biso   1.000  C
  C11      1.0000 0.42310  0.84490  0.65090  Biso   1.000  C
  C12      1.0000 0.57690  0.15510  0.65090  Biso   1.000  C
  C13      1.0000 0.57690  0.34490  0.84910  Biso   1.000  C
  C14      1.0000 0.42310  0.65510  0.84910  Biso   1.000  C
  C15      1.0000 0.42310  0.34490  0.15090  Biso   1.000  C
  C16      1.0000 0.57690  0.65510  0.15090  Biso   1.000  C
  H17      1.0000 0.11320  0.86190  0.82330  Biso   1.000  H
  H18      1.0000 0.88680  0.13810  0.82330  Biso   1.000  H
  H19      1.0000 0.88680  0.86190  0.17670  Biso   1.000  H
  H20      1.0000 0.11320  0.13810  0.17670  Biso   1.000  H
  H21      1.0000 0.11320  0.36190  0.32330  Biso   1.000  H
  H22      1.0000 0.88680  0.63810  0.32330  Biso   1.000  H
  H23      1.0000 0.88680  0.36190  0.67670  Biso   1.000  H
  H24      1.0000 0.11320  0.63810  0.67670  Biso   1.000  H
  H25      1.0000 0.61320  0.86190  0.32330  Biso   1.000  H
  H26      1.0000 0.38680  0.13810  0.32330  Biso   1.000  H
  H27      1.0000 0.38680  0.86190  0.67670  Biso   1.000  H
  H28      1.0000 0.61320  0.13810  0.67670  Biso   1.000  H
  H29      1.0000 0.61320  0.36190  0.82330  Biso   1.000  H
  H30      1.0000 0.38680  0.63810  0.82330  Biso   1.000  H
  H31      1.0000 0.38680  0.36190  0.17670  Biso   1.000  H
  H32      1.0000 0.61320  0.63810  0.17670  Biso   1.000  H
  C17      1.0000 0.98880  0.88840  0.86853  Biso   1.000  C
  C18      1.0000 0.01120  0.11160  0.86853  Biso   1.000  C
  C19      1.0000 0.01120  0.88840  0.13147  Biso   1.000  C
  C20      1.0000 0.98880  0.11160  0.13147  Biso   1.000  C
  C21      1.0000 0.98880  0.38840  0.36853  Biso   1.000  C
  C22      1.0000 0.01120  0.61160  0.36853  Biso   1.000  C
  C23      1.0000 0.01120  0.38840  0.63147  Biso   1.000  C
  C24      1.0000 0.98880  0.61160  0.63147  Biso   1.000  C
  C25      1.0000 0.48880  0.88840  0.36853  Biso   1.000  C
  C26      1.0000 0.51120  0.11160  0.36853  Biso   1.000  C
  C27      1.0000 0.51120  0.88840  0.63147  Biso   1.000  C
  C28      1.0000 0.48880  0.11160  0.63147  Biso   1.000  C
  C29      1.0000 0.48880  0.38840  0.86853  Biso   1.000  C
  C30      1.0000 0.51120  0.61160  0.86853  Biso   1.000  C
  C31      1.0000 0.51120  0.38840  0.13147  Biso   1.000  C
  C32      1.0000 0.48880  0.61160  0.13147  Biso   1.000  C
  H33      1.0000 0.90500  0.87950  0.86050  Biso   1.000  H
  H34      1.0000 0.09500  0.12050  0.86050  Biso   1.000  H
  H35      1.0000 0.09500  0.87950  0.13950  Biso   1.000  H
  H36      1.0000 0.90500  0.12050  0.13950  Biso   1.000  H
  H37      1.0000 0.90500  0.37950  0.36050  Biso   1.000  H
  H38      1.0000 0.09500  0.62050  0.36050  Biso   1.000  H
  H39      1.0000 0.09500  0.37950  0.63950  Biso   1.000  H
  H40      1.0000 0.90500  0.62050  0.63950  Biso   1.000  H
  H41      1.0000 0.40500  0.87950  0.36050  Biso   1.000  H
  H42      1.0000 0.59500  0.12050  0.36050  Biso   1.000  H
  H43      1.0000 0.59500  0.87950  0.63950  Biso   1.000  H
  H44      1.0000 0.40500  0.12050  0.63950  Biso   1.000  H
  H45      1.0000 0.40500  0.37950  0.86050  Biso   1.000  H
  H46      1.0000 0.59500  0.62050  0.86050  Biso   1.000  H
  H47      1.0000 0.59500  0.37950  0.13950  Biso   1.000  H
  H48      1.0000 0.40500  0.62050  0.13950  Biso   1.000  H
  C33      1.0000 0.00920  0.88080  0.91614  Biso   1.000  C
  C34      1.0000 0.99080  0.11920  0.91614  Biso   1.000  C
  C35      1.0000 0.99080  0.88080  0.08386  Biso   1.000  C
  C36      1.0000 0.00920  0.11920  0.08386  Biso   1.000  C
  C37      1.0000 0.00920  0.38080  0.41614  Biso   1.000  C
  C38      1.0000 0.99080  0.61920  0.41614  Biso   1.000  C
  C39      1.0000 0.99080  0.38080  0.58386  Biso   1.000  C
  C40      1.0000 0.00920  0.61920  0.58386  Biso   1.000  C
  C41      1.0000 0.50920  0.88080  0.41614  Biso   1.000  C
  C42      1.0000 0.49080  0.11920  0.41614  Biso   1.000  C
  C43      1.0000 0.49080  0.88080  0.58386  Biso   1.000  C
  C44      1.0000 0.50920  0.11920  0.58386  Biso   1.000  C
  C45      1.0000 0.50920  0.38080  0.91614  Biso   1.000  C
  C46      1.0000 0.49080  0.61920  0.91614  Biso   1.000  C
  C47      1.0000 0.49080  0.38080  0.08386  Biso   1.000  C
  C48      1.0000 0.50920  0.61920  0.08386  Biso   1.000  C
  H49      1.0000 0.96090  0.84790  0.92690  Biso   1.000  H
  H50      1.0000 0.03910  0.15210  0.92690  Biso   1.000  H
  H51      1.0000 0.03910  0.84790  0.07310  Biso   1.000  H
  H52      1.0000 0.96090  0.15210  0.07310  Biso   1.000  H
  H53      1.0000 0.96090  0.34790  0.42690  Biso   1.000  H
  H54      1.0000 0.03910  0.65210  0.42690  Biso   1.000  H
  H55      1.0000 0.03910  0.34790  0.57310  Biso   1.000  H
  H56      1.0000 0.96090  0.65210  0.57310  Biso   1.000  H
  H57      1.0000 0.46090  0.84790  0.42690  Biso   1.000  H
  H58      1.0000 0.53910  0.15210  0.42690  Biso   1.000  H
  H59      1.0000 0.53910  0.84790  0.57310  Biso   1.000  H
  H60      1.0000 0.46090  0.15210  0.57310  Biso   1.000  H
  H61      1.0000 0.46090  0.34790  0.92690  Biso   1.000  H
  H62      1.0000 0.53910  0.65210  0.92690  Biso   1.000  H
  H63      1.0000 0.53910  0.34790  0.07310  Biso   1.000  H
  H64      1.0000 0.46090  0.65210  0.07310  Biso   1.000  H
  C49      1.0000 0.14550  0.86550  0.91780  Biso   1.000  C
  C50      1.0000 0.85450  0.13450  0.91780  Biso   1.000  C
  C51      1.0000 0.85450  0.86550  0.08220  Biso   1.000  C
  C52      1.0000 0.14550  0.13450  0.08220  Biso   1.000  C
  C53      1.0000 0.14550  0.36550  0.41780  Biso   1.000  C
  C54      1.0000 0.85450  0.63450  0.41780  Biso   1.000  C
  C55      1.0000 0.85450  0.36550  0.58220  Biso   1.000  C
  C56      1.0000 0.14550  0.63450  0.58220  Biso   1.000  C
  C57      1.0000 0.64550  0.86550  0.41780  Biso   1.000  C
  C58      1.0000 0.35450  0.13450  0.41780  Biso   1.000  C
  C59      1.0000 0.35450  0.86550  0.58220  Biso   1.000  C
  C60      1.0000 0.64550  0.13450  0.58220  Biso   1.000  C
  C61      1.0000 0.64550  0.36550  0.91780  Biso   1.000  C
  C62      1.0000 0.35450  0.63450  0.91780  Biso   1.000  C
  C63      1.0000 0.35450  0.36550  0.08220  Biso   1.000  C
  C64      1.0000 0.64550  0.63450  0.08220  Biso   1.000  C
  H65      1.0000 0.19350  0.90170  0.91790  Biso   1.000  H
  H66      1.0000 0.80650  0.09830  0.91790  Biso   1.000  H
  H67      1.0000 0.80650  0.90170  0.08210  Biso   1.000  H
  H68      1.0000 0.19350  0.09830  0.08210  Biso   1.000  H
  H69      1.0000 0.19350  0.40170  0.41790  Biso   1.000  H
  H70      1.0000 0.80650  0.59830  0.41790  Biso   1.000  H
  H71      1.0000 0.80650  0.40170  0.58210  Biso   1.000  H
  H72      1.0000 0.19350  0.59830  0.58210  Biso   1.000  H
  H73      1.0000 0.69350  0.90170  0.41790  Biso   1.000  H
  H74      1.0000 0.30650  0.09830  0.41790  Biso   1.000  H
  H75      1.0000 0.30650  0.90170  0.58210  Biso   1.000  H
  H76      1.0000 0.69350  0.09830  0.58210  Biso   1.000  H
  H77      1.0000 0.69350  0.40170  0.91790  Biso   1.000  H
  H78      1.0000 0.30650  0.59830  0.91790  Biso   1.000  H
  H79      1.0000 0.30650  0.40170  0.08210  Biso   1.000  H
  H80      1.0000 0.69350  0.59830  0.08210  Biso   1.000  H
  C65      1.0000 0.17730  0.82920  0.95600  Biso   1.000  C
  C66      1.0000 0.82270  0.17080  0.95600  Biso   1.000  C
  C67      1.0000 0.82270  0.82920  0.04400  Biso   1.000  C
  C68      1.0000 0.17730  0.17080  0.04400  Biso   1.000  C
  C69      1.0000 0.17730  0.32920  0.45600  Biso   1.000  C
  C70      1.0000 0.82270  0.67080  0.45600  Biso   1.000  C
  C71      1.0000 0.82270  0.32920  0.54400  Biso   1.000  C
  C72      1.0000 0.17730  0.67080  0.54400  Biso   1.000  C
  C73      1.0000 0.67730  0.82920  0.45600  Biso   1.000  C
  C74      1.0000 0.32270  0.17080  0.45600  Biso   1.000  C
  C75      1.0000 0.32270  0.82920  0.54400  Biso   1.000  C
  C76      1.0000 0.67730  0.17080  0.54400  Biso   1.000  C
  C77      1.0000 0.67730  0.32920  0.95600  Biso   1.000  C
  C78      1.0000 0.32270  0.67080  0.95600  Biso   1.000  C
  C79      1.0000 0.32270  0.32920  0.04400  Biso   1.000  C
  C80      1.0000 0.67730  0.67080  0.04400  Biso   1.000  C
  H81      1.0000 0.13310  0.79250  0.95560  Biso   1.000  H
  H82      1.0000 0.86690  0.20750  0.95560  Biso   1.000  H
  H83      1.0000 0.86690  0.79250  0.04440  Biso   1.000  H
  H84      1.0000 0.13310  0.20750  0.04440  Biso   1.000  H
  H85      1.0000 0.13310  0.29250  0.45560  Biso   1.000  H
  H86      1.0000 0.86690  0.70750  0.45560  Biso   1.000  H
  H87      1.0000 0.86690  0.29250  0.54440  Biso   1.000  H
  H88      1.0000 0.13310  0.70750  0.54440  Biso   1.000  H
  H89      1.0000 0.63310  0.79250  0.45560  Biso   1.000  H
  H90      1.0000 0.36690  0.20750  0.45560  Biso   1.000  H
  H91      1.0000 0.36690  0.79250  0.54440  Biso   1.000  H
  H92      1.0000 0.63310  0.20750  0.54440  Biso   1.000  H
  H93      1.0000 0.63310  0.29250  0.95560  Biso   1.000  H
  H94      1.0000 0.36690  0.70750  0.95560  Biso   1.000  H
  H95      1.0000 0.36690  0.29250  0.04440  Biso   1.000  H
  H96      1.0000 0.63310  0.70750  0.04440  Biso   1.000  H
  H97      1.0000 0.26340  0.82060  0.95630  Biso   1.000  H
  H98      1.0000 0.73660  0.17940  0.95630  Biso   1.000  H
  H99      1.0000 0.73660  0.82060  0.04370  Biso   1.000  H
  H100     1.0000 0.26340  0.17940  0.04370  Biso   1.000  H
  H101     1.0000 0.26340  0.32060  0.45630  Biso   1.000  H
  H102     1.0000 0.73660  0.67940  0.45630  Biso   1.000  H
  H103     1.0000 0.73660  0.32060  0.54370  Biso   1.000  H
  H104     1.0000 0.26340  0.67940  0.54370  Biso   1.000  H
  H105     1.0000 0.76340  0.82060  0.45630  Biso   1.000  H
  H106     1.0000 0.23660  0.17940  0.45630  Biso   1.000  H
  H107     1.0000 0.23660  0.82060  0.54370  Biso   1.000  H
  H108     1.0000 0.76340  0.17940  0.54370  Biso   1.000  H
  H109     1.0000 0.76340  0.32060  0.95630  Biso   1.000  H
  H110     1.0000 0.23660  0.67940  0.95630  Biso   1.000  H
  H111     1.0000 0.23660  0.32060  0.04370  Biso   1.000  H
  H112     1.0000 0.76340  0.67940  0.04370  Biso   1.000  H
  N1       1.0000 0.01810  0.78710  0.83833  Biso   1.000  N
  N2       1.0000 0.98190  0.21290  0.83833  Biso   1.000  N
  N3       1.0000 0.98190  0.78710  0.16167  Biso   1.000  N
  N4       1.0000 0.01810  0.21290  0.16167  Biso   1.000  N
  N5       1.0000 0.01810  0.28710  0.33833  Biso   1.000  N
  N6       1.0000 0.98190  0.71290  0.33833  Biso   1.000  N
  N7       1.0000 0.98190  0.28710  0.66167  Biso   1.000  N
  N8       1.0000 0.01810  0.71290  0.66167  Biso   1.000  N
  N9       1.0000 0.51810  0.78710  0.33833  Biso   1.000  N
  N10      1.0000 0.48190  0.21290  0.33833  Biso   1.000  N
  N11      1.0000 0.48190  0.78710  0.66167  Biso   1.000  N
  N12      1.0000 0.51810  0.21290  0.66167  Biso   1.000  N
  N13      1.0000 0.51810  0.28710  0.83833  Biso   1.000  N
  N14      1.0000 0.48190  0.71290  0.83833  Biso   1.000  N
  N15      1.0000 0.48190  0.28710  0.16167  Biso   1.000  N
  N16      1.0000 0.51810  0.71290  0.16167  Biso   1.000  N
  C81      1.0000 0.93370  0.78680  0.80645  Biso   1.000  C
  C82      1.0000 0.06630  0.21320  0.80645  Biso   1.000  C
  C83      1.0000 0.06630  0.78680  0.19355  Biso   1.000  C
  C84      1.0000 0.93370  0.21320  0.19355  Biso   1.000  C
  C85      1.0000 0.93370  0.28680  0.30645  Biso   1.000  C
  C86      1.0000 0.06630  0.71320  0.30645  Biso   1.000  C
  C87      1.0000 0.06630  0.28680  0.69355  Biso   1.000  C
  C88      1.0000 0.93370  0.71320  0.69355  Biso   1.000  C
  C89      1.0000 0.43370  0.78680  0.30645  Biso   1.000  C
  C90      1.0000 0.56630  0.21320  0.30645  Biso   1.000  C
  C91      1.0000 0.56630  0.78680  0.69355  Biso   1.000  C
  C92      1.0000 0.43370  0.21320  0.69355  Biso   1.000  C
  C93      1.0000 0.43370  0.28680  0.80645  Biso   1.000  C
  C94      1.0000 0.56630  0.71320  0.80645  Biso   1.000  C
  C95      1.0000 0.56630  0.28680  0.19355  Biso   1.000  C
  C96      1.0000 0.43370  0.71320  0.19355  Biso   1.000  C
  O89      1.0000 0.90720  0.83429  0.78731  Biso   1.000  O
  O90      1.0000 0.09280  0.16571  0.78731  Biso   1.000  O
  O91      1.0000 0.09280  0.83429  0.21269  Biso   1.000  O
  O92      1.0000 0.90720  0.16571  0.21269  Biso   1.000  O
  O93      1.0000 0.90720  0.33429  0.28731  Biso   1.000  O
  O94      1.0000 0.09280  0.66571  0.28731  Biso   1.000  O
  O95      1.0000 0.09280  0.33429  0.71269  Biso   1.000  O
  O96      1.0000 0.90720  0.66571  0.71269  Biso   1.000  O
  O97      1.0000 0.40720  0.83429  0.28731  Biso   1.000  O
  O98      1.0000 0.59280  0.16571  0.28731  Biso   1.000  O
  O99      1.0000 0.59280  0.83429  0.71269  Biso   1.000  O
  O100     1.0000 0.40720  0.16571  0.71269  Biso   1.000  O
  O101     1.0000 0.40720  0.33429  0.78731  Biso   1.000  O
  O102     1.0000 0.59280  0.66571  0.78731  Biso   1.000  O
  O103     1.0000 0.59280  0.33429  0.21269  Biso   1.000  O
  O104     1.0000 0.40720  0.66571  0.21269  Biso   1.000  O
  N17      1.0000 0.87610  0.73710  0.79655  Biso   1.000  N
  N18      1.0000 0.12390  0.26290  0.79655  Biso   1.000  N
  N19      1.0000 0.12390  0.73710  0.20345  Biso   1.000  N
  N20      1.0000 0.87610  0.26290  0.20345  Biso   1.000  N
  N21      1.0000 0.87610  0.23710  0.29655  Biso   1.000  N
  N22      1.0000 0.12390  0.76290  0.29655  Biso   1.000  N
  N23      1.0000 0.12390  0.23710  0.70345  Biso   1.000  N
  N24      1.0000 0.87610  0.76290  0.70345  Biso   1.000  N
  N25      1.0000 0.37610  0.73710  0.29655  Biso   1.000  N
  N26      1.0000 0.62390  0.26290  0.29655  Biso   1.000  N
  N27      1.0000 0.62390  0.73710  0.70345  Biso   1.000  N
  N28      1.0000 0.37610  0.26290  0.70345  Biso   1.000  N
  N29      1.0000 0.37610  0.23710  0.79655  Biso   1.000  N
  N30      1.0000 0.62390  0.76290  0.79655  Biso   1.000  N
  N31      1.0000 0.62390  0.23710  0.20345  Biso   1.000  N
  N32      1.0000 0.37610  0.76290  0.20345  Biso   1.000  N
  C97      1.0000 0.90440  0.68650  0.81690  Biso   1.000  C
  C98      1.0000 0.09560  0.31350  0.81690  Biso   1.000  C
  C99      1.0000 0.09560  0.68650  0.18310  Biso   1.000  C
  C100     1.0000 0.90440  0.31350  0.18310  Biso   1.000  C
  C101     1.0000 0.90440  0.18650  0.31690  Biso   1.000  C
  C102     1.0000 0.09560  0.81350  0.31690  Biso   1.000  C
  C103     1.0000 0.09560  0.18650  0.68310  Biso   1.000  C
  C104     1.0000 0.90440  0.81350  0.68310  Biso   1.000  C
  C105     1.0000 0.40440  0.68650  0.31690  Biso   1.000  C
  C106     1.0000 0.59560  0.31350  0.31690  Biso   1.000  C
  C107     1.0000 0.59560  0.68650  0.68310  Biso   1.000  C
  C108     1.0000 0.40440  0.31350  0.68310  Biso   1.000  C
  C109     1.0000 0.40440  0.18650  0.81690  Biso   1.000  C
  C110     1.0000 0.59560  0.81350  0.81690  Biso   1.000  C
  C111     1.0000 0.59560  0.18650  0.18310  Biso   1.000  C
  C112     1.0000 0.40440  0.81350  0.18310  Biso   1.000  C
  N33      1.0000 0.84320  0.63900  0.80750  Biso   1.000  N
  N34      1.0000 0.15680  0.36100  0.80750  Biso   1.000  N
  N35      1.0000 0.15680  0.63900  0.19250  Biso   1.000  N
  N36      1.0000 0.84320  0.36100  0.19250  Biso   1.000  N
  N37      1.0000 0.84320  0.13900  0.30750  Biso   1.000  N
  N38      1.0000 0.15680  0.86100  0.30750  Biso   1.000  N
  N39      1.0000 0.15680  0.13900  0.69250  Biso   1.000  N
  N40      1.0000 0.84320  0.86100  0.69250  Biso   1.000  N
  N41      1.0000 0.34320  0.63900  0.30750  Biso   1.000  N
  N42      1.0000 0.65680  0.36100  0.30750  Biso   1.000  N
  N43      1.0000 0.65680  0.63900  0.69250  Biso   1.000  N
  N44      1.0000 0.34320  0.36100  0.69250  Biso   1.000  N
  N45      1.0000 0.34320  0.13900  0.80750  Biso   1.000  N
  N46      1.0000 0.65680  0.86100  0.80750  Biso   1.000  N
  N47      1.0000 0.65680  0.13900  0.19250  Biso   1.000  N
  N48      1.0000 0.34320  0.86100  0.19250  Biso   1.000  N
  H113     1.0000 0.78630  0.64040  0.78880  Biso   1.000  H
  H114     1.0000 0.21370  0.35960  0.78880  Biso   1.000  H
  H115     1.0000 0.21370  0.64040  0.21120  Biso   1.000  H
  H116     1.0000 0.78630  0.35960  0.21120  Biso   1.000  H
  H117     1.0000 0.78630  0.14040  0.28880  Biso   1.000  H
  H118     1.0000 0.21370  0.85960  0.28880  Biso   1.000  H
  H119     1.0000 0.21370  0.14040  0.71120  Biso   1.000  H
  H120     1.0000 0.78630  0.85960  0.71120  Biso   1.000  H
  H121     1.0000 0.28630  0.64040  0.28880  Biso   1.000  H
  H122     1.0000 0.71370  0.35960  0.28880  Biso   1.000  H
  H123     1.0000 0.71370  0.64040  0.71120  Biso   1.000  H
  H124     1.0000 0.28630  0.35960  0.71120  Biso   1.000  H
  H125     1.0000 0.28630  0.14040  0.78880  Biso   1.000  H
  H126     1.0000 0.71370  0.85960  0.78880  Biso   1.000  H
  H127     1.0000 0.71370  0.14040  0.21120  Biso   1.000  H
  H128     1.0000 0.28630  0.85960  0.21120  Biso   1.000  H
  H129     1.0000 0.85990  0.60640  0.82010  Biso   1.000  H
  H130     1.0000 0.14010  0.39360  0.82010  Biso   1.000  H
  H131     1.0000 0.14010  0.60640  0.17990  Biso   1.000  H
  H132     1.0000 0.85990  0.39360  0.17990  Biso   1.000  H
  H133     1.0000 0.85990  0.10640  0.32010  Biso   1.000  H
  H134     1.0000 0.14010  0.89360  0.32010  Biso   1.000  H
  H135     1.0000 0.14010  0.10640  0.67990  Biso   1.000  H
  H136     1.0000 0.85990  0.89360  0.67990  Biso   1.000  H
  H137     1.0000 0.35990  0.60640  0.32010  Biso   1.000  H
  H138     1.0000 0.64010  0.39360  0.32010  Biso   1.000  H
  H139     1.0000 0.64010  0.60640  0.67990  Biso   1.000  H
  H140     1.0000 0.35990  0.39360  0.67990  Biso   1.000  H
  H141     1.0000 0.35990  0.10640  0.82010  Biso   1.000  H
  H142     1.0000 0.64010  0.89360  0.82010  Biso   1.000  H
  H143     1.0000 0.64010  0.10640  0.17990  Biso   1.000  H
  H144     1.0000 0.35990  0.89360  0.17990  Biso   1.000  H
  C113     1.0000 0.99720  0.68520  0.84630  Biso   1.000  C
  C114     1.0000 0.00280  0.31480  0.84630  Biso   1.000  C
  C115     1.0000 0.00280  0.68520  0.15370  Biso   1.000  C
  C116     1.0000 0.99720  0.31480  0.15370  Biso   1.000  C
  C117     1.0000 0.99720  0.18520  0.34630  Biso   1.000  C
  C118     1.0000 0.00280  0.81480  0.34630  Biso   1.000  C
  C119     1.0000 0.00280  0.18520  0.65370  Biso   1.000  C
  C120     1.0000 0.99720  0.81480  0.65370  Biso   1.000  C
  C121     1.0000 0.49720  0.68520  0.34630  Biso   1.000  C
  C122     1.0000 0.50280  0.31480  0.34630  Biso   1.000  C
  C123     1.0000 0.50280  0.68520  0.65370  Biso   1.000  C
  C124     1.0000 0.49720  0.31480  0.65370  Biso   1.000  C
  C125     1.0000 0.49720  0.18520  0.84630  Biso   1.000  C
  C126     1.0000 0.50280  0.81480  0.84630  Biso   1.000  C
  C127     1.0000 0.50280  0.18520  0.15370  Biso   1.000  C
  C128     1.0000 0.49720  0.81480  0.15370  Biso   1.000  C
  H145     1.0000 0.01970  0.65010  0.85930  Biso   1.000  H
  H146     1.0000 0.98030  0.34990  0.85930  Biso   1.000  H
  H147     1.0000 0.98030  0.65010  0.14070  Biso   1.000  H
  H148     1.0000 0.01970  0.34990  0.14070  Biso   1.000  H
  H149     1.0000 0.01970  0.15010  0.35930  Biso   1.000  H
  H150     1.0000 0.98030  0.84990  0.35930  Biso   1.000  H
  H151     1.0000 0.98030  0.15010  0.64070  Biso   1.000  H
  H152     1.0000 0.01970  0.84990  0.64070  Biso   1.000  H
  H153     1.0000 0.51970  0.65010  0.35930  Biso   1.000  H
  H154     1.0000 0.48030  0.34990  0.35930  Biso   1.000  H
  H155     1.0000 0.48030  0.65010  0.64070  Biso   1.000  H
  H156     1.0000 0.51970  0.34990  0.64070  Biso   1.000  H
  H157     1.0000 0.51970  0.15010  0.85930  Biso   1.000  H
  H158     1.0000 0.48030  0.84990  0.85930  Biso   1.000  H
  H159     1.0000 0.48030  0.15010  0.14070  Biso   1.000  H
  H160     1.0000 0.51970  0.84990  0.14070  Biso   1.000  H
  C129     1.0000 0.05640  0.73700  0.85620  Biso   1.000  C
  C130     1.0000 0.94360  0.26300  0.85620  Biso   1.000  C
  C131     1.0000 0.94360  0.73700  0.14380  Biso   1.000  C
  C132     1.0000 0.05640  0.26300  0.14380  Biso   1.000  C
  C133     1.0000 0.05640  0.23700  0.35620  Biso   1.000  C
  C134     1.0000 0.94360  0.76300  0.35620  Biso   1.000  C
  C135     1.0000 0.94360  0.23700  0.64380  Biso   1.000  C
  C136     1.0000 0.05640  0.76300  0.64380  Biso   1.000  C
  C137     1.0000 0.55640  0.73700  0.35620  Biso   1.000  C
  C138     1.0000 0.44360  0.26300  0.35620  Biso   1.000  C
  C139     1.0000 0.44360  0.73700  0.64380  Biso   1.000  C
  C140     1.0000 0.55640  0.26300  0.64380  Biso   1.000  C
  C141     1.0000 0.55640  0.23700  0.85620  Biso   1.000  C
  C142     1.0000 0.44360  0.76300  0.85620  Biso   1.000  C
  C143     1.0000 0.44360  0.23700  0.14380  Biso   1.000  C
  C144     1.0000 0.55640  0.76300  0.14380  Biso   1.000  C
  H161     1.0000 0.12180  0.73700  0.87500  Biso   1.000  H
  H162     1.0000 0.87820  0.26300  0.87500  Biso   1.000  H
  H163     1.0000 0.87820  0.73700  0.12500  Biso   1.000  H
  H164     1.0000 0.12180  0.26300  0.12500  Biso   1.000  H
  H165     1.0000 0.12180  0.23700  0.37500  Biso   1.000  H
  H166     1.0000 0.87820  0.76300  0.37500  Biso   1.000  H
  H167     1.0000 0.87820  0.23700  0.62500  Biso   1.000  H
  H168     1.0000 0.12180  0.76300  0.62500  Biso   1.000  H
  H169     1.0000 0.62180  0.73700  0.37500  Biso   1.000  H
  H170     1.0000 0.37820  0.26300  0.37500  Biso   1.000  H
  H171     1.0000 0.37820  0.73700  0.62500  Biso   1.000  H
  H172     1.0000 0.62180  0.26300  0.62500  Biso   1.000  H
  H173     1.0000 0.62180  0.23700  0.87500  Biso   1.000  H
  H174     1.0000 0.37820  0.76300  0.87500  Biso   1.000  H
  H175     1.0000 0.37820  0.23700  0.12500  Biso   1.000  H
  H176     1.0000 0.62180  0.76300  0.12500  Biso   1.000  H
  Cl1      1.0000 0.68180  0.01480  0.82790  Biso   1.000  Cl
  Cl2      1.0000 0.31820  0.98520  0.82790  Biso   1.000  Cl
  Cl3      1.0000 0.31820  0.01480  0.17210  Biso   1.000  Cl
  Cl4      1.0000 0.68180  0.98520  0.17210  Biso   1.000  Cl
  Cl5      1.0000 0.68180  0.51480  0.32790  Biso   1.000  Cl
  Cl6      1.0000 0.31820  0.48520  0.32790  Biso   1.000  Cl
  Cl7      1.0000 0.31820  0.51480  0.67210  Biso   1.000  Cl
  Cl8      1.0000 0.68180  0.48520  0.67210  Biso   1.000  Cl
  Cl9      1.0000 0.18180  0.01480  0.32790  Biso   1.000  Cl
  Cl10     1.0000 0.81820  0.98520  0.32790  Biso   1.000  Cl
  Cl11     1.0000 0.81820  0.01480  0.67210  Biso   1.000  Cl
  Cl12     1.0000 0.18180  0.98520  0.67210  Biso   1.000  Cl
  Cl13     1.0000 0.18180  0.51480  0.82790  Biso   1.000  Cl
  Cl14     1.0000 0.81820  0.48520  0.82790  Biso   1.000  Cl
  Cl15     1.0000 0.81820  0.51480  0.17210  Biso   1.000  Cl
  Cl16     1.0000 0.18180  0.48520  0.17210  Biso   1.000  Cl
  O105     1.0000 0.56940  0.99860  0.80900  Biso   1.000  O
  O106     1.0000 0.43060  0.00140  0.80900  Biso   1.000  O
  O107     1.0000 0.43060  0.99860  0.19100  Biso   1.000  O
  O108     1.0000 0.56940  0.00140  0.19100  Biso   1.000  O
  O109     1.0000 0.56940  0.49860  0.30900  Biso   1.000  O
  O110     1.0000 0.43060  0.50140  0.30900  Biso   1.000  O
  O111     1.0000 0.43060  0.49860  0.69100  Biso   1.000  O
  O112     1.0000 0.56940  0.50140  0.69100  Biso   1.000  O
  O113     1.0000 0.06940  0.99860  0.30900  Biso   1.000  O
  O114     1.0000 0.93060  0.00140  0.30900  Biso   1.000  O
  O115     1.0000 0.93060  0.99860  0.69100  Biso   1.000  O
  O116     1.0000 0.06940  0.00140  0.69100  Biso   1.000  O
  O117     1.0000 0.06940  0.49860  0.80900  Biso   1.000  O
  O118     1.0000 0.93060  0.50140  0.80900  Biso   1.000  O
  O119     1.0000 0.93060  0.49860  0.19100  Biso   1.000  O
  O120     1.0000 0.06940  0.50140  0.19100  Biso   1.000  O
  O121     1.0000 0.77760  0.98860  0.80410  Biso   1.000  O
  O122     1.0000 0.22240  0.01140  0.80410  Biso   1.000  O
  O123     1.0000 0.22240  0.98860  0.19590  Biso   1.000  O
  O124     1.0000 0.77760  0.01140  0.19590  Biso   1.000  O
  O125     1.0000 0.77760  0.48860  0.30410  Biso   1.000  O
  O126     1.0000 0.22240  0.51140  0.30410  Biso   1.000  O
  O127     1.0000 0.22240  0.48860  0.69590  Biso   1.000  O
  O128     1.0000 0.77760  0.51140  0.69590  Biso   1.000  O
  O129     1.0000 0.27760  0.98860  0.30410  Biso   1.000  O
  O130     1.0000 0.72240  0.01140  0.30410  Biso   1.000  O
  O131     1.0000 0.72240  0.98860  0.69590  Biso   1.000  O
  O132     1.0000 0.27760  0.01140  0.69590  Biso   1.000  O
  O133     1.0000 0.27760  0.48860  0.80410  Biso   1.000  O
  O134     1.0000 0.72240  0.51140  0.80410  Biso   1.000  O
  O135     1.0000 0.72240  0.48860  0.19590  Biso   1.000  O
  O136     1.0000 0.27760  0.51140  0.19590  Biso   1.000  O
  O137     1.0000 0.69410  0.07680  0.82620  Biso   1.000  O
  O138     1.0000 0.30590  0.92320  0.82620  Biso   1.000  O
  O139     1.0000 0.30590  0.07680  0.17380  Biso   1.000  O
  O140     1.0000 0.69410  0.92320  0.17380  Biso   1.000  O
  O141     1.0000 0.69410  0.57680  0.32620  Biso   1.000  O
  O142     1.0000 0.30590  0.42320  0.32620  Biso   1.000  O
  O143     1.0000 0.30590  0.57680  0.67380  Biso   1.000  O
  O144     1.0000 0.69410  0.42320  0.67380  Biso   1.000  O
  O145     1.0000 0.19410  0.07680  0.32620  Biso   1.000  O
  O146     1.0000 0.80590  0.92320  0.32620  Biso   1.000  O
  O147     1.0000 0.80590  0.07680  0.67380  Biso   1.000  O
  O148     1.0000 0.19410  0.92320  0.67380  Biso   1.000  O
  O149     1.0000 0.19410  0.57680  0.82620  Biso   1.000  O
  O150     1.0000 0.80590  0.42320  0.82620  Biso   1.000  O
  O151     1.0000 0.80590  0.57680  0.17380  Biso   1.000  O
  O152     1.0000 0.19410  0.42320  0.17380  Biso   1.000  O
  O153     1.0000 0.68480  0.99490  0.87080  Biso   1.000  O
  O154     1.0000 0.31520  0.00510  0.87080  Biso   1.000  O
  O155     1.0000 0.31520  0.99490  0.12920  Biso   1.000  O
  O156     1.0000 0.68480  0.00510  0.12920  Biso   1.000  O
  O157     1.0000 0.68480  0.49490  0.37080  Biso   1.000  O
  O158     1.0000 0.31520  0.50510  0.37080  Biso   1.000  O
  O159     1.0000 0.31520  0.49490  0.62920  Biso   1.000  O
  O160     1.0000 0.68480  0.50510  0.62920  Biso   1.000  O
  O161     1.0000 0.18480  0.99490  0.37080  Biso   1.000  O
  O162     1.0000 0.81520  0.00510  0.37080  Biso   1.000  O
  O163     1.0000 0.81520  0.99490  0.62920  Biso   1.000  O
  O164     1.0000 0.18480  0.00510  0.62920  Biso   1.000  O
  O165     1.0000 0.18480  0.49490  0.87080  Biso   1.000  O
  O166     1.0000 0.81520  0.50510  0.87080  Biso   1.000  O
  O167     1.0000 0.81520  0.49490  0.12920  Biso   1.000  O
  O168     1.0000 0.18480  0.50510  0.12920  Biso   1.000  O
  O169     1.0000 0.75000  0.98720  0.91380  Biso   1.000  O
  O170     1.0000 0.25000  0.01280  0.91380  Biso   1.000  O
  O171     1.0000 0.25000  0.98720  0.08620  Biso   1.000  O
  O172     1.0000 0.75000  0.01280  0.08620  Biso   1.000  O
  O173     1.0000 0.75000  0.48720  0.41380  Biso   1.000  O
  O174     1.0000 0.25000  0.51280  0.41380  Biso   1.000  O
  O175     1.0000 0.25000  0.48720  0.58620  Biso   1.000  O
  O176     1.0000 0.75000  0.51280  0.58620  Biso   1.000  O
  O177     1.0000 0.25000  0.98720  0.41380  Biso   1.000  O
  O178     1.0000 0.75000  0.01280  0.41380  Biso   1.000  O
  O179     1.0000 0.75000  0.98720  0.58620  Biso   1.000  O
  O180     1.0000 0.25000  0.01280  0.58620  Biso   1.000  O
  O181     1.0000 0.25000  0.48720  0.91380  Biso   1.000  O
  O182     1.0000 0.75000  0.51280  0.91380  Biso   1.000  O
  O183     1.0000 0.75000  0.48720  0.08620  Biso   1.000  O
  O184     1.0000 0.25000  0.51280  0.08620  Biso   1.000  O
  Cl17     1.0000 0.25000  0.25000  0.25000  Biso   1.000  Cl
  Cl18     1.0000 0.75000  0.75000  0.25000  Biso   1.000  Cl
  Cl19     1.0000 0.75000  0.25000  0.75000  Biso   1.000  Cl
  Cl20     1.0000 0.25000  0.75000  0.75000  Biso   1.000  Cl
  O185     1.0000 0.14010  0.22060  0.25370  Biso   1.000  O
  O186     1.0000 0.85990  0.77940  0.25370  Biso   1.000  O
  O187     1.0000 0.85990  0.22060  0.74630  Biso   1.000  O
  O188     1.0000 0.14010  0.77940  0.74630  Biso   1.000  O
  O189     1.0000 0.14010  0.72060  0.75370  Biso   1.000  O
  O190     1.0000 0.85990  0.27940  0.75370  Biso   1.000  O
  O191     1.0000 0.85990  0.72060  0.24630  Biso   1.000  O
  O192     1.0000 0.14010  0.27940  0.24630  Biso   1.000  O
  O193     1.0000 0.64010  0.22060  0.75370  Biso   1.000  O
  O194     1.0000 0.35990  0.77940  0.75370  Biso   1.000  O
  O195     1.0000 0.35990  0.22060  0.24630  Biso   1.000  O
  O196     1.0000 0.64010  0.77940  0.24630  Biso   1.000  O
  O197     1.0000 0.64010  0.72060  0.25370  Biso   1.000  O
  O198     1.0000 0.35990  0.27940  0.25370  Biso   1.000  O
  O199     1.0000 0.35990  0.72060  0.74630  Biso   1.000  O
  O200     1.0000 0.64010  0.27940  0.74630  Biso   1.000  O
  O201     1.0000 0.26200  0.27750  0.28770  Biso   1.000  O
  O202     1.0000 0.73800  0.72250  0.28770  Biso   1.000  O
  O203     1.0000 0.73800  0.27750  0.71230  Biso   1.000  O
  O204     1.0000 0.26200  0.72250  0.71230  Biso   1.000  O
  O205     1.0000 0.26200  0.77750  0.78770  Biso   1.000  O
  O206     1.0000 0.73800  0.22250  0.78770  Biso   1.000  O
  O207     1.0000 0.73800  0.77750  0.21230  Biso   1.000  O
  O208     1.0000 0.26200  0.22250  0.21230  Biso   1.000  O
  O209     1.0000 0.76200  0.27750  0.78770  Biso   1.000  O
  O210     1.0000 0.23800  0.72250  0.78770  Biso   1.000  O
  O211     1.0000 0.23800  0.27750  0.21230  Biso   1.000  O
  O212     1.0000 0.76200  0.72250  0.21230  Biso   1.000  O
  O213     1.0000 0.76200  0.77750  0.28770  Biso   1.000  O
  O214     1.0000 0.23800  0.22250  0.28770  Biso   1.000  O
  O215     1.0000 0.23800  0.77750  0.71230  Biso   1.000  O
  O216     1.0000 0.76200  0.22250  0.71230  Biso   1.000  O
  Cl21     1.0000 0.22370  0.26760  0.92732  Biso   1.000  Cl
  Cl22     1.0000 0.77630  0.73240  0.92732  Biso   1.000  Cl
  Cl23     1.0000 0.77630  0.26760  0.07268  Biso   1.000  Cl
  Cl24     1.0000 0.22370  0.73240  0.07268  Biso   1.000  Cl
  Cl25     1.0000 0.22370  0.76760  0.42732  Biso   1.000  Cl
  Cl26     1.0000 0.77630  0.23240  0.42732  Biso   1.000  Cl
  Cl27     1.0000 0.77630  0.76760  0.57268  Biso   1.000  Cl
  Cl28     1.0000 0.22370  0.23240  0.57268  Biso   1.000  Cl
  Cl29     1.0000 0.72370  0.26760  0.42732  Biso   1.000  Cl
  Cl30     1.0000 0.27630  0.73240  0.42732  Biso   1.000  Cl
  Cl31     1.0000 0.27630  0.26760  0.57268  Biso   1.000  Cl
  Cl32     1.0000 0.72370  0.73240  0.57268  Biso   1.000  Cl
  Cl33     1.0000 0.72370  0.76760  0.92732  Biso   1.000  Cl
  Cl34     1.0000 0.27630  0.23240  0.92732  Biso   1.000  Cl
  Cl35     1.0000 0.27630  0.76760  0.07268  Biso   1.000  Cl
  Cl36     1.0000 0.72370  0.23240  0.07268  Biso   1.000  Cl
  O217     1.0000 0.22460  0.23220  0.89160  Biso   1.000  O
  O218     1.0000 0.77540  0.76780  0.89160  Biso   1.000  O
  O219     1.0000 0.77540  0.23220  0.10840  Biso   1.000  O
  O220     1.0000 0.22460  0.76780  0.10840  Biso   1.000  O
  O221     1.0000 0.22460  0.73220  0.39160  Biso   1.000  O
  O222     1.0000 0.77540  0.26780  0.39160  Biso   1.000  O
  O223     1.0000 0.77540  0.73220  0.60840  Biso   1.000  O
  O224     1.0000 0.22460  0.26780  0.60840  Biso   1.000  O
  O225     1.0000 0.72460  0.23220  0.39160  Biso   1.000  O
  O226     1.0000 0.27540  0.76780  0.39160  Biso   1.000  O
  O227     1.0000 0.27540  0.23220  0.60840  Biso   1.000  O
  O228     1.0000 0.72460  0.76780  0.60840  Biso   1.000  O
  O229     1.0000 0.72460  0.73220  0.89160  Biso   1.000  O
  O230     1.0000 0.27540  0.26780  0.89160  Biso   1.000  O
  O231     1.0000 0.27540  0.73220  0.10840  Biso   1.000  O
  O232     1.0000 0.72460  0.26780  0.10840  Biso   1.000  O
  O233     1.0000 0.15100  0.24910  0.95210  Biso   1.000  O
  O234     1.0000 0.84900  0.75090  0.95210  Biso   1.000  O
  O235     1.0000 0.84900  0.24910  0.04790  Biso   1.000  O
  O236     1.0000 0.15100  0.75090  0.04790  Biso   1.000  O
  O237     1.0000 0.15100  0.74910  0.45210  Biso   1.000  O
  O238     1.0000 0.84900  0.25090  0.45210  Biso   1.000  O
  O239     1.0000 0.84900  0.74910  0.54790  Biso   1.000  O
  O240     1.0000 0.15100  0.25090  0.54790  Biso   1.000  O
  O241     1.0000 0.65100  0.24910  0.45210  Biso   1.000  O
  O242     1.0000 0.34900  0.75090  0.45210  Biso   1.000  O
  O243     1.0000 0.34900  0.24910  0.54790  Biso   1.000  O
  O244     1.0000 0.65100  0.75090  0.54790  Biso   1.000  O
  O245     1.0000 0.65100  0.74910  0.95210  Biso   1.000  O
  O246     1.0000 0.34900  0.25090  0.95210  Biso   1.000  O
  O247     1.0000 0.34900  0.74910  0.04790  Biso   1.000  O
  O248     1.0000 0.65100  0.25090  0.04790  Biso   1.000  O
  O249     1.0000 0.20800  0.33730  0.93130  Biso   1.000  O
  O250     1.0000 0.79200  0.66270  0.93130  Biso   1.000  O
  O251     1.0000 0.79200  0.33730  0.06870  Biso   1.000  O
  O252     1.0000 0.20800  0.66270  0.06870  Biso   1.000  O
  O253     1.0000 0.20800  0.83730  0.43130  Biso   1.000  O
  O254     1.0000 0.79200  0.16270  0.43130  Biso   1.000  O
  O255     1.0000 0.79200  0.83730  0.56870  Biso   1.000  O
  O256     1.0000 0.20800  0.16270  0.56870  Biso   1.000  O
  O257     1.0000 0.70800  0.33730  0.43130  Biso   1.000  O
  O258     1.0000 0.29200  0.66270  0.43130  Biso   1.000  O
  O259     1.0000 0.29200  0.33730  0.56870  Biso   1.000  O
  O260     1.0000 0.70800  0.66270  0.56870  Biso   1.000  O
  O261     1.0000 0.70800  0.83730  0.93130  Biso   1.000  O
  O262     1.0000 0.29200  0.16270  0.93130  Biso   1.000  O
  O263     1.0000 0.29200  0.83730  0.06870  Biso   1.000  O
  O264     1.0000 0.70800  0.16270  0.06870  Biso   1.000  O
  Cl37     1.0000 0.64310  0.99350  0.90120  Biso   1.000  Cl
  Cl38     1.0000 0.35690  0.00650  0.90120  Biso   1.000  Cl
  Cl39     1.0000 0.35690  0.99350  0.09880  Biso   1.000  Cl
  Cl40     1.0000 0.64310  0.00650  0.09880  Biso   1.000  Cl
  Cl41     1.0000 0.64310  0.49350  0.40120  Biso   1.000  Cl
  Cl42     1.0000 0.35690  0.50650  0.40120  Biso   1.000  Cl
  Cl43     1.0000 0.35690  0.49350  0.59880  Biso   1.000  Cl
  Cl44     1.0000 0.64310  0.50650  0.59880  Biso   1.000  Cl
  Cl45     1.0000 0.14310  0.99350  0.40120  Biso   1.000  Cl
  Cl46     1.0000 0.85690  0.00650  0.40120  Biso   1.000  Cl
  Cl47     1.0000 0.85690  0.99350  0.59880  Biso   1.000  Cl
  Cl48     1.0000 0.14310  0.00650  0.59880  Biso   1.000  Cl
  Cl49     1.0000 0.14310  0.49350  0.90120  Biso   1.000  Cl
  Cl50     1.0000 0.85690  0.50650  0.90120  Biso   1.000  Cl
  Cl51     1.0000 0.85690  0.49350  0.09880  Biso   1.000  Cl
  Cl52     1.0000 0.14310  0.50650  0.09880  Biso   1.000  Cl
  O265     1.0000 0.59700  0.04920  0.88910  Biso   1.000  O
  O266     1.0000 0.40300  0.95080  0.88910  Biso   1.000  O
  O267     1.0000 0.40300  0.04920  0.11090  Biso   1.000  O
  O268     1.0000 0.59700  0.95080  0.11090  Biso   1.000  O
  O269     1.0000 0.59700  0.54920  0.38910  Biso   1.000  O
  O270     1.0000 0.40300  0.45080  0.38910  Biso   1.000  O
  O271     1.0000 0.40300  0.54920  0.61090  Biso   1.000  O
  O272     1.0000 0.59700  0.45080  0.61090  Biso   1.000  O
  O273     1.0000 0.09700  0.04920  0.38910  Biso   1.000  O
  O274     1.0000 0.90300  0.95080  0.38910  Biso   1.000  O
  O275     1.0000 0.90300  0.04920  0.61090  Biso   1.000  O
  O276     1.0000 0.09700  0.95080  0.61090  Biso   1.000  O
  O277     1.0000 0.09700  0.54920  0.88910  Biso   1.000  O
  O278     1.0000 0.90300  0.45080  0.88910  Biso   1.000  O
  O279     1.0000 0.90300  0.54920  0.11090  Biso   1.000  O
  O280     1.0000 0.09700  0.45080  0.11090  Biso   1.000  O
  O281     1.0000 0.66080  0.99130  0.94620  Biso   1.000  O
  O282     1.0000 0.33920  0.00870  0.94620  Biso   1.000  O
  O283     1.0000 0.33920  0.99130  0.05380  Biso   1.000  O
  O284     1.0000 0.66080  0.00870  0.05380  Biso   1.000  O
  O285     1.0000 0.66080  0.49130  0.44620  Biso   1.000  O
  O286     1.0000 0.33920  0.50870  0.44620  Biso   1.000  O
  O287     1.0000 0.33920  0.49130  0.55380  Biso   1.000  O
  O288     1.0000 0.66080  0.50870  0.55380  Biso   1.000  O
  O289     1.0000 0.16080  0.99130  0.44620  Biso   1.000  O
  O290     1.0000 0.83920  0.00870  0.44620  Biso   1.000  O
  O291     1.0000 0.83920  0.99130  0.55380  Biso   1.000  O
  O292     1.0000 0.16080  0.00870  0.55380  Biso   1.000  O
  O293     1.0000 0.16080  0.49130  0.94620  Biso   1.000  O
  O294     1.0000 0.83920  0.50870  0.94620  Biso   1.000  O
  O295     1.0000 0.83920  0.49130  0.05380  Biso   1.000  O
  O296     1.0000 0.16080  0.50870  0.05380  Biso   1.000  O
  O297     1.0000 0.56080  0.94890  0.88850  Biso   1.000  O
  O298     1.0000 0.43920  0.05110  0.88850  Biso   1.000  O
  O299     1.0000 0.43920  0.94890  0.11150  Biso   1.000  O
  O300     1.0000 0.56080  0.05110  0.11150  Biso   1.000  O
  O301     1.0000 0.56080  0.44890  0.38850  Biso   1.000  O
  O302     1.0000 0.43920  0.55110  0.38850  Biso   1.000  O
  O303     1.0000 0.43920  0.44890  0.61150  Biso   1.000  O
  O304     1.0000 0.56080  0.55110  0.61150  Biso   1.000  O
  O305     1.0000 0.06080  0.94890  0.38850  Biso   1.000  O
  O306     1.0000 0.93920  0.05110  0.38850  Biso   1.000  O
  O307     1.0000 0.93920  0.94890  0.61150  Biso   1.000  O
  O308     1.0000 0.06080  0.05110  0.61150  Biso   1.000  O
  O309     1.0000 0.06080  0.44890  0.88850  Biso   1.000  O
  O310     1.0000 0.93920  0.55110  0.88850  Biso   1.000  O
  O311     1.0000 0.93920  0.44890  0.11150  Biso   1.000  O
  O312     1.0000 0.06080  0.55110  0.11150  Biso   1.000  O
  O313     1.0000 0.75620  0.98390  0.88060  Biso   1.000  O
  O314     1.0000 0.24380  0.01610  0.88060  Biso   1.000  O
  O315     1.0000 0.24380  0.98390  0.11940  Biso   1.000  O
  O316     1.0000 0.75620  0.01610  0.11940  Biso   1.000  O
  O317     1.0000 0.75620  0.48390  0.38060  Biso   1.000  O
  O318     1.0000 0.24380  0.51610  0.38060  Biso   1.000  O
  O319     1.0000 0.24380  0.48390  0.61940  Biso   1.000  O
  O320     1.0000 0.75620  0.51610  0.61940  Biso   1.000  O
  O321     1.0000 0.25620  0.98390  0.38060  Biso   1.000  O
  O322     1.0000 0.74380  0.01610  0.38060  Biso   1.000  O
  O323     1.0000 0.74380  0.98390  0.61940  Biso   1.000  O
  O324     1.0000 0.25620  0.01610  0.61940  Biso   1.000  O
  O325     1.0000 0.25620  0.48390  0.88060  Biso   1.000  O
  O326     1.0000 0.74380  0.51610  0.88060  Biso   1.000  O
  O327     1.0000 0.74380  0.48390  0.11940  Biso   1.000  O
  O328     1.0000 0.25620  0.51610  0.11940  Biso   1.000  O
