data_image0
_cell_length_a       51.5
_cell_length_b       11.992
_cell_length_c       14.114
_cell_angle_alpha    90
_cell_angle_beta     90
_cell_angle_gamma    90

_symmetry_space_group_name_H-M    "P 1"
_symmetry_int_tables_number       1

loop_
  _symmetry_equiv_pos_as_xyz
  'x, y, z'

loop_
  _atom_site_label
  _atom_site_occupancy
  _atom_site_fract_x
  _atom_site_fract_y
  _atom_site_fract_z
  _atom_site_thermal_displace_type
  _atom_site_B_iso_or_equiv
  _atom_site_type_symbol
  C1       1.0000 0.09994  0.51850  0.08586  Biso   1.000  C
  C2       1.0000 0.40006  0.98150  0.08586  Biso   1.000  C
  C3       1.0000 0.90006  0.01850  0.41414  Biso   1.000  C
  C4       1.0000 0.59994  0.48150  0.41414  Biso   1.000  C
  C5       1.0000 0.90006  0.48150  0.91414  Biso   1.000  C
  C6       1.0000 0.59994  0.01850  0.91414  Biso   1.000  C
  C7       1.0000 0.09994  0.98150  0.58586  Biso   1.000  C
  C8       1.0000 0.40006  0.51850  0.58586  Biso   1.000  C
  C9       1.0000 0.08387  0.49130  0.99931  Biso   1.000  C
  C10      1.0000 0.41613  0.00870  0.99931  Biso   1.000  C
  C11      1.0000 0.91613  0.99130  0.50069  Biso   1.000  C
  C12      1.0000 0.58387  0.50870  0.50069  Biso   1.000  C
  C13      1.0000 0.91613  0.50870  0.00069  Biso   1.000  C
  C14      1.0000 0.58387  0.99130  0.00069  Biso   1.000  C
  C15      1.0000 0.08387  0.00870  0.49931  Biso   1.000  C
  C16      1.0000 0.41613  0.49130  0.49931  Biso   1.000  C
  C17      1.0000 0.06292  0.41820  0.00690  Biso   1.000  C
  C18      1.0000 0.43708  0.08180  0.00690  Biso   1.000  C
  C19      1.0000 0.93708  0.91820  0.49310  Biso   1.000  C
  C20      1.0000 0.56292  0.58180  0.49310  Biso   1.000  C
  C21      1.0000 0.93708  0.58180  0.99310  Biso   1.000  C
  C22      1.0000 0.56292  0.91820  0.99310  Biso   1.000  C
  C23      1.0000 0.06292  0.08180  0.50690  Biso   1.000  C
  C24      1.0000 0.43708  0.41820  0.50690  Biso   1.000  C
  H1       1.0000 0.05860  0.38710  0.06680  Biso   1.000  H
  H2       1.0000 0.44140  0.11290  0.06680  Biso   1.000  H
  H3       1.0000 0.94140  0.88710  0.43320  Biso   1.000  H
  H4       1.0000 0.55860  0.61290  0.43320  Biso   1.000  H
  H5       1.0000 0.94140  0.61290  0.93320  Biso   1.000  H
  H6       1.0000 0.55860  0.88710  0.93320  Biso   1.000  H
  H7       1.0000 0.05860  0.11290  0.56680  Biso   1.000  H
  H8       1.0000 0.44140  0.38710  0.56680  Biso   1.000  H
  C25      1.0000 0.04836  0.39050  0.92744  Biso   1.000  C
  C26      1.0000 0.45164  0.10950  0.92744  Biso   1.000  C
  C27      1.0000 0.95164  0.89050  0.57256  Biso   1.000  C
  C28      1.0000 0.54836  0.60950  0.57256  Biso   1.000  C
  C29      1.0000 0.95164  0.60950  0.07256  Biso   1.000  C
  C30      1.0000 0.54836  0.89050  0.07256  Biso   1.000  C
  C31      1.0000 0.04836  0.10950  0.42744  Biso   1.000  C
  C32      1.0000 0.45164  0.39050  0.42744  Biso   1.000  C
  H9       1.0000 0.03400  0.34150  0.93360  Biso   1.000  H
  H10      1.0000 0.46600  0.15850  0.93360  Biso   1.000  H
  H11      1.0000 0.96600  0.84150  0.56640  Biso   1.000  H
  H12      1.0000 0.53400  0.65850  0.56640  Biso   1.000  H
  H13      1.0000 0.96600  0.65850  0.06640  Biso   1.000  H
  H14      1.0000 0.53400  0.84150  0.06640  Biso   1.000  H
  H15      1.0000 0.03400  0.15850  0.43360  Biso   1.000  H
  H16      1.0000 0.46600  0.34150  0.43360  Biso   1.000  H
  C33      1.0000 0.05469  0.43380  0.83875  Biso   1.000  C
  C34      1.0000 0.44531  0.06620  0.83875  Biso   1.000  C
  C35      1.0000 0.94531  0.93380  0.66125  Biso   1.000  C
  C36      1.0000 0.55469  0.56620  0.66125  Biso   1.000  C
  C37      1.0000 0.94531  0.56620  0.16125  Biso   1.000  C
  C38      1.0000 0.55469  0.93380  0.16125  Biso   1.000  C
  C39      1.0000 0.05469  0.06620  0.33875  Biso   1.000  C
  C40      1.0000 0.44531  0.43380  0.33875  Biso   1.000  C
  C41      1.0000 0.07519  0.51000  0.83240  Biso   1.000  C
  C42      1.0000 0.42481  0.99000  0.83240  Biso   1.000  C
  C43      1.0000 0.92481  0.01000  0.66760  Biso   1.000  C
  C44      1.0000 0.57519  0.49000  0.66760  Biso   1.000  C
  C45      1.0000 0.92481  0.49000  0.16760  Biso   1.000  C
  C46      1.0000 0.57519  0.01000  0.16760  Biso   1.000  C
  C47      1.0000 0.07519  0.99000  0.33240  Biso   1.000  C
  C48      1.0000 0.42481  0.51000  0.33240  Biso   1.000  C
  H17      1.0000 0.07940  0.54250  0.77290  Biso   1.000  H
  H18      1.0000 0.42060  0.95750  0.77290  Biso   1.000  H
  H19      1.0000 0.92060  0.04250  0.72710  Biso   1.000  H
  H20      1.0000 0.57940  0.45750  0.72710  Biso   1.000  H
  H21      1.0000 0.92060  0.45750  0.22710  Biso   1.000  H
  H22      1.0000 0.57940  0.04250  0.22710  Biso   1.000  H
  H23      1.0000 0.07940  0.95750  0.27290  Biso   1.000  H
  H24      1.0000 0.42060  0.54250  0.27290  Biso   1.000  H
  C49      1.0000 0.08945  0.53850  0.91179  Biso   1.000  C
  C50      1.0000 0.41055  0.96150  0.91179  Biso   1.000  C
  C51      1.0000 0.91055  0.03850  0.58821  Biso   1.000  C
  C52      1.0000 0.58945  0.46150  0.58821  Biso   1.000  C
  C53      1.0000 0.91055  0.46150  0.08821  Biso   1.000  C
  C54      1.0000 0.58945  0.03850  0.08821  Biso   1.000  C
  C55      1.0000 0.08945  0.96150  0.41179  Biso   1.000  C
  C56      1.0000 0.41055  0.53850  0.41179  Biso   1.000  C
  H25      1.0000 0.10320  0.59090  0.90640  Biso   1.000  H
  H26      1.0000 0.39680  0.90910  0.90640  Biso   1.000  H
  H27      1.0000 0.89680  0.09090  0.59360  Biso   1.000  H
  H28      1.0000 0.60320  0.40910  0.59360  Biso   1.000  H
  H29      1.0000 0.89680  0.40910  0.09360  Biso   1.000  H
  H30      1.0000 0.60320  0.09090  0.09360  Biso   1.000  H
  H31      1.0000 0.10320  0.90910  0.40640  Biso   1.000  H
  H32      1.0000 0.39680  0.59090  0.40640  Biso   1.000  H
  C57      1.0000 0.03920  0.40670  0.74769  Biso   1.000  C
  C58      1.0000 0.46080  0.09330  0.74769  Biso   1.000  C
  C59      1.0000 0.96080  0.90670  0.75231  Biso   1.000  C
  C60      1.0000 0.53920  0.59330  0.75231  Biso   1.000  C
  C61      1.0000 0.96080  0.59330  0.25231  Biso   1.000  C
  C62      1.0000 0.53920  0.90670  0.25231  Biso   1.000  C
  C63      1.0000 0.03920  0.09330  0.24769  Biso   1.000  C
  C64      1.0000 0.46080  0.40670  0.24769  Biso   1.000  C
  C65      1.0000 0.05700  0.38680  0.66119  Biso   1.000  C
  C66      1.0000 0.44300  0.11320  0.66119  Biso   1.000  C
  C67      1.0000 0.94300  0.88680  0.83881  Biso   1.000  C
  C68      1.0000 0.55700  0.61320  0.83881  Biso   1.000  C
  C69      1.0000 0.94300  0.61320  0.33881  Biso   1.000  C
  C70      1.0000 0.55700  0.88680  0.33881  Biso   1.000  C
  C71      1.0000 0.05700  0.11320  0.16119  Biso   1.000  C
  C72      1.0000 0.44300  0.38680  0.16119  Biso   1.000  C
  C73      1.0000 0.08065  0.33120  0.67487  Biso   1.000  C
  C74      1.0000 0.41935  0.16880  0.67487  Biso   1.000  C
  C75      1.0000 0.91935  0.83120  0.82513  Biso   1.000  C
  C76      1.0000 0.58065  0.66880  0.82513  Biso   1.000  C
  C77      1.0000 0.91935  0.66880  0.32513  Biso   1.000  C
  C78      1.0000 0.58065  0.83120  0.32513  Biso   1.000  C
  C79      1.0000 0.08065  0.16880  0.17487  Biso   1.000  C
  C80      1.0000 0.41935  0.33120  0.17487  Biso   1.000  C
  H33      1.0000 0.08610  0.31280  0.73730  Biso   1.000  H
  H34      1.0000 0.41390  0.18720  0.73730  Biso   1.000  H
  H35      1.0000 0.91390  0.81280  0.76270  Biso   1.000  H
  H36      1.0000 0.58610  0.68720  0.76270  Biso   1.000  H
  H37      1.0000 0.91390  0.68720  0.26270  Biso   1.000  H
  H38      1.0000 0.58610  0.81280  0.26270  Biso   1.000  H
  H39      1.0000 0.08610  0.18720  0.23730  Biso   1.000  H
  H40      1.0000 0.41390  0.31280  0.23730  Biso   1.000  H
  C81      1.0000 0.09617  0.30270  0.59907  Biso   1.000  C
  C82      1.0000 0.40383  0.19730  0.59907  Biso   1.000  C
  C83      1.0000 0.90383  0.80270  0.90093  Biso   1.000  C
  C84      1.0000 0.59617  0.69730  0.90093  Biso   1.000  C
  C85      1.0000 0.90383  0.69730  0.40093  Biso   1.000  C
  C86      1.0000 0.59617  0.80270  0.40093  Biso   1.000  C
  C87      1.0000 0.09617  0.19730  0.09907  Biso   1.000  C
  C88      1.0000 0.40383  0.30270  0.09907  Biso   1.000  C
  H41      1.0000 0.11210  0.26500  0.60960  Biso   1.000  H
  H42      1.0000 0.38790  0.23500  0.60960  Biso   1.000  H
  H43      1.0000 0.88790  0.76500  0.89040  Biso   1.000  H
  H44      1.0000 0.61210  0.73500  0.89040  Biso   1.000  H
  H45      1.0000 0.88790  0.73500  0.39040  Biso   1.000  H
  H46      1.0000 0.61210  0.76500  0.39040  Biso   1.000  H
  H47      1.0000 0.11210  0.23500  0.10960  Biso   1.000  H
  H48      1.0000 0.38790  0.26500  0.10960  Biso   1.000  H
  C89      1.0000 0.08854  0.32900  0.50707  Biso   1.000  C
  C90      1.0000 0.41146  0.17100  0.50707  Biso   1.000  C
  C91      1.0000 0.91146  0.82900  0.99293  Biso   1.000  C
  C92      1.0000 0.58854  0.67100  0.99293  Biso   1.000  C
  C93      1.0000 0.91146  0.67100  0.49293  Biso   1.000  C
  C94      1.0000 0.58854  0.82900  0.49293  Biso   1.000  C
  C95      1.0000 0.08854  0.17100  0.00707  Biso   1.000  C
  C96      1.0000 0.41146  0.32900  0.00707  Biso   1.000  C
  C97      1.0000 0.06502  0.38430  0.49273  Biso   1.000  C
  C98      1.0000 0.43498  0.11570  0.49273  Biso   1.000  C
  C99      1.0000 0.93498  0.88430  0.00727  Biso   1.000  C
  C100     1.0000 0.56502  0.61570  0.00727  Biso   1.000  C
  C101     1.0000 0.93498  0.61570  0.50727  Biso   1.000  C
  C102     1.0000 0.56502  0.88430  0.50727  Biso   1.000  C
  C103     1.0000 0.06502  0.11570  0.99273  Biso   1.000  C
  C104     1.0000 0.43498  0.38430  0.99273  Biso   1.000  C
  H49      1.0000 0.05970  0.40230  0.43010  Biso   1.000  H
  H50      1.0000 0.44030  0.09770  0.43010  Biso   1.000  H
  H51      1.0000 0.94030  0.90230  0.06990  Biso   1.000  H
  H52      1.0000 0.55970  0.59770  0.06990  Biso   1.000  H
  H53      1.0000 0.94030  0.59770  0.56990  Biso   1.000  H
  H54      1.0000 0.55970  0.90230  0.56990  Biso   1.000  H
  H55      1.0000 0.05970  0.09770  0.93010  Biso   1.000  H
  H56      1.0000 0.44030  0.40230  0.93010  Biso   1.000  H
  C105     1.0000 0.04934  0.41340  0.56894  Biso   1.000  C
  C106     1.0000 0.45066  0.08660  0.56894  Biso   1.000  C
  C107     1.0000 0.95066  0.91340  0.93106  Biso   1.000  C
  C108     1.0000 0.54934  0.58660  0.93106  Biso   1.000  C
  C109     1.0000 0.95066  0.58660  0.43106  Biso   1.000  C
  C110     1.0000 0.54934  0.91340  0.43106  Biso   1.000  C
  C111     1.0000 0.04934  0.08660  0.06894  Biso   1.000  C
  C112     1.0000 0.45066  0.41340  0.06894  Biso   1.000  C
  H57      1.0000 0.03340  0.45140  0.55830  Biso   1.000  H
  H58      1.0000 0.46660  0.04860  0.55830  Biso   1.000  H
  H59      1.0000 0.96660  0.95140  0.94170  Biso   1.000  H
  H60      1.0000 0.53340  0.54860  0.94170  Biso   1.000  H
  H61      1.0000 0.96660  0.54860  0.44170  Biso   1.000  H
  H62      1.0000 0.53340  0.95140  0.44170  Biso   1.000  H
  H63      1.0000 0.03340  0.04860  0.05830  Biso   1.000  H
  H64      1.0000 0.46660  0.45140  0.05830  Biso   1.000  H
  C113     1.0000 0.02024  0.50570  0.73250  Biso   1.000  C
  C114     1.0000 0.47976  0.99430  0.73250  Biso   1.000  C
  C115     1.0000 0.97976  0.00570  0.76750  Biso   1.000  C
  C116     1.0000 0.52024  0.49430  0.76750  Biso   1.000  C
  C117     1.0000 0.97976  0.49430  0.26750  Biso   1.000  C
  C118     1.0000 0.52024  0.00570  0.26750  Biso   1.000  C
  C119     1.0000 0.02024  0.99430  0.23250  Biso   1.000  C
  C120     1.0000 0.47976  0.50570  0.23250  Biso   1.000  C
  C121     1.0000 0.02284  0.29910  0.75741  Biso   1.000  C
  C122     1.0000 0.47716  0.20090  0.75741  Biso   1.000  C
  C123     1.0000 0.97716  0.79910  0.74259  Biso   1.000  C
  C124     1.0000 0.52284  0.70090  0.74259  Biso   1.000  C
  C125     1.0000 0.97716  0.70090  0.24259  Biso   1.000  C
  C126     1.0000 0.52284  0.79910  0.24259  Biso   1.000  C
  C127     1.0000 0.02284  0.20090  0.25741  Biso   1.000  C
  C128     1.0000 0.47716  0.29910  0.25741  Biso   1.000  C
  C129     1.0000 0.15893  0.32130  0.21940  Biso   1.000  C
  C130     1.0000 0.34107  0.17870  0.21940  Biso   1.000  C
  C131     1.0000 0.84107  0.82130  0.28060  Biso   1.000  C
  C132     1.0000 0.65893  0.67870  0.28060  Biso   1.000  C
  C133     1.0000 0.84107  0.67870  0.78060  Biso   1.000  C
  C134     1.0000 0.65893  0.82130  0.78060  Biso   1.000  C
  C135     1.0000 0.15893  0.17870  0.71940  Biso   1.000  C
  C136     1.0000 0.34107  0.32130  0.71940  Biso   1.000  C
  C137     1.0000 0.18178  0.30280  0.15345  Biso   1.000  C
  C138     1.0000 0.31822  0.19720  0.15345  Biso   1.000  C
  C139     1.0000 0.81822  0.80280  0.34655  Biso   1.000  C
  C140     1.0000 0.68178  0.69720  0.34655  Biso   1.000  C
  C141     1.0000 0.81822  0.69720  0.84655  Biso   1.000  C
  C142     1.0000 0.68178  0.80280  0.84655  Biso   1.000  C
  C143     1.0000 0.18178  0.19720  0.65345  Biso   1.000  C
  C144     1.0000 0.31822  0.30280  0.65345  Biso   1.000  C
  C145     1.0000 0.20047  0.22310  0.17656  Biso   1.000  C
  C146     1.0000 0.29953  0.27690  0.17656  Biso   1.000  C
  C147     1.0000 0.79953  0.72310  0.32344  Biso   1.000  C
  C148     1.0000 0.70047  0.77690  0.32344  Biso   1.000  C
  C149     1.0000 0.79953  0.77690  0.82344  Biso   1.000  C
  C150     1.0000 0.70047  0.72310  0.82344  Biso   1.000  C
  C151     1.0000 0.20047  0.27690  0.67656  Biso   1.000  C
  C152     1.0000 0.29953  0.22310  0.67656  Biso   1.000  C
  H65      1.0000 0.19830  0.17860  0.23170  Biso   1.000  H
  H66      1.0000 0.30170  0.32140  0.23170  Biso   1.000  H
  H67      1.0000 0.80170  0.67860  0.26830  Biso   1.000  H
  H68      1.0000 0.69830  0.82140  0.26830  Biso   1.000  H
  H69      1.0000 0.80170  0.82140  0.76830  Biso   1.000  H
  H70      1.0000 0.69830  0.67860  0.76830  Biso   1.000  H
  H71      1.0000 0.19830  0.32140  0.73170  Biso   1.000  H
  H72      1.0000 0.30170  0.17860  0.73170  Biso   1.000  H
  C153     1.0000 0.22220  0.20830  0.11953  Biso   1.000  C
  C154     1.0000 0.27780  0.29170  0.11953  Biso   1.000  C
  C155     1.0000 0.77780  0.70830  0.38047  Biso   1.000  C
  C156     1.0000 0.72220  0.79170  0.38047  Biso   1.000  C
  C157     1.0000 0.77780  0.79170  0.88047  Biso   1.000  C
  C158     1.0000 0.72220  0.70830  0.88047  Biso   1.000  C
  C159     1.0000 0.22220  0.29170  0.61953  Biso   1.000  C
  C160     1.0000 0.27780  0.20830  0.61953  Biso   1.000  C
  H73      1.0000 0.23480  0.15400  0.13630  Biso   1.000  H
  H74      1.0000 0.26520  0.34600  0.13630  Biso   1.000  H
  H75      1.0000 0.76520  0.65400  0.36370  Biso   1.000  H
  H76      1.0000 0.73480  0.84600  0.36370  Biso   1.000  H
  H77      1.0000 0.76520  0.84600  0.86370  Biso   1.000  H
  H78      1.0000 0.73480  0.65400  0.86370  Biso   1.000  H
  H79      1.0000 0.23480  0.34600  0.63630  Biso   1.000  H
  H80      1.0000 0.26520  0.15400  0.63630  Biso   1.000  H
  C161     1.0000 0.22568  0.27220  0.03815  Biso   1.000  C
  C162     1.0000 0.27432  0.22780  0.03815  Biso   1.000  C
  C163     1.0000 0.77432  0.77220  0.46185  Biso   1.000  C
  C164     1.0000 0.72568  0.72780  0.46185  Biso   1.000  C
  C165     1.0000 0.77432  0.72780  0.96185  Biso   1.000  C
  C166     1.0000 0.72568  0.77220  0.96185  Biso   1.000  C
  C167     1.0000 0.22568  0.22780  0.53815  Biso   1.000  C
  C168     1.0000 0.27432  0.27220  0.53815  Biso   1.000  C
  C169     1.0000 0.20652  0.34920  0.01380  Biso   1.000  C
  C170     1.0000 0.29348  0.15080  0.01380  Biso   1.000  C
  C171     1.0000 0.79348  0.84920  0.48620  Biso   1.000  C
  C172     1.0000 0.70652  0.65080  0.48620  Biso   1.000  C
  C173     1.0000 0.79348  0.65080  0.98620  Biso   1.000  C
  C174     1.0000 0.70652  0.84920  0.98620  Biso   1.000  C
  C175     1.0000 0.20652  0.15080  0.51380  Biso   1.000  C
  C176     1.0000 0.29348  0.34920  0.51380  Biso   1.000  C
  H81      1.0000 0.20820  0.39150  0.95720  Biso   1.000  H
  H82      1.0000 0.29180  0.10850  0.95720  Biso   1.000  H
  H83      1.0000 0.79180  0.89150  0.54280  Biso   1.000  H
  H84      1.0000 0.70820  0.60850  0.54280  Biso   1.000  H
  H85      1.0000 0.79180  0.60850  0.04280  Biso   1.000  H
  H86      1.0000 0.70820  0.89150  0.04280  Biso   1.000  H
  H87      1.0000 0.20820  0.10850  0.45720  Biso   1.000  H
  H88      1.0000 0.29180  0.39150  0.45720  Biso   1.000  H
  C177     1.0000 0.18495  0.36470  0.07190  Biso   1.000  C
  C178     1.0000 0.31505  0.13530  0.07190  Biso   1.000  C
  C179     1.0000 0.81505  0.86470  0.42810  Biso   1.000  C
  C180     1.0000 0.68495  0.63530  0.42810  Biso   1.000  C
  C181     1.0000 0.81505  0.63530  0.92810  Biso   1.000  C
  C182     1.0000 0.68495  0.86470  0.92810  Biso   1.000  C
  C183     1.0000 0.18495  0.13530  0.57190  Biso   1.000  C
  C184     1.0000 0.31505  0.36470  0.57190  Biso   1.000  C
  H89      1.0000 0.17220  0.41860  0.05500  Biso   1.000  H
  H90      1.0000 0.32780  0.08140  0.05500  Biso   1.000  H
  H91      1.0000 0.82780  0.91860  0.44500  Biso   1.000  H
  H92      1.0000 0.67220  0.58140  0.44500  Biso   1.000  H
  H93      1.0000 0.82780  0.58140  0.94500  Biso   1.000  H
  H94      1.0000 0.67220  0.91860  0.94500  Biso   1.000  H
  H95      1.0000 0.17220  0.08140  0.55500  Biso   1.000  H
  H96      1.0000 0.32780  0.41860  0.55500  Biso   1.000  H
  C185     1.0000 0.25000  0.25000  0.97650  Biso   1.000  C
  C186     1.0000 0.75000  0.75000  0.52350  Biso   1.000  C
  C187     1.0000 0.75000  0.75000  0.02350  Biso   1.000  C
  C188     1.0000 0.25000  0.25000  0.47650  Biso   1.000  C
  C189     1.0000 0.24304  0.14980  0.91185  Biso   1.000  C
  C190     1.0000 0.25696  0.35020  0.91185  Biso   1.000  C
  C191     1.0000 0.75696  0.64980  0.58815  Biso   1.000  C
  C192     1.0000 0.74304  0.85020  0.58815  Biso   1.000  C
  C193     1.0000 0.75696  0.85020  0.08815  Biso   1.000  C
  C194     1.0000 0.74304  0.64980  0.08815  Biso   1.000  C
  C195     1.0000 0.24304  0.35020  0.41185  Biso   1.000  C
  C196     1.0000 0.25696  0.14980  0.41185  Biso   1.000  C
  C197     1.0000 0.12271  0.55840  0.45790  Biso   1.000  C
  C198     1.0000 0.37729  0.94160  0.45790  Biso   1.000  C
  C199     1.0000 0.87729  0.05840  0.04210  Biso   1.000  C
  C200     1.0000 0.62271  0.44160  0.04210  Biso   1.000  C
  C201     1.0000 0.87729  0.44160  0.54210  Biso   1.000  C
  C202     1.0000 0.62271  0.05840  0.54210  Biso   1.000  C
  C203     1.0000 0.12271  0.94160  0.95790  Biso   1.000  C
  C204     1.0000 0.37729  0.55840  0.95790  Biso   1.000  C
  C205     1.0000 0.09734  0.60150  0.42508  Biso   1.000  C
  C206     1.0000 0.40266  0.89850  0.42508  Biso   1.000  C
  C207     1.0000 0.90266  0.10150  0.07492  Biso   1.000  C
  C208     1.0000 0.59734  0.39850  0.07492  Biso   1.000  C
  C209     1.0000 0.90266  0.39850  0.57492  Biso   1.000  C
  C210     1.0000 0.59734  0.10150  0.57492  Biso   1.000  C
  C211     1.0000 0.09734  0.89850  0.92508  Biso   1.000  C
  C212     1.0000 0.40266  0.60150  0.92508  Biso   1.000  C
  C213     1.0000 0.08065  0.66510  0.48100  Biso   1.000  C
  C214     1.0000 0.41935  0.83490  0.48100  Biso   1.000  C
  C215     1.0000 0.91935  0.16510  0.01900  Biso   1.000  C
  C216     1.0000 0.58065  0.33490  0.01900  Biso   1.000  C
  C217     1.0000 0.91935  0.33490  0.51900  Biso   1.000  C
  C218     1.0000 0.58065  0.16510  0.51900  Biso   1.000  C
  C219     1.0000 0.08065  0.83490  0.98100  Biso   1.000  C
  C220     1.0000 0.41935  0.66510  0.98100  Biso   1.000  C
  H97      1.0000 0.08530  0.68280  0.54440  Biso   1.000  H
  H98      1.0000 0.41470  0.81720  0.54440  Biso   1.000  H
  H99      1.0000 0.91470  0.18280  0.95560  Biso   1.000  H
  H100     1.0000 0.58530  0.31720  0.95560  Biso   1.000  H
  H101     1.0000 0.91470  0.31720  0.45560  Biso   1.000  H
  H102     1.0000 0.58530  0.18280  0.45560  Biso   1.000  H
  H103     1.0000 0.08530  0.81720  0.04440  Biso   1.000  H
  H104     1.0000 0.41470  0.68280  0.04440  Biso   1.000  H
  C221     1.0000 0.05719  0.70260  0.44380  Biso   1.000  C
  C222     1.0000 0.44281  0.79740  0.44380  Biso   1.000  C
  C223     1.0000 0.94281  0.20260  0.05620  Biso   1.000  C
  C224     1.0000 0.55719  0.29740  0.05620  Biso   1.000  C
  C225     1.0000 0.94281  0.29740  0.55620  Biso   1.000  C
  C226     1.0000 0.55719  0.20260  0.55620  Biso   1.000  C
  C227     1.0000 0.05719  0.79740  0.94380  Biso   1.000  C
  C228     1.0000 0.44281  0.70260  0.94380  Biso   1.000  C
  C229     1.0000 0.05144  0.67310  0.35070  Biso   1.000  C
  C230     1.0000 0.44856  0.82690  0.35070  Biso   1.000  C
  C231     1.0000 0.94856  0.17310  0.14930  Biso   1.000  C
  C232     1.0000 0.55144  0.32690  0.14930  Biso   1.000  C
  C233     1.0000 0.94856  0.32690  0.64930  Biso   1.000  C
  C234     1.0000 0.55144  0.17310  0.64930  Biso   1.000  C
  C235     1.0000 0.05144  0.82690  0.85070  Biso   1.000  C
  C236     1.0000 0.44856  0.67310  0.85070  Biso   1.000  C
  H105     1.0000 0.03560  0.69660  0.32280  Biso   1.000  H
  H106     1.0000 0.46440  0.80340  0.32280  Biso   1.000  H
  H107     1.0000 0.96440  0.19660  0.17720  Biso   1.000  H
  H108     1.0000 0.53560  0.30340  0.17720  Biso   1.000  H
  H109     1.0000 0.96440  0.30340  0.67720  Biso   1.000  H
  H110     1.0000 0.53560  0.19660  0.67720  Biso   1.000  H
  H111     1.0000 0.03560  0.80340  0.82280  Biso   1.000  H
  H112     1.0000 0.46440  0.69660  0.82280  Biso   1.000  H
  C237     1.0000 0.06872  0.61000  0.29890  Biso   1.000  C
  C238     1.0000 0.43128  0.89000  0.29890  Biso   1.000  C
  C239     1.0000 0.93128  0.11000  0.20110  Biso   1.000  C
  C240     1.0000 0.56872  0.39000  0.20110  Biso   1.000  C
  C241     1.0000 0.93128  0.39000  0.70110  Biso   1.000  C
  C242     1.0000 0.56872  0.11000  0.70110  Biso   1.000  C
  C243     1.0000 0.06872  0.89000  0.79890  Biso   1.000  C
  C244     1.0000 0.43128  0.61000  0.79890  Biso   1.000  C
  H113     1.0000 0.06450  0.59070  0.23540  Biso   1.000  H
  H114     1.0000 0.43550  0.90930  0.23540  Biso   1.000  H
  H115     1.0000 0.93550  0.09070  0.26460  Biso   1.000  H
  H116     1.0000 0.56450  0.40930  0.26460  Biso   1.000  H
  H117     1.0000 0.93550  0.40930  0.76460  Biso   1.000  H
  H118     1.0000 0.56450  0.09070  0.76460  Biso   1.000  H
  H119     1.0000 0.06450  0.90930  0.73540  Biso   1.000  H
  H120     1.0000 0.43550  0.59070  0.73540  Biso   1.000  H
  C245     1.0000 0.03874  0.77110  0.50120  Biso   1.000  C
  C246     1.0000 0.46126  0.72890  0.50120  Biso   1.000  C
  C247     1.0000 0.96126  0.27110  0.99880  Biso   1.000  C
  C248     1.0000 0.53874  0.22890  0.99880  Biso   1.000  C
  C249     1.0000 0.96126  0.22890  0.49880  Biso   1.000  C
  C250     1.0000 0.53874  0.27110  0.49880  Biso   1.000  C
  C251     1.0000 0.03874  0.72890  0.00120  Biso   1.000  C
  C252     1.0000 0.46126  0.77110  0.00120  Biso   1.000  C
  H121     1.0000 0.03600  0.84330  0.47010  Biso   1.000  H
  H122     1.0000 0.46400  0.65670  0.47010  Biso   1.000  H
  H123     1.0000 0.96400  0.34330  0.02990  Biso   1.000  H
  H124     1.0000 0.53600  0.15670  0.02990  Biso   1.000  H
  H125     1.0000 0.96400  0.15670  0.52990  Biso   1.000  H
  H126     1.0000 0.53600  0.34330  0.52990  Biso   1.000  H
  H127     1.0000 0.03600  0.65670  0.97010  Biso   1.000  H
  H128     1.0000 0.46400  0.84330  0.97010  Biso   1.000  H
  H129     1.0000 0.04600  0.78310  0.56460  Biso   1.000  H
  H130     1.0000 0.45400  0.71690  0.56460  Biso   1.000  H
  H131     1.0000 0.95400  0.28310  0.93540  Biso   1.000  H
  H132     1.0000 0.54600  0.21690  0.93540  Biso   1.000  H
  H133     1.0000 0.95400  0.21690  0.43540  Biso   1.000  H
  H134     1.0000 0.54600  0.28310  0.43540  Biso   1.000  H
  H135     1.0000 0.04600  0.71690  0.06460  Biso   1.000  H
  H136     1.0000 0.45400  0.78310  0.06460  Biso   1.000  H
  H137     1.0000 0.02210  0.73190  0.50650  Biso   1.000  H
  H138     1.0000 0.47790  0.76810  0.50650  Biso   1.000  H
  H139     1.0000 0.97790  0.23190  0.99350  Biso   1.000  H
  H140     1.0000 0.52210  0.26810  0.99350  Biso   1.000  H
  H141     1.0000 0.97790  0.26810  0.49350  Biso   1.000  H
  H142     1.0000 0.52210  0.23190  0.49350  Biso   1.000  H
  H143     1.0000 0.02210  0.76810  0.00650  Biso   1.000  H
  H144     1.0000 0.47790  0.73190  0.00650  Biso   1.000  H
  C253     1.0000 0.13087  0.56530  0.55120  Biso   1.000  C
  C254     1.0000 0.36913  0.93470  0.55120  Biso   1.000  C
  C255     1.0000 0.86913  0.06530  0.94880  Biso   1.000  C
  C256     1.0000 0.63087  0.43470  0.94880  Biso   1.000  C
  C257     1.0000 0.86913  0.43470  0.44880  Biso   1.000  C
  C258     1.0000 0.63087  0.06530  0.44880  Biso   1.000  C
  C259     1.0000 0.13087  0.93470  0.05120  Biso   1.000  C
  C260     1.0000 0.36913  0.56530  0.05120  Biso   1.000  C
  H145     1.0000 0.12000  0.59840  0.59760  Biso   1.000  H
  H146     1.0000 0.38000  0.90160  0.59760  Biso   1.000  H
  H147     1.0000 0.88000  0.09840  0.90240  Biso   1.000  H
  H148     1.0000 0.62000  0.40160  0.90240  Biso   1.000  H
  H149     1.0000 0.88000  0.40160  0.40240  Biso   1.000  H
  H150     1.0000 0.62000  0.09840  0.40240  Biso   1.000  H
  H151     1.0000 0.12000  0.90160  0.09760  Biso   1.000  H
  H152     1.0000 0.38000  0.59840  0.09760  Biso   1.000  H
  C261     1.0000 0.15506  0.52360  0.57660  Biso   1.000  C
  C262     1.0000 0.34494  0.97640  0.57660  Biso   1.000  C
  C263     1.0000 0.84494  0.02360  0.92340  Biso   1.000  C
  C264     1.0000 0.65506  0.47640  0.92340  Biso   1.000  C
  C265     1.0000 0.84494  0.47640  0.42340  Biso   1.000  C
  C266     1.0000 0.65506  0.02360  0.42340  Biso   1.000  C
  C267     1.0000 0.15506  0.97640  0.07660  Biso   1.000  C
  C268     1.0000 0.34494  0.52360  0.07660  Biso   1.000  C
  C269     1.0000 0.17054  0.48010  0.50530  Biso   1.000  C
  C270     1.0000 0.32946  0.01990  0.50530  Biso   1.000  C
  C271     1.0000 0.82946  0.98010  0.99470  Biso   1.000  C
  C272     1.0000 0.67054  0.51990  0.99470  Biso   1.000  C
  C273     1.0000 0.82946  0.51990  0.49470  Biso   1.000  C
  C274     1.0000 0.67054  0.98010  0.49470  Biso   1.000  C
  C275     1.0000 0.17054  0.01990  0.00530  Biso   1.000  C
  C276     1.0000 0.32946  0.48010  0.00530  Biso   1.000  C
  H153     1.0000 0.18760  0.45440  0.51910  Biso   1.000  H
  H154     1.0000 0.31240  0.04560  0.51910  Biso   1.000  H
  H155     1.0000 0.81240  0.95440  0.98090  Biso   1.000  H
  H156     1.0000 0.68760  0.54560  0.98090  Biso   1.000  H
  H157     1.0000 0.81240  0.54560  0.48090  Biso   1.000  H
  H158     1.0000 0.68760  0.95440  0.48090  Biso   1.000  H
  H159     1.0000 0.18760  0.04560  0.01910  Biso   1.000  H
  H160     1.0000 0.31240  0.45440  0.01910  Biso   1.000  H
  C277     1.0000 0.16102  0.47440  0.41360  Biso   1.000  C
  C278     1.0000 0.33898  0.02560  0.41360  Biso   1.000  C
  C279     1.0000 0.83898  0.97440  0.08640  Biso   1.000  C
  C280     1.0000 0.66102  0.52560  0.08640  Biso   1.000  C
  C281     1.0000 0.83898  0.52560  0.58640  Biso   1.000  C
  C282     1.0000 0.66102  0.97440  0.58640  Biso   1.000  C
  C283     1.0000 0.16102  0.02560  0.91360  Biso   1.000  C
  C284     1.0000 0.33898  0.47440  0.91360  Biso   1.000  C
  H161     1.0000 0.17170  0.44340  0.36570  Biso   1.000  H
  H162     1.0000 0.32830  0.05660  0.36570  Biso   1.000  H
  H163     1.0000 0.82830  0.94340  0.13430  Biso   1.000  H
  H164     1.0000 0.67170  0.55660  0.13430  Biso   1.000  H
  H165     1.0000 0.82830  0.55660  0.63430  Biso   1.000  H
  H166     1.0000 0.67170  0.94340  0.63430  Biso   1.000  H
  H167     1.0000 0.17170  0.05660  0.86570  Biso   1.000  H
  H168     1.0000 0.32830  0.44340  0.86570  Biso   1.000  H
  C285     1.0000 0.16337  0.52440  0.67900  Biso   1.000  C
  C286     1.0000 0.33663  0.97560  0.67900  Biso   1.000  C
  C287     1.0000 0.83663  0.02440  0.82100  Biso   1.000  C
  C288     1.0000 0.66337  0.47560  0.82100  Biso   1.000  C
  C289     1.0000 0.83663  0.47560  0.32100  Biso   1.000  C
  C290     1.0000 0.66337  0.02440  0.32100  Biso   1.000  C
  C291     1.0000 0.16337  0.97560  0.17900  Biso   1.000  C
  C292     1.0000 0.33663  0.52440  0.17900  Biso   1.000  C
  H169     1.0000 0.16000  0.45110  0.70710  Biso   1.000  H
  H170     1.0000 0.34000  0.04890  0.70710  Biso   1.000  H
  H171     1.0000 0.84000  0.95110  0.79290  Biso   1.000  H
  H172     1.0000 0.66000  0.54890  0.79290  Biso   1.000  H
  H173     1.0000 0.84000  0.54890  0.29290  Biso   1.000  H
  H174     1.0000 0.66000  0.95110  0.29290  Biso   1.000  H
  H175     1.0000 0.16000  0.04890  0.20710  Biso   1.000  H
  H176     1.0000 0.34000  0.45110  0.20710  Biso   1.000  H
  H177     1.0000 0.15350  0.58140  0.71340  Biso   1.000  H
  H178     1.0000 0.34650  0.91860  0.71340  Biso   1.000  H
  H179     1.0000 0.84650  0.08140  0.78660  Biso   1.000  H
  H180     1.0000 0.65350  0.41860  0.78660  Biso   1.000  H
  H181     1.0000 0.84650  0.41860  0.28660  Biso   1.000  H
  H182     1.0000 0.65350  0.08140  0.28660  Biso   1.000  H
  H183     1.0000 0.15350  0.91860  0.21340  Biso   1.000  H
  H184     1.0000 0.34650  0.58140  0.21340  Biso   1.000  H
  H185     1.0000 0.18200  0.54130  0.68300  Biso   1.000  H
  H186     1.0000 0.31800  0.95870  0.68300  Biso   1.000  H
  H187     1.0000 0.81800  0.04130  0.81700  Biso   1.000  H
  H188     1.0000 0.68200  0.45870  0.81700  Biso   1.000  H
  H189     1.0000 0.81800  0.45870  0.31700  Biso   1.000  H
  H190     1.0000 0.68200  0.04130  0.31700  Biso   1.000  H
  H191     1.0000 0.18200  0.95870  0.18300  Biso   1.000  H
  H192     1.0000 0.31800  0.54130  0.18300  Biso   1.000  H
  C293     1.0000 0.15525  0.80420  0.40670  Biso   1.000  C
  C294     1.0000 0.34475  0.69580  0.40670  Biso   1.000  C
  C295     1.0000 0.84475  0.30420  0.09330  Biso   1.000  C
  C296     1.0000 0.65525  0.19580  0.09330  Biso   1.000  C
  C297     1.0000 0.84475  0.19580  0.59330  Biso   1.000  C
  C298     1.0000 0.65525  0.30420  0.59330  Biso   1.000  C
  C299     1.0000 0.15525  0.69580  0.90670  Biso   1.000  C
  C300     1.0000 0.34475  0.80420  0.90670  Biso   1.000  C
  C301     1.0000 0.18003  0.78330  0.35507  Biso   1.000  C
  C302     1.0000 0.31997  0.71670  0.35507  Biso   1.000  C
  C303     1.0000 0.81997  0.28330  0.14493  Biso   1.000  C
  C304     1.0000 0.68003  0.21670  0.14493  Biso   1.000  C
  C305     1.0000 0.81997  0.21670  0.64493  Biso   1.000  C
  C306     1.0000 0.68003  0.28330  0.64493  Biso   1.000  C
  C307     1.0000 0.18003  0.71670  0.85507  Biso   1.000  C
  C308     1.0000 0.31997  0.78330  0.85507  Biso   1.000  C
  C309     1.0000 0.20262  0.84070  0.37852  Biso   1.000  C
  C310     1.0000 0.29738  0.65930  0.37852  Biso   1.000  C
  C311     1.0000 0.79738  0.34070  0.12148  Biso   1.000  C
  C312     1.0000 0.70262  0.15930  0.12148  Biso   1.000  C
  C313     1.0000 0.79738  0.15930  0.62148  Biso   1.000  C
  C314     1.0000 0.70262  0.34070  0.62148  Biso   1.000  C
  C315     1.0000 0.20262  0.65930  0.87852  Biso   1.000  C
  C316     1.0000 0.29738  0.84070  0.87852  Biso   1.000  C
  H193     1.0000 0.20270  0.89050  0.43080  Biso   1.000  H
  H194     1.0000 0.29730  0.60950  0.43080  Biso   1.000  H
  H195     1.0000 0.79730  0.39050  0.06920  Biso   1.000  H
  H196     1.0000 0.70270  0.10950  0.06920  Biso   1.000  H
  H197     1.0000 0.79730  0.10950  0.56920  Biso   1.000  H
  H198     1.0000 0.70270  0.39050  0.56920  Biso   1.000  H
  H199     1.0000 0.20270  0.60950  0.93080  Biso   1.000  H
  H200     1.0000 0.29730  0.89050  0.93080  Biso   1.000  H
  C317     1.0000 0.18026  0.71030  0.27890  Biso   1.000  C
  C318     1.0000 0.31974  0.78970  0.27890  Biso   1.000  C
  C319     1.0000 0.81974  0.21030  0.22110  Biso   1.000  C
  C320     1.0000 0.68026  0.28970  0.22110  Biso   1.000  C
  C321     1.0000 0.81974  0.28970  0.72110  Biso   1.000  C
  C322     1.0000 0.68026  0.21030  0.72110  Biso   1.000  C
  C323     1.0000 0.18026  0.78970  0.77890  Biso   1.000  C
  C324     1.0000 0.31974  0.71030  0.77890  Biso   1.000  C
  H201     1.0000 0.16500  0.67020  0.26300  Biso   1.000  H
  H202     1.0000 0.33500  0.82980  0.26300  Biso   1.000  H
  H203     1.0000 0.83500  0.17020  0.23700  Biso   1.000  H
  H204     1.0000 0.66500  0.32980  0.23700  Biso   1.000  H
  H205     1.0000 0.83500  0.32980  0.73700  Biso   1.000  H
  H206     1.0000 0.66500  0.17020  0.73700  Biso   1.000  H
  H207     1.0000 0.16500  0.82980  0.76300  Biso   1.000  H
  H208     1.0000 0.33500  0.67020  0.76300  Biso   1.000  H
  C325     1.0000 0.22496  0.82520  0.32586  Biso   1.000  C
  C326     1.0000 0.27504  0.67480  0.32586  Biso   1.000  C
  C327     1.0000 0.77504  0.32520  0.17414  Biso   1.000  C
  C328     1.0000 0.72496  0.17480  0.17414  Biso   1.000  C
  C329     1.0000 0.77504  0.17480  0.67414  Biso   1.000  C
  C330     1.0000 0.72496  0.32520  0.67414  Biso   1.000  C
  C331     1.0000 0.22496  0.67480  0.82586  Biso   1.000  C
  C332     1.0000 0.27504  0.82520  0.82586  Biso   1.000  C
  H209     1.0000 0.24030  0.86430  0.34270  Biso   1.000  H
  H210     1.0000 0.25970  0.63570  0.34270  Biso   1.000  H
  H211     1.0000 0.75970  0.36430  0.15730  Biso   1.000  H
  H212     1.0000 0.74030  0.13570  0.15730  Biso   1.000  H
  H213     1.0000 0.75970  0.13570  0.65730  Biso   1.000  H
  H214     1.0000 0.74030  0.36430  0.65730  Biso   1.000  H
  H215     1.0000 0.24030  0.63570  0.84270  Biso   1.000  H
  H216     1.0000 0.25970  0.86430  0.84270  Biso   1.000  H
  C333     1.0000 0.20260  0.69530  0.22600  Biso   1.000  C
  C334     1.0000 0.29740  0.80470  0.22600  Biso   1.000  C
  C335     1.0000 0.79740  0.19530  0.27400  Biso   1.000  C
  C336     1.0000 0.70260  0.30470  0.27400  Biso   1.000  C
  C337     1.0000 0.79740  0.30470  0.77400  Biso   1.000  C
  C338     1.0000 0.70260  0.19530  0.77400  Biso   1.000  C
  C339     1.0000 0.20260  0.80470  0.72600  Biso   1.000  C
  C340     1.0000 0.29740  0.69530  0.72600  Biso   1.000  C
  H217     1.0000 0.20250  0.64520  0.17380  Biso   1.000  H
  H218     1.0000 0.29750  0.85480  0.17380  Biso   1.000  H
  H219     1.0000 0.79750  0.14520  0.32620  Biso   1.000  H
  H220     1.0000 0.70250  0.35480  0.32620  Biso   1.000  H
  H221     1.0000 0.79750  0.35480  0.82620  Biso   1.000  H
  H222     1.0000 0.70250  0.14520  0.82620  Biso   1.000  H
  H223     1.0000 0.20250  0.85480  0.67380  Biso   1.000  H
  H224     1.0000 0.29750  0.64520  0.67380  Biso   1.000  H
  C341     1.0000 0.22524  0.75330  0.24873  Biso   1.000  C
  C342     1.0000 0.27476  0.74670  0.24873  Biso   1.000  C
  C343     1.0000 0.77476  0.25330  0.25127  Biso   1.000  C
  C344     1.0000 0.72524  0.24670  0.25127  Biso   1.000  C
  C345     1.0000 0.77476  0.24670  0.75127  Biso   1.000  C
  C346     1.0000 0.72524  0.25330  0.75127  Biso   1.000  C
  C347     1.0000 0.22524  0.74670  0.74873  Biso   1.000  C
  C348     1.0000 0.27476  0.75330  0.74873  Biso   1.000  C
  C349     1.0000 0.25000  0.75000  0.18730  Biso   1.000  C
  C350     1.0000 0.75000  0.25000  0.31270  Biso   1.000  C
  C351     1.0000 0.75000  0.25000  0.81270  Biso   1.000  C
  C352     1.0000 0.25000  0.75000  0.68730  Biso   1.000  C
  C353     1.0000 0.25145  0.64570  0.12340  Biso   1.000  C
  C354     1.0000 0.24855  0.85430  0.12340  Biso   1.000  C
  C355     1.0000 0.74855  0.14570  0.37660  Biso   1.000  C
  C356     1.0000 0.75145  0.35430  0.37660  Biso   1.000  C
  C357     1.0000 0.74855  0.35430  0.87660  Biso   1.000  C
  C358     1.0000 0.75145  0.14570  0.87660  Biso   1.000  C
  C359     1.0000 0.25145  0.85430  0.62340  Biso   1.000  C
  C360     1.0000 0.24855  0.64570  0.62340  Biso   1.000  C
  C361     1.0000 0.10422  0.30250  0.42170  Biso   1.000  C
  C362     1.0000 0.39578  0.19750  0.42170  Biso   1.000  C
  C363     1.0000 0.89578  0.80250  0.07830  Biso   1.000  C
  C364     1.0000 0.60422  0.69750  0.07830  Biso   1.000  C
  C365     1.0000 0.89578  0.69750  0.57830  Biso   1.000  C
  C366     1.0000 0.60422  0.80250  0.57830  Biso   1.000  C
  C367     1.0000 0.10422  0.19750  0.92170  Biso   1.000  C
  C368     1.0000 0.39578  0.30250  0.92170  Biso   1.000  C
  Cu1      1.0000 0.11767  0.47964  0.26928  Biso   1.000  Cu
  Cu2      1.0000 0.38233  0.02036  0.26928  Biso   1.000  Cu
  Cu3      1.0000 0.88233  0.97964  0.23072  Biso   1.000  Cu
  Cu4      1.0000 0.61767  0.52036  0.23072  Biso   1.000  Cu
  Cu5      1.0000 0.88233  0.52036  0.73072  Biso   1.000  Cu
  Cu6      1.0000 0.61767  0.97964  0.73072  Biso   1.000  Cu
  Cu7      1.0000 0.11767  0.02036  0.76928  Biso   1.000  Cu
  Cu8      1.0000 0.38233  0.47964  0.76928  Biso   1.000  Cu
  F1       1.0000 0.24730  0.55272  0.17339  Biso   1.000  F
  F2       1.0000 0.25270  0.94728  0.17339  Biso   1.000  F
  F3       1.0000 0.75270  0.05272  0.32661  Biso   1.000  F
  F4       1.0000 0.74730  0.44728  0.32661  Biso   1.000  F
  F5       1.0000 0.75270  0.44728  0.82661  Biso   1.000  F
  F6       1.0000 0.74730  0.05272  0.82661  Biso   1.000  F
  F7       1.0000 0.24730  0.94728  0.67339  Biso   1.000  F
  F8       1.0000 0.25270  0.55272  0.67339  Biso   1.000  F
  F9       1.0000 0.23413  0.64721  0.05282  Biso   1.000  F
  F10      1.0000 0.26587  0.85279  0.05282  Biso   1.000  F
  F11      1.0000 0.76587  0.14721  0.44718  Biso   1.000  F
  F12      1.0000 0.73413  0.35279  0.44718  Biso   1.000  F
  F13      1.0000 0.76587  0.35279  0.94718  Biso   1.000  F
  F14      1.0000 0.73413  0.14721  0.94718  Biso   1.000  F
  F15      1.0000 0.23413  0.85279  0.55282  Biso   1.000  F
  F16      1.0000 0.26587  0.64721  0.55282  Biso   1.000  F
  F17      1.0000 0.27485  0.63472  0.08314  Biso   1.000  F
  F18      1.0000 0.22515  0.86528  0.08314  Biso   1.000  F
  F19      1.0000 0.72515  0.13472  0.41686  Biso   1.000  F
  F20      1.0000 0.77485  0.36528  0.41686  Biso   1.000  F
  F21      1.0000 0.72515  0.36528  0.91686  Biso   1.000  F
  F22      1.0000 0.77485  0.13472  0.91686  Biso   1.000  F
  F23      1.0000 0.27485  0.86528  0.58314  Biso   1.000  F
  F24      1.0000 0.22515  0.63472  0.58314  Biso   1.000  F
  F25      1.0000 0.00835  0.53484  0.81303  Biso   1.000  F
  F26      1.0000 0.49165  0.96516  0.81303  Biso   1.000  F
  F27      1.0000 0.99165  0.03484  0.68697  Biso   1.000  F
  F28      1.0000 0.50835  0.46516  0.68697  Biso   1.000  F
  F29      1.0000 0.99165  0.46516  0.18697  Biso   1.000  F
  F30      1.0000 0.50835  0.03484  0.18697  Biso   1.000  F
  F31      1.0000 0.00835  0.96516  0.31303  Biso   1.000  F
  F32      1.0000 0.49165  0.53484  0.31303  Biso   1.000  F
  F33      1.0000 0.00140  0.48467  0.66932  Biso   1.000  F
  F34      1.0000 0.49860  0.01533  0.66932  Biso   1.000  F
  F35      1.0000 0.99860  0.98467  0.83068  Biso   1.000  F
  F36      1.0000 0.50140  0.51533  0.83068  Biso   1.000  F
  F37      1.0000 0.99860  0.51533  0.33068  Biso   1.000  F
  F38      1.0000 0.50140  0.98467  0.33068  Biso   1.000  F
  F39      1.0000 0.00140  0.01533  0.16932  Biso   1.000  F
  F40      1.0000 0.49860  0.48467  0.16932  Biso   1.000  F
  F41      1.0000 0.03305  0.59588  0.70139  Biso   1.000  F
  F42      1.0000 0.46695  0.90412  0.70139  Biso   1.000  F
  F43      1.0000 0.96695  0.09588  0.79861  Biso   1.000  F
  F44      1.0000 0.53305  0.40412  0.79861  Biso   1.000  F
  F45      1.0000 0.96695  0.40412  0.29861  Biso   1.000  F
  F46      1.0000 0.53305  0.09588  0.29861  Biso   1.000  F
  F47      1.0000 0.03305  0.90412  0.20139  Biso   1.000  F
  F48      1.0000 0.46695  0.59588  0.20139  Biso   1.000  F
  F49      1.0000 0.01289  0.26694  0.67394  Biso   1.000  F
  F50      1.0000 0.48711  0.23306  0.67394  Biso   1.000  F
  F51      1.0000 0.98711  0.76694  0.82606  Biso   1.000  F
  F52      1.0000 0.51289  0.73306  0.82606  Biso   1.000  F
  F53      1.0000 0.98711  0.73306  0.32606  Biso   1.000  F
  F54      1.0000 0.51289  0.76694  0.32606  Biso   1.000  F
  F55      1.0000 0.01289  0.23306  0.17394  Biso   1.000  F
  F56      1.0000 0.48711  0.26694  0.17394  Biso   1.000  F
  F57      1.0000 0.00259  0.31022  0.81701  Biso   1.000  F
  F58      1.0000 0.49741  0.18978  0.81701  Biso   1.000  F
  F59      1.0000 0.99741  0.81022  0.68299  Biso   1.000  F
  F60      1.0000 0.50259  0.68978  0.68299  Biso   1.000  F
  F61      1.0000 0.99741  0.68978  0.18299  Biso   1.000  F
  F62      1.0000 0.50259  0.81022  0.18299  Biso   1.000  F
  F63      1.0000 0.00259  0.18978  0.31701  Biso   1.000  F
  F64      1.0000 0.49741  0.31022  0.31701  Biso   1.000  F
  F65      1.0000 0.03735  0.21469  0.78925  Biso   1.000  F
  F66      1.0000 0.46265  0.28531  0.78925  Biso   1.000  F
  F67      1.0000 0.96265  0.71469  0.71075  Biso   1.000  F
  F68      1.0000 0.53735  0.78531  0.71075  Biso   1.000  F
  F69      1.0000 0.96265  0.78531  0.21075  Biso   1.000  F
  F70      1.0000 0.53735  0.71469  0.21075  Biso   1.000  F
  F71      1.0000 0.03735  0.28531  0.28925  Biso   1.000  F
  F72      1.0000 0.46265  0.21469  0.28925  Biso   1.000  F
  F73      1.0000 0.21971  0.16155  0.87203  Biso   1.000  F
  F74      1.0000 0.28029  0.33845  0.87203  Biso   1.000  F
  F75      1.0000 0.78029  0.66155  0.62797  Biso   1.000  F
  F76      1.0000 0.71971  0.83845  0.62797  Biso   1.000  F
  F77      1.0000 0.78029  0.83845  0.12797  Biso   1.000  F
  F78      1.0000 0.71971  0.66155  0.12797  Biso   1.000  F
  F79      1.0000 0.21971  0.33845  0.37203  Biso   1.000  F
  F80      1.0000 0.28029  0.16155  0.37203  Biso   1.000  F
  F81      1.0000 0.24232  0.05470  0.96189  Biso   1.000  F
  F82      1.0000 0.25768  0.44530  0.96189  Biso   1.000  F
  F83      1.0000 0.75768  0.55470  0.53811  Biso   1.000  F
  F84      1.0000 0.74232  0.94530  0.53811  Biso   1.000  F
  F85      1.0000 0.75768  0.94530  0.03811  Biso   1.000  F
  F86      1.0000 0.74232  0.55470  0.03811  Biso   1.000  F
  F87      1.0000 0.24232  0.44530  0.46189  Biso   1.000  F
  F88      1.0000 0.25768  0.05470  0.46189  Biso   1.000  F
  F89      1.0000 0.26004  0.13403  0.84060  Biso   1.000  F
  F90      1.0000 0.23996  0.36597  0.84060  Biso   1.000  F
  F91      1.0000 0.73996  0.63403  0.65940  Biso   1.000  F
  F92      1.0000 0.76004  0.86597  0.65940  Biso   1.000  F
  F93      1.0000 0.73996  0.86597  0.15940  Biso   1.000  F
  F94      1.0000 0.76004  0.63403  0.15940  Biso   1.000  F
  F95      1.0000 0.26004  0.36597  0.34060  Biso   1.000  F
  F96      1.0000 0.23996  0.13403  0.34060  Biso   1.000  F
  N1       1.0000 0.09133  0.57490  0.33501  Biso   1.000  N
  N2       1.0000 0.40867  0.92510  0.33501  Biso   1.000  N
  N3       1.0000 0.90867  0.07490  0.16499  Biso   1.000  N
  N4       1.0000 0.59133  0.42510  0.16499  Biso   1.000  N
  N5       1.0000 0.90867  0.42510  0.66499  Biso   1.000  N
  N6       1.0000 0.59133  0.07490  0.66499  Biso   1.000  N
  N7       1.0000 0.09133  0.92510  0.83501  Biso   1.000  N
  N8       1.0000 0.40867  0.57490  0.83501  Biso   1.000  N
  N9       1.0000 0.13731  0.51087  0.38980  Biso   1.000  N
  N10      1.0000 0.36269  0.98913  0.38980  Biso   1.000  N
  N11      1.0000 0.86269  0.01087  0.11020  Biso   1.000  N
  N12      1.0000 0.63731  0.48913  0.11020  Biso   1.000  N
  N13      1.0000 0.86269  0.48913  0.61020  Biso   1.000  N
  N14      1.0000 0.63731  0.01087  0.61020  Biso   1.000  N
  N15      1.0000 0.13731  0.98913  0.88980  Biso   1.000  N
  N16      1.0000 0.36269  0.51087  0.88980  Biso   1.000  N
  O1       1.0000 0.09547  0.46078  0.15910  Biso   1.000  O
  O2       1.0000 0.40453  0.03922  0.15910  Biso   1.000  O
  O3       1.0000 0.90453  0.96078  0.34090  Biso   1.000  O
  O4       1.0000 0.59547  0.53922  0.34090  Biso   1.000  O
  O5       1.0000 0.90453  0.53922  0.84090  Biso   1.000  O
  O6       1.0000 0.59547  0.96078  0.84090  Biso   1.000  O
  O7       1.0000 0.09547  0.03922  0.65910  Biso   1.000  O
  O8       1.0000 0.40453  0.46078  0.65910  Biso   1.000  O
  O9       1.0000 0.11626  0.59644  0.08287  Biso   1.000  O
  O10      1.0000 0.38374  0.90356  0.08287  Biso   1.000  O
  O11      1.0000 0.88374  0.09644  0.41713  Biso   1.000  O
  O12      1.0000 0.61626  0.40356  0.41713  Biso   1.000  O
  O13      1.0000 0.88374  0.40356  0.91713  Biso   1.000  O
  O14      1.0000 0.61626  0.09644  0.91713  Biso   1.000  O
  O15      1.0000 0.11626  0.90356  0.58287  Biso   1.000  O
  O16      1.0000 0.38374  0.59644  0.58287  Biso   1.000  O
  O17      1.0000 0.14678  0.41221  0.20462  Biso   1.000  O
  O18      1.0000 0.35322  0.08779  0.20462  Biso   1.000  O
  O19      1.0000 0.85322  0.91221  0.29538  Biso   1.000  O
  O20      1.0000 0.64678  0.58779  0.29538  Biso   1.000  O
  O21      1.0000 0.85322  0.58779  0.79538  Biso   1.000  O
  O22      1.0000 0.64678  0.91221  0.79538  Biso   1.000  O
  O23      1.0000 0.14678  0.08779  0.70462  Biso   1.000  O
  O24      1.0000 0.35322  0.41221  0.70462  Biso   1.000  O
  O25      1.0000 0.15446  0.25147  0.28219  Biso   1.000  O
  O26      1.0000 0.34554  0.24853  0.28219  Biso   1.000  O
  O27      1.0000 0.84554  0.75147  0.21781  Biso   1.000  O
  O28      1.0000 0.65446  0.74853  0.21781  Biso   1.000  O
  O29      1.0000 0.84554  0.74853  0.71781  Biso   1.000  O
  O30      1.0000 0.65446  0.75147  0.71781  Biso   1.000  O
  O31      1.0000 0.15446  0.24853  0.78219  Biso   1.000  O
  O32      1.0000 0.34554  0.25147  0.78219  Biso   1.000  O
  O33      1.0000 0.13435  0.77499  0.37492  Biso   1.000  O
  O34      1.0000 0.36565  0.72501  0.37492  Biso   1.000  O
  O35      1.0000 0.86565  0.27499  0.12508  Biso   1.000  O
  O36      1.0000 0.63435  0.22501  0.12508  Biso   1.000  O
  O37      1.0000 0.86565  0.22501  0.62508  Biso   1.000  O
  O38      1.0000 0.63435  0.27499  0.62508  Biso   1.000  O
  O39      1.0000 0.13435  0.72501  0.87492  Biso   1.000  O
  O40      1.0000 0.36565  0.77499  0.87492  Biso   1.000  O
  O41      1.0000 0.15815  0.85837  0.48716  Biso   1.000  O
  O42      1.0000 0.34185  0.64163  0.48716  Biso   1.000  O
  O43      1.0000 0.84185  0.35837  0.01284  Biso   1.000  O
  O44      1.0000 0.65815  0.14163  0.01284  Biso   1.000  O
  O45      1.0000 0.84185  0.14163  0.51284  Biso   1.000  O
  O46      1.0000 0.65815  0.35837  0.51284  Biso   1.000  O
  O47      1.0000 0.15815  0.64163  0.98716  Biso   1.000  O
  O48      1.0000 0.34185  0.85837  0.98716  Biso   1.000  O
  H225     1.0000 0.14350  0.86870  0.51220  Biso   1.000  H
  H226     1.0000 0.35650  0.63130  0.51220  Biso   1.000  H
  H227     1.0000 0.85650  0.36870  0.98780  Biso   1.000  H
  H228     1.0000 0.64350  0.13130  0.98780  Biso   1.000  H
  H229     1.0000 0.85650  0.13130  0.48780  Biso   1.000  H
  H230     1.0000 0.64350  0.36870  0.48780  Biso   1.000  H
  H231     1.0000 0.14350  0.63130  0.01220  Biso   1.000  H
  H232     1.0000 0.35650  0.86870  0.01220  Biso   1.000  H
  O49      1.0000 0.10588  0.77700  0.20406  Biso   1.000  O
  O50      1.0000 0.39412  0.72300  0.20406  Biso   1.000  O
  O51      1.0000 0.89412  0.27700  0.29594  Biso   1.000  O
  O52      1.0000 0.60588  0.22300  0.29594  Biso   1.000  O
  O53      1.0000 0.89412  0.22300  0.79594  Biso   1.000  O
  O54      1.0000 0.60588  0.27700  0.79594  Biso   1.000  O
  O55      1.0000 0.10588  0.72300  0.70406  Biso   1.000  O
  O56      1.0000 0.39412  0.77700  0.70406  Biso   1.000  O
  O57      1.0000 0.12658  0.25154  0.43754  Biso   1.000  O
  O58      1.0000 0.37342  0.24846  0.43754  Biso   1.000  O
  O59      1.0000 0.87342  0.75154  0.06246  Biso   1.000  O
  O60      1.0000 0.62658  0.74846  0.06246  Biso   1.000  O
  O61      1.0000 0.87342  0.74846  0.56246  Biso   1.000  O
  O62      1.0000 0.62658  0.75154  0.56246  Biso   1.000  O
  O63      1.0000 0.12658  0.24846  0.93754  Biso   1.000  O
  O64      1.0000 0.37342  0.25154  0.93754  Biso   1.000  O
  O65      1.0000 0.09727  0.32996  0.34218  Biso   1.000  O
  O66      1.0000 0.40273  0.17004  0.34218  Biso   1.000  O
  O67      1.0000 0.90273  0.82996  0.15782  Biso   1.000  O
  O68      1.0000 0.59727  0.67004  0.15782  Biso   1.000  O
  O69      1.0000 0.90273  0.67004  0.65782  Biso   1.000  O
  O70      1.0000 0.59727  0.82996  0.65782  Biso   1.000  O
  O71      1.0000 0.09727  0.17004  0.84218  Biso   1.000  O
  O72      1.0000 0.40273  0.32996  0.84218  Biso   1.000  O
