data_image0
_cell_length_a       22.247
_cell_length_b       11.7997
_cell_length_c       39.9452
_cell_angle_alpha    90
_cell_angle_beta     102.201
_cell_angle_gamma    90

_symmetry_space_group_name_H-M    "P 1"
_symmetry_int_tables_number       1

loop_
  _symmetry_equiv_pos_as_xyz
  'x, y, z'

loop_
  _atom_site_label
  _atom_site_occupancy
  _atom_site_fract_x
  _atom_site_fract_y
  _atom_site_fract_z
  _atom_site_thermal_displace_type
  _atom_site_B_iso_or_equiv
  _atom_site_type_symbol
  W1       1.0000 0.83037  0.91405  0.37384  Biso   1.000  W
  W2       1.0000 0.66963  0.41405  0.12616  Biso   1.000  W
  W3       1.0000 0.16963  0.08595  0.62616  Biso   1.000  W
  W4       1.0000 0.33037  0.58595  0.87384  Biso   1.000  W
  W5       1.0000 0.83637  0.73721  0.44148  Biso   1.000  W
  W6       1.0000 0.66363  0.23721  0.05852  Biso   1.000  W
  W7       1.0000 0.16363  0.26279  0.55852  Biso   1.000  W
  W8       1.0000 0.33637  0.76279  0.94148  Biso   1.000  W
  W9       1.0000 0.79865  0.63924  0.35880  Biso   1.000  W
  W10      1.0000 0.70135  0.13924  0.14120  Biso   1.000  W
  W11      1.0000 0.20135  0.36076  0.64120  Biso   1.000  W
  W12      1.0000 0.29865  0.86076  0.85880  Biso   1.000  W
  W13      1.0000 0.69657  0.62148  0.46036  Biso   1.000  W
  W14      1.0000 0.80343  0.12148  0.03964  Biso   1.000  W
  W15      1.0000 0.30343  0.37852  0.53964  Biso   1.000  W
  W16      1.0000 0.19657  0.87852  0.96036  Biso   1.000  W
  W17      1.0000 0.65628  0.51607  0.37818  Biso   1.000  W
  W18      1.0000 0.84372  0.01607  0.12182  Biso   1.000  W
  W19      1.0000 0.34372  0.48393  0.62182  Biso   1.000  W
  W20      1.0000 0.15628  0.98393  0.87818  Biso   1.000  W
  W21      1.0000 0.55901  0.68249  0.40972  Biso   1.000  W
  W22      1.0000 0.94099  0.18249  0.09028  Biso   1.000  W
  W23      1.0000 0.44099  0.31751  0.59028  Biso   1.000  W
  W24      1.0000 0.05901  0.81751  0.90972  Biso   1.000  W
  W25      1.0000 0.64574  0.72330  0.30671  Biso   1.000  W
  W26      1.0000 0.85426  0.22330  0.19329  Biso   1.000  W
  W27      1.0000 0.35426  0.27670  0.69329  Biso   1.000  W
  W28      1.0000 0.14574  0.77670  0.80671  Biso   1.000  W
  W29      1.0000 0.55105  0.88956  0.34067  Biso   1.000  W
  W30      1.0000 0.94895  0.38956  0.15933  Biso   1.000  W
  W31      1.0000 0.44895  0.11044  0.65933  Biso   1.000  W
  W32      1.0000 0.05105  0.61044  0.84067  Biso   1.000  W
  W33      1.0000 0.67993  0.99896  0.32282  Biso   1.000  W
  W34      1.0000 0.82007  0.49896  0.17718  Biso   1.000  W
  W35      1.0000 0.32007  0.00104  0.67718  Biso   1.000  W
  W36      1.0000 0.17993  0.50104  0.82282  Biso   1.000  W
  W37      1.0000 0.60251  0.98338  0.43292  Biso   1.000  W
  W38      1.0000 0.89749  0.48338  0.06708  Biso   1.000  W
  W39      1.0000 0.39749  0.01662  0.56708  Biso   1.000  W
  W40      1.0000 0.10251  0.51662  0.93292  Biso   1.000  W
  W41      1.0000 0.72822  0.09122  0.41542  Biso   1.000  W
  W42      1.0000 0.77178  0.59122  0.08458  Biso   1.000  W
  W43      1.0000 0.27178  0.90878  0.58458  Biso   1.000  W
  W44      1.0000 0.22822  0.40878  0.91542  Biso   1.000  W
  W45      1.0000 0.81414  0.22435  0.66121  Biso   1.000  W
  W46      1.0000 0.68586  0.72435  0.83879  Biso   1.000  W
  W47      1.0000 0.18586  0.77565  0.33879  Biso   1.000  W
  W48      1.0000 0.31414  0.27565  0.16121  Biso   1.000  W
  W49      1.0000 0.44866  0.40143  0.15830  Biso   1.000  W
  W50      1.0000 0.05134  0.90143  0.34170  Biso   1.000  W
  W51      1.0000 0.55134  0.59857  0.84170  Biso   1.000  W
  W52      1.0000 0.94866  0.09857  0.65830  Biso   1.000  W
  W53      1.0000 0.85861  0.99257  0.70841  Biso   1.000  W
  W54      1.0000 0.64139  0.49257  0.79159  Biso   1.000  W
  W55      1.0000 0.14139  0.00743  0.29159  Biso   1.000  W
  W56      1.0000 0.35861  0.50743  0.20841  Biso   1.000  W
  W57      1.0000 0.45050  0.68037  0.11776  Biso   1.000  W
  W58      1.0000 0.04950  0.18037  0.38224  Biso   1.000  W
  W59      1.0000 0.54950  0.31963  0.88224  Biso   1.000  W
  W60      1.0000 0.95050  0.81963  0.61776  Biso   1.000  W
  W61      1.0000 0.36017  0.79133  0.16662  Biso   1.000  W
  W62      1.0000 0.13983  0.29133  0.33338  Biso   1.000  W
  W63      1.0000 0.63983  0.20867  0.83338  Biso   1.000  W
  W64      1.0000 0.86017  0.70867  0.66662  Biso   1.000  W
  W65      1.0000 0.31741  0.80127  0.07893  Biso   1.000  W
  W66      1.0000 0.18259  0.30127  0.42107  Biso   1.000  W
  W67      1.0000 0.68259  0.19873  0.92107  Biso   1.000  W
  W68      1.0000 0.81741  0.69873  0.57893  Biso   1.000  W
  W69      1.0000 0.71213  0.84676  0.67061  Biso   1.000  W
  W70      1.0000 0.78787  0.34676  0.82939  Biso   1.000  W
  W71      1.0000 0.28787  0.15324  0.32939  Biso   1.000  W
  W72      1.0000 0.21213  0.65324  0.17061  Biso   1.000  W
  W73      1.0000 0.67126  0.83170  0.58290  Biso   1.000  W
  W74      1.0000 0.82874  0.33170  0.91710  Biso   1.000  W
  W75      1.0000 0.32874  0.16830  0.41710  Biso   1.000  W
  W76      1.0000 0.17126  0.66830  0.08290  Biso   1.000  W
  W77      1.0000 0.66836  0.08193  0.62416  Biso   1.000  W
  W78      1.0000 0.83164  0.58193  0.87584  Biso   1.000  W
  W79      1.0000 0.33164  0.91807  0.37584  Biso   1.000  W
  W80      1.0000 0.16836  0.41807  0.12416  Biso   1.000  W
  W81      1.0000 0.76367  0.18917  0.56494  Biso   1.000  W
  W82      1.0000 0.73633  0.68917  0.93506  Biso   1.000  W
  W83      1.0000 0.23633  0.81083  0.43506  Biso   1.000  W
  W84      1.0000 0.26367  0.31083  0.06494  Biso   1.000  W
  W85      1.0000 0.39562  0.43041  0.06208  Biso   1.000  W
  W86      1.0000 0.10438  0.93041  0.43792  Biso   1.000  W
  W87      1.0000 0.60438  0.56959  0.93792  Biso   1.000  W
  W88      1.0000 0.89562  0.06959  0.56208  Biso   1.000  W
  Sm1      1.0000 0.75152  0.92945  0.50336  Biso   1.000  Sm
  Sm2      1.0000 0.74848  0.42945  0.99664  Biso   1.000  Sm
  Sm3      1.0000 0.24848  0.07055  0.49664  Biso   1.000  Sm
  Sm4      1.0000 0.25152  0.57055  0.00336  Biso   1.000  Sm
  Cu1      1.0000 0.50000  0.00000  0.50000  Biso   1.000  Cu
  Cu2      1.0000 0.00000  0.50000  0.00000  Biso   1.000  Cu
  Cu3      1.0000 0.50000  0.50000  0.00000  Biso   1.000  Cu
  Cu4      1.0000 0.00000  0.00000  0.50000  Biso   1.000  Cu
  Cu5      1.0000 0.73711  0.29062  0.28713  Biso   1.000  Cu
  Cu6      1.0000 0.76289  0.79062  0.21287  Biso   1.000  Cu
  Cu7      1.0000 0.26289  0.70938  0.71287  Biso   1.000  Cu
  Cu8      1.0000 0.23711  0.20938  0.78713  Biso   1.000  Cu
  Cu9      1.0000 0.41549  0.93790  0.25491  Biso   1.000  Cu
  Cu10     1.0000 0.08451  0.43790  0.24509  Biso   1.000  Cu
  Cu11     1.0000 0.58451  0.06210  0.74509  Biso   1.000  Cu
  Cu12     1.0000 0.91549  0.56210  0.75491  Biso   1.000  Cu
  N1       1.0000 0.41860  0.77190  0.26891  Biso   1.000  N
  N2       1.0000 0.08140  0.27190  0.23109  Biso   1.000  N
  N3       1.0000 0.58140  0.22810  0.73109  Biso   1.000  N
  N4       1.0000 0.91860  0.72810  0.76891  Biso   1.000  N
  H1       1.0000 0.45720  0.75380  0.27960  Biso   1.000  H
  H2       1.0000 0.04280  0.25380  0.22040  Biso   1.000  H
  H3       1.0000 0.54280  0.24620  0.72040  Biso   1.000  H
  H4       1.0000 0.95720  0.74620  0.77960  Biso   1.000  H
  H5       1.0000 0.40830  0.72830  0.25010  Biso   1.000  H
  H6       1.0000 0.09170  0.22830  0.24990  Biso   1.000  H
  H7       1.0000 0.59170  0.27170  0.74990  Biso   1.000  H
  H8       1.0000 0.90830  0.77170  0.75010  Biso   1.000  H
  N5       1.0000 0.33320  0.92410  0.26747  Biso   1.000  N
  N6       1.0000 0.16680  0.42410  0.23253  Biso   1.000  N
  N7       1.0000 0.66680  0.07590  0.73253  Biso   1.000  N
  N8       1.0000 0.83320  0.57590  0.76747  Biso   1.000  N
  H9       1.0000 0.30380  0.95380  0.25080  Biso   1.000  H
  H10      1.0000 0.19620  0.45380  0.24920  Biso   1.000  H
  H11      1.0000 0.69620  0.04620  0.74920  Biso   1.000  H
  H12      1.0000 0.80380  0.54620  0.75080  Biso   1.000  H
  H13      1.0000 0.33330  0.96230  0.28700  Biso   1.000  H
  H14      1.0000 0.16670  0.46230  0.21300  Biso   1.000  H
  H15      1.0000 0.66670  0.03770  0.71300  Biso   1.000  H
  H16      1.0000 0.83330  0.53770  0.78700  Biso   1.000  H
  C1       1.0000 0.37870  0.75030  0.29049  Biso   1.000  C
  C2       1.0000 0.12130  0.25030  0.20951  Biso   1.000  C
  C3       1.0000 0.62130  0.24970  0.70951  Biso   1.000  C
  C4       1.0000 0.87870  0.74970  0.79049  Biso   1.000  C
  H17      1.0000 0.37460  0.66950  0.29390  Biso   1.000  H
  H18      1.0000 0.12540  0.16950  0.20610  Biso   1.000  H
  H19      1.0000 0.62540  0.33050  0.70610  Biso   1.000  H
  H20      1.0000 0.87460  0.83050  0.79390  Biso   1.000  H
  H21      1.0000 0.39270  0.78650  0.31260  Biso   1.000  H
  H22      1.0000 0.10730  0.28650  0.18740  Biso   1.000  H
  H23      1.0000 0.60730  0.21350  0.68740  Biso   1.000  H
  H24      1.0000 0.89270  0.71350  0.81260  Biso   1.000  H
  C5       1.0000 0.32010  0.79940  0.27223  Biso   1.000  C
  C6       1.0000 0.17990  0.29940  0.22777  Biso   1.000  C
  C7       1.0000 0.67990  0.20060  0.72777  Biso   1.000  C
  C8       1.0000 0.82010  0.70060  0.77223  Biso   1.000  C
  H25      1.0000 0.30630  0.76270  0.25020  Biso   1.000  H
  H26      1.0000 0.19370  0.26270  0.24980  Biso   1.000  H
  H27      1.0000 0.69370  0.23730  0.74980  Biso   1.000  H
  H28      1.0000 0.80630  0.73730  0.75020  Biso   1.000  H
  H29      1.0000 0.28870  0.79060  0.28550  Biso   1.000  H
  H30      1.0000 0.21130  0.29060  0.21450  Biso   1.000  H
  H31      1.0000 0.71130  0.20940  0.71450  Biso   1.000  H
  H32      1.0000 0.78870  0.70940  0.78550  Biso   1.000  H
  N9       1.0000 0.39320  0.09980  0.24614  Biso   1.000  N
  N10      1.0000 0.10680  0.59980  0.25386  Biso   1.000  N
  N11      1.0000 0.60680  0.90020  0.75386  Biso   1.000  N
  N12      1.0000 0.89320  0.40020  0.74614  Biso   1.000  N
  H33      1.0000 0.38310  0.13440  0.26430  Biso   1.000  H
  H34      1.0000 0.11690  0.63440  0.23570  Biso   1.000  H
  H35      1.0000 0.61690  0.86560  0.73570  Biso   1.000  H
  H36      1.0000 0.88310  0.36560  0.76430  Biso   1.000  H
  H37      1.0000 0.36340  0.11010  0.22730  Biso   1.000  H
  H38      1.0000 0.13660  0.61010  0.27270  Biso   1.000  H
  H39      1.0000 0.63660  0.88990  0.77270  Biso   1.000  H
  H40      1.0000 0.86340  0.38990  0.72730  Biso   1.000  H
  N13      1.0000 0.49978  0.94470  0.24448  Biso   1.000  N
  N14      1.0000 0.00022  0.44470  0.25552  Biso   1.000  N
  N15      1.0000 0.50022  0.05530  0.75552  Biso   1.000  N
  N16      1.0000 0.99978  0.55530  0.74448  Biso   1.000  N
  H41      1.0000 0.50470  0.89080  0.22940  Biso   1.000  H
  H42      1.0000 0.99530  0.39080  0.27060  Biso   1.000  H
  H43      1.0000 0.49530  0.10920  0.77060  Biso   1.000  H
  H44      1.0000 0.00470  0.60920  0.72940  Biso   1.000  H
  H45      1.0000 0.52920  0.93690  0.26360  Biso   1.000  H
  H46      1.0000 0.97080  0.43690  0.23640  Biso   1.000  H
  H47      1.0000 0.47080  0.06310  0.73640  Biso   1.000  H
  H48      1.0000 0.02920  0.56310  0.76360  Biso   1.000  H
  C9       1.0000 0.45440  0.13190  0.24106  Biso   1.000  C
  C10      1.0000 0.04560  0.63190  0.25894  Biso   1.000  C
  C11      1.0000 0.54560  0.86810  0.75894  Biso   1.000  C
  C12      1.0000 0.95440  0.36810  0.74106  Biso   1.000  C
  H49      1.0000 0.44740  0.19440  0.22490  Biso   1.000  H
  H50      1.0000 0.05260  0.69440  0.27510  Biso   1.000  H
  H51      1.0000 0.55260  0.80560  0.77510  Biso   1.000  H
  H52      1.0000 0.94740  0.30560  0.72490  Biso   1.000  H
  H53      1.0000 0.47540  0.16420  0.26270  Biso   1.000  H
  H54      1.0000 0.02460  0.66420  0.23730  Biso   1.000  H
  H55      1.0000 0.52460  0.83580  0.73730  Biso   1.000  H
  H56      1.0000 0.97540  0.33580  0.76270  Biso   1.000  H
  C13      1.0000 0.50120  0.05860  0.22973  Biso   1.000  C
  C14      1.0000 0.99880  0.55860  0.27027  Biso   1.000  C
  C15      1.0000 0.49880  0.94140  0.77027  Biso   1.000  C
  C16      1.0000 0.00120  0.44140  0.72973  Biso   1.000  C
  H57      1.0000 0.54180  0.09140  0.23720  Biso   1.000  H
  H58      1.0000 0.95820  0.59140  0.26280  Biso   1.000  H
  H59      1.0000 0.45820  0.90860  0.76280  Biso   1.000  H
  H60      1.0000 0.04180  0.40860  0.73720  Biso   1.000  H
  H61      1.0000 0.49230  0.05380  0.20490  Biso   1.000  H
  H62      1.0000 0.00770  0.55380  0.29510  Biso   1.000  H
  H63      1.0000 0.50770  0.94620  0.79510  Biso   1.000  H
  H64      1.0000 0.99230  0.44620  0.70490  Biso   1.000  H
  N17      1.0000 0.25720  0.19130  0.98138  Biso   1.000  N
  N18      1.0000 0.24280  0.69130  0.51862  Biso   1.000  N
  N19      1.0000 0.74280  0.80870  0.01862  Biso   1.000  N
  N20      1.0000 0.75720  0.30870  0.48138  Biso   1.000  N
  H65      1.0000 0.23760  0.12830  0.97720  Biso   1.000  H
  H66      1.0000 0.26240  0.62830  0.52280  Biso   1.000  H
  H67      1.0000 0.76240  0.87170  0.02280  Biso   1.000  H
  H68      1.0000 0.73760  0.37170  0.47720  Biso   1.000  H
  H69      1.0000 0.23810  0.25150  0.98530  Biso   1.000  H
  H70      1.0000 0.26190  0.75150  0.51470  Biso   1.000  H
  H71      1.0000 0.76190  0.74850  0.01470  Biso   1.000  H
  H72      1.0000 0.73810  0.24850  0.48530  Biso   1.000  H
  N21      1.0000 0.35880  0.01220  0.00629  Biso   1.000  N
  N22      1.0000 0.14120  0.51220  0.49371  Biso   1.000  N
  N23      1.0000 0.64120  0.98780  0.99371  Biso   1.000  N
  N24      1.0000 0.85880  0.48780  0.50629  Biso   1.000  N
  H73      1.0000 0.32230  0.97730  0.00440  Biso   1.000  H
  H74      1.0000 0.17770  0.47730  0.49560  Biso   1.000  H
  H75      1.0000 0.67770  0.02270  0.99560  Biso   1.000  H
  H76      1.0000 0.82230  0.52270  0.50440  Biso   1.000  H
  H77      1.0000 0.38590  0.95730  0.00430  Biso   1.000  H
  H78      1.0000 0.11410  0.45730  0.49570  Biso   1.000  H
  H79      1.0000 0.61410  0.04270  0.99570  Biso   1.000  H
  H80      1.0000 0.88590  0.54270  0.50430  Biso   1.000  H
  C17      1.0000 0.32340  0.19600  0.98179  Biso   1.000  C
  C18      1.0000 0.17660  0.69600  0.51821  Biso   1.000  C
  C19      1.0000 0.67660  0.80400  0.01821  Biso   1.000  C
  C20      1.0000 0.82340  0.30400  0.48179  Biso   1.000  C
  H81      1.0000 0.33000  0.25120  0.96490  Biso   1.000  H
  H82      1.0000 0.17000  0.75120  0.53510  Biso   1.000  H
  H83      1.0000 0.67000  0.74880  0.03510  Biso   1.000  H
  H84      1.0000 0.83000  0.24880  0.46490  Biso   1.000  H
  H85      1.0000 0.34470  0.22290  0.00410  Biso   1.000  H
  H86      1.0000 0.15530  0.72290  0.49590  Biso   1.000  H
  H87      1.0000 0.65530  0.77710  0.99590  Biso   1.000  H
  H88      1.0000 0.84470  0.27710  0.50410  Biso   1.000  H
  C21      1.0000 0.35260  0.08130  0.97428  Biso   1.000  C
  C22      1.0000 0.14740  0.58130  0.52572  Biso   1.000  C
  C23      1.0000 0.64740  0.91870  0.02572  Biso   1.000  C
  C24      1.0000 0.85260  0.41870  0.47428  Biso   1.000  C
  H89      1.0000 0.39250  0.09380  0.96880  Biso   1.000  H
  H90      1.0000 0.10750  0.59380  0.53120  Biso   1.000  H
  H91      1.0000 0.60750  0.90620  0.03120  Biso   1.000  H
  H92      1.0000 0.89250  0.40620  0.46880  Biso   1.000  H
  H93      1.0000 0.32640  0.04300  0.95510  Biso   1.000  H
  H94      1.0000 0.17360  0.54300  0.54490  Biso   1.000  H
  H95      1.0000 0.67360  0.95700  0.04490  Biso   1.000  H
  H96      1.0000 0.82640  0.45700  0.45510  Biso   1.000  H
  Cu13     1.0000 0.38115  0.05970  0.05352  Biso   1.000  Cu
  Cu14     1.0000 0.11885  0.55970  0.44648  Biso   1.000  Cu
  Cu15     1.0000 0.61885  0.94030  0.94648  Biso   1.000  Cu
  Cu16     1.0000 0.88115  0.44030  0.55352  Biso   1.000  Cu
  Si1      1.0000 0.69211  0.81110  0.39273  Biso   1.000  Si
  Si2      1.0000 0.80789  0.31110  0.10727  Biso   1.000  Si
  Si3      1.0000 0.30789  0.18890  0.60727  Biso   1.000  Si
  Si4      1.0000 0.19211  0.68890  0.89273  Biso   1.000  Si
  Si5      1.0000 0.31122  0.53860  0.11891  Biso   1.000  Si
  Si6      1.0000 0.18878  0.03860  0.38109  Biso   1.000  Si
  Si7      1.0000 0.68878  0.46140  0.88109  Biso   1.000  Si
  Si8      1.0000 0.81122  0.96140  0.61891  Biso   1.000  Si
  O1       1.0000 0.88890  0.99390  0.36330  Biso   1.000  O
  O2       1.0000 0.61110  0.49390  0.13670  Biso   1.000  O
  O3       1.0000 0.11110  0.00610  0.63670  Biso   1.000  O
  O4       1.0000 0.38890  0.50610  0.86330  Biso   1.000  O
  O5       1.0000 0.90160  0.68340  0.46900  Biso   1.000  O
  O6       1.0000 0.59840  0.18340  0.03100  Biso   1.000  O
  O7       1.0000 0.09840  0.31660  0.53100  Biso   1.000  O
  O8       1.0000 0.40160  0.81660  0.96900  Biso   1.000  O
  O9       1.0000 0.83370  0.54460  0.33560  Biso   1.000  O
  O10      1.0000 0.66630  0.04460  0.16440  Biso   1.000  O
  O11      1.0000 0.16630  0.45540  0.66440  Biso   1.000  O
  O12      1.0000 0.33370  0.95540  0.83560  Biso   1.000  O
  O13      1.0000 0.71180  0.52720  0.49390  Biso   1.000  O
  O14      1.0000 0.78820  0.02720  0.00610  Biso   1.000  O
  O15      1.0000 0.28820  0.47280  0.50610  Biso   1.000  O
  O16      1.0000 0.21180  0.97280  0.99390  Biso   1.000  O
  O17      1.0000 0.64300  0.38410  0.36090  Biso   1.000  O
  O18      1.0000 0.85700  0.88410  0.13910  Biso   1.000  O
  O19      1.0000 0.35700  0.61590  0.63910  Biso   1.000  O
  O20      1.0000 0.14300  0.11590  0.86090  Biso   1.000  O
  O21      1.0000 0.48780  0.64940  0.41680  Biso   1.000  O
  O22      1.0000 0.01220  0.14940  0.08320  Biso   1.000  O
  O23      1.0000 0.51220  0.35060  0.58320  Biso   1.000  O
  O24      1.0000 0.98780  0.85060  0.91680  Biso   1.000  O
  O25      1.0000 0.63310  0.64700  0.26890  Biso   1.000  O
  O26      1.0000 0.86690  0.14700  0.23110  Biso   1.000  O
  O27      1.0000 0.36690  0.35300  0.73110  Biso   1.000  O
  O28      1.0000 0.13310  0.85300  0.76890  Biso   1.000  O
  O29      1.0000 0.47780  0.93040  0.32330  Biso   1.000  O
  O30      1.0000 0.02220  0.43040  0.17670  Biso   1.000  O
  O31      1.0000 0.52220  0.06960  0.67670  Biso   1.000  O
  O32      1.0000 0.97780  0.56960  0.82330  Biso   1.000  O
  O33      1.0000 0.68730  0.10450  0.29420  Biso   1.000  O
  O34      1.0000 0.81270  0.60450  0.20580  Biso   1.000  O
  O35      1.0000 0.31270  0.89550  0.70580  Biso   1.000  O
  O36      1.0000 0.18730  0.39550  0.79420  Biso   1.000  O
  O37      1.0000 0.53760  0.04990  0.43940  Biso   1.000  O
  O38      1.0000 0.96240  0.54990  0.06060  Biso   1.000  O
  O39      1.0000 0.46240  0.95010  0.56060  Biso   1.000  O
  O40      1.0000 0.03760  0.45010  0.93940  Biso   1.000  O
  O41      1.0000 0.74660  0.22980  0.41000  Biso   1.000  O
  O42      1.0000 0.75340  0.72980  0.09000  Biso   1.000  O
  O43      1.0000 0.25340  0.77020  0.59000  Biso   1.000  O
  O44      1.0000 0.24660  0.27020  0.91000  Biso   1.000  O
  O45      1.0000 0.87650  0.84240  0.41580  Biso   1.000  O
  O46      1.0000 0.62350  0.34240  0.08420  Biso   1.000  O
  O47      1.0000 0.12350  0.15760  0.58420  Biso   1.000  O
  O48      1.0000 0.37650  0.65760  0.91580  Biso   1.000  O
  O49      1.0000 0.54040  0.75780  0.36700  Biso   1.000  O
  O50      1.0000 0.95960  0.25780  0.13300  Biso   1.000  O
  O51      1.0000 0.45960  0.24220  0.63300  Biso   1.000  O
  O52      1.0000 0.04040  0.74220  0.86700  Biso   1.000  O
  O53      1.0000 0.79520  0.01630  0.40020  Biso   1.000  O
  O54      1.0000 0.70480  0.51630  0.09980  Biso   1.000  O
  O55      1.0000 0.20480  0.98370  0.59980  Biso   1.000  O
  O56      1.0000 0.29520  0.48370  0.90020  Biso   1.000  O
  O57      1.0000 0.84210  0.77460  0.35110  Biso   1.000  O
  O58      1.0000 0.65790  0.27460  0.14890  Biso   1.000  O
  O59      1.0000 0.15790  0.22540  0.64890  Biso   1.000  O
  O60      1.0000 0.34210  0.72540  0.85110  Biso   1.000  O
  O61      1.0000 0.64350  0.11500  0.42020  Biso   1.000  O
  O62      1.0000 0.85650  0.61500  0.07980  Biso   1.000  O
  O63      1.0000 0.35650  0.88500  0.57980  Biso   1.000  O
  O64      1.0000 0.14350  0.38500  0.92020  Biso   1.000  O
  O65      1.0000 0.77500  0.63000  0.44780  Biso   1.000  O
  O66      1.0000 0.72500  0.13000  0.05220  Biso   1.000  O
  O67      1.0000 0.22500  0.37000  0.55220  Biso   1.000  O
  O68      1.0000 0.27500  0.87000  0.94780  Biso   1.000  O
  O69      1.0000 0.64710  0.97470  0.47480  Biso   1.000  O
  O70      1.0000 0.85290  0.47470  0.02520  Biso   1.000  O
  O71      1.0000 0.35290  0.02530  0.52520  Biso   1.000  O
  O72      1.0000 0.14710  0.52530  0.97480  Biso   1.000  O
  O73      1.0000 0.73780  0.54300  0.37200  Biso   1.000  O
  O74      1.0000 0.76220  0.04300  0.12800  Biso   1.000  O
  O75      1.0000 0.26220  0.45700  0.62800  Biso   1.000  O
  O76      1.0000 0.23780  0.95700  0.87200  Biso   1.000  O
  O77      1.0000 0.76430  0.94920  0.33660  Biso   1.000  O
  O78      1.0000 0.73570  0.44920  0.16340  Biso   1.000  O
  O79      1.0000 0.23570  0.05080  0.66340  Biso   1.000  O
  O80      1.0000 0.26430  0.55080  0.83660  Biso   1.000  O
  O81      1.0000 0.70300  0.75300  0.48070  Biso   1.000  O
  O82      1.0000 0.79700  0.25300  0.01930  Biso   1.000  O
  O83      1.0000 0.29700  0.24700  0.51930  Biso   1.000  O
  O84      1.0000 0.20300  0.74700  0.98070  Biso   1.000  O
  O85      1.0000 0.68960  0.07340  0.36290  Biso   1.000  O
  O86      1.0000 0.81040  0.57340  0.13710  Biso   1.000  O
  O87      1.0000 0.31040  0.92660  0.63710  Biso   1.000  O
  O88      1.0000 0.18960  0.42660  0.86290  Biso   1.000  O
  O89      1.0000 0.66750  0.86920  0.29090  Biso   1.000  O
  O90      1.0000 0.83250  0.36920  0.20910  Biso   1.000  O
  O91      1.0000 0.33250  0.13080  0.70910  Biso   1.000  O
  O92      1.0000 0.16750  0.63080  0.79090  Biso   1.000  O
  O93      1.0000 0.56860  0.97110  0.38020  Biso   1.000  O
  O94      1.0000 0.93140  0.47110  0.11980  Biso   1.000  O
  O95      1.0000 0.43140  0.02890  0.61980  Biso   1.000  O
  O96      1.0000 0.06860  0.52890  0.88020  Biso   1.000  O
  O97      1.0000 0.75900  0.06880  0.46010  Biso   1.000  O
  O98      1.0000 0.74100  0.56880  0.03990  Biso   1.000  O
  O99      1.0000 0.24100  0.93120  0.53990  Biso   1.000  O
  O100     1.0000 0.25900  0.43120  0.96010  Biso   1.000  O
  O101     1.0000 0.84710  0.62530  0.40210  Biso   1.000  O
  O102     1.0000 0.65290  0.12530  0.09790  Biso   1.000  O
  O103     1.0000 0.15290  0.37470  0.59790  Biso   1.000  O
  O104     1.0000 0.34710  0.87470  0.90210  Biso   1.000  O
  O105     1.0000 0.56520  0.78190  0.30520  Biso   1.000  O
  O106     1.0000 0.93480  0.28190  0.19480  Biso   1.000  O
  O107     1.0000 0.43480  0.21810  0.69480  Biso   1.000  O
  O108     1.0000 0.06520  0.71810  0.80520  Biso   1.000  O
  O109     1.0000 0.68330  0.48600  0.42400  Biso   1.000  O
  O110     1.0000 0.81670  0.98600  0.07600  Biso   1.000  O
  O111     1.0000 0.31670  0.51400  0.57600  Biso   1.000  O
  O112     1.0000 0.18330  0.01400  0.92400  Biso   1.000  O
  O113     1.0000 0.73070  0.69450  0.32390  Biso   1.000  O
  O114     1.0000 0.76930  0.19450  0.17610  Biso   1.000  O
  O115     1.0000 0.26930  0.30550  0.67610  Biso   1.000  O
  O116     1.0000 0.23070  0.80550  0.82390  Biso   1.000  O
  O117     1.0000 0.81170  0.84170  0.46600  Biso   1.000  O
  O118     1.0000 0.68830  0.34170  0.03400  Biso   1.000  O
  O119     1.0000 0.18830  0.15830  0.53400  Biso   1.000  O
  O120     1.0000 0.31170  0.65830  0.96600  Biso   1.000  O
  O121     1.0000 0.57530  0.54670  0.38630  Biso   1.000  O
  O122     1.0000 0.92470  0.04670  0.11370  Biso   1.000  O
  O123     1.0000 0.42470  0.45330  0.61370  Biso   1.000  O
  O124     1.0000 0.07530  0.95330  0.88630  Biso   1.000  O
  O125     1.0000 0.59030  0.99800  0.31630  Biso   1.000  O
  O126     1.0000 0.90970  0.49800  0.18370  Biso   1.000  O
  O127     1.0000 0.40970  0.00200  0.68370  Biso   1.000  O
  O128     1.0000 0.09030  0.50200  0.81630  Biso   1.000  O
  O129     1.0000 0.57310  0.82800  0.43000  Biso   1.000  O
  O130     1.0000 0.92690  0.32800  0.07000  Biso   1.000  O
  O131     1.0000 0.42690  0.17200  0.57000  Biso   1.000  O
  O132     1.0000 0.07310  0.67200  0.93000  Biso   1.000  O
  O133     1.0000 0.60840  0.61800  0.45110  Biso   1.000  O
  O134     1.0000 0.89160  0.11800  0.04890  Biso   1.000  O
  O135     1.0000 0.39160  0.38200  0.54890  Biso   1.000  O
  O136     1.0000 0.10840  0.88200  0.95110  Biso   1.000  O
  O137     1.0000 0.63130  0.60880  0.33740  Biso   1.000  O
  O138     1.0000 0.86870  0.10880  0.16260  Biso   1.000  O
  O139     1.0000 0.36870  0.39120  0.66260  Biso   1.000  O
  O140     1.0000 0.13130  0.89120  0.83740  Biso   1.000  O
  O141     1.0000 0.76390  0.78350  0.39230  Biso   1.000  O
  O142     1.0000 0.73610  0.28350  0.10770  Biso   1.000  O
  O143     1.0000 0.23610  0.21650  0.60770  Biso   1.000  O
  O144     1.0000 0.26390  0.71650  0.89230  Biso   1.000  O
  O145     1.0000 0.66230  0.69880  0.40617  Biso   1.000  O
  O146     1.0000 0.83770  0.19880  0.09383  Biso   1.000  O
  O147     1.0000 0.33770  0.30120  0.59383  Biso   1.000  O
  O148     1.0000 0.16230  0.80120  0.90617  Biso   1.000  O
  O149     1.0000 0.65540  0.84310  0.35370  Biso   1.000  O
  O150     1.0000 0.84460  0.34310  0.14630  Biso   1.000  O
  O151     1.0000 0.34460  0.15690  0.64630  Biso   1.000  O
  O152     1.0000 0.15540  0.65690  0.85370  Biso   1.000  O
  O153     1.0000 0.68610  0.91830  0.41660  Biso   1.000  O
  O154     1.0000 0.81390  0.41830  0.08340  Biso   1.000  O
  O155     1.0000 0.31390  0.08170  0.58340  Biso   1.000  O
  O156     1.0000 0.18610  0.58170  0.91660  Biso   1.000  O
  O157     1.0000 0.80060  0.35750  0.67490  Biso   1.000  O
  O158     1.0000 0.69940  0.85750  0.82510  Biso   1.000  O
  O159     1.0000 0.19940  0.64250  0.32510  Biso   1.000  O
  O160     1.0000 0.30060  0.14250  0.17490  Biso   1.000  O
  O161     1.0000 0.52130  0.34180  0.16940  Biso   1.000  O
  O162     1.0000 0.97870  0.84180  0.33060  Biso   1.000  O
  O163     1.0000 0.47870  0.65820  0.83060  Biso   1.000  O
  O164     1.0000 0.02130  0.15820  0.66940  Biso   1.000  O
  O165     1.0000 0.87430  0.97530  0.75260  Biso   1.000  O
  O166     1.0000 0.62570  0.47530  0.74740  Biso   1.000  O
  O167     1.0000 0.12570  0.02470  0.24740  Biso   1.000  O
  O168     1.0000 0.37430  0.52470  0.25260  Biso   1.000  O
  O169     1.0000 0.52250  0.72040  0.11580  Biso   1.000  O
  O170     1.0000 0.97750  0.22040  0.38420  Biso   1.000  O
  O171     1.0000 0.47750  0.27960  0.88420  Biso   1.000  O
  O172     1.0000 0.02250  0.77960  0.61580  Biso   1.000  O
  O173     1.0000 0.37680  0.89590  0.19740  Biso   1.000  O
  O174     1.0000 0.12320  0.39590  0.30260  Biso   1.000  O
  O175     1.0000 0.62320  0.10410  0.80260  Biso   1.000  O
  O176     1.0000 0.87680  0.60410  0.69740  Biso   1.000  O
  O177     1.0000 0.30590  0.93100  0.05970  Biso   1.000  O
  O178     1.0000 0.19410  0.43100  0.44030  Biso   1.000  O
  O179     1.0000 0.69410  0.06900  0.94030  Biso   1.000  O
  O180     1.0000 0.80590  0.56900  0.55970  Biso   1.000  O
  O181     1.0000 0.68160  0.78940  0.70290  Biso   1.000  O
  O182     1.0000 0.81840  0.28940  0.79710  Biso   1.000  O
  O183     1.0000 0.31840  0.21060  0.29710  Biso   1.000  O
  O184     1.0000 0.18160  0.71060  0.20290  Biso   1.000  O
  O185     1.0000 0.60940  0.74640  0.56420  Biso   1.000  O
  O186     1.0000 0.89060  0.24640  0.93580  Biso   1.000  O
  O187     1.0000 0.39060  0.25360  0.43580  Biso   1.000  O
  O188     1.0000 0.10940  0.75360  0.06420  Biso   1.000  O
  O189     1.0000 0.60890  0.17070  0.62470  Biso   1.000  O
  O190     1.0000 0.89110  0.67070  0.87530  Biso   1.000  O
  O191     1.0000 0.39110  0.82930  0.37530  Biso   1.000  O
  O192     1.0000 0.10890  0.32930  0.12470  Biso   1.000  O
  O193     1.0000 0.73900  0.32490  0.55290  Biso   1.000  O
  O194     1.0000 0.76100  0.82490  0.94710  Biso   1.000  O
  O195     1.0000 0.26100  0.67510  0.44710  Biso   1.000  O
  O196     1.0000 0.23900  0.17510  0.05290  Biso   1.000  O
  O197     1.0000 0.45870  0.37570  0.04820  Biso   1.000  O
  O198     1.0000 0.04130  0.87570  0.45180  Biso   1.000  O
  O199     1.0000 0.54130  0.62430  0.95180  Biso   1.000  O
  O200     1.0000 0.95870  0.12430  0.54820  Biso   1.000  O
  O201     1.0000 0.83010  0.14420  0.70510  Biso   1.000  O
  O202     1.0000 0.66990  0.64420  0.79490  Biso   1.000  O
  O203     1.0000 0.16990  0.85580  0.29490  Biso   1.000  O
  O204     1.0000 0.33010  0.35580  0.20510  Biso   1.000  O
  O205     1.0000 0.42970  0.37330  0.11250  Biso   1.000  O
  O206     1.0000 0.07030  0.87330  0.38750  Biso   1.000  O
  O207     1.0000 0.57030  0.62670  0.88750  Biso   1.000  O
  O208     1.0000 0.92970  0.12670  0.61250  Biso   1.000  O
  O209     1.0000 0.46540  0.55650  0.14930  Biso   1.000  O
  O210     1.0000 0.03460  0.05650  0.35070  Biso   1.000  O
  O211     1.0000 0.53460  0.44350  0.85070  Biso   1.000  O
  O212     1.0000 0.96540  0.94350  0.64930  Biso   1.000  O
  O213     1.0000 0.33440  0.87630  0.12820  Biso   1.000  O
  O214     1.0000 0.16560  0.37630  0.37180  Biso   1.000  O
  O215     1.0000 0.66560  0.12370  0.87180  Biso   1.000  O
  O216     1.0000 0.83440  0.62370  0.62820  Biso   1.000  O
  O217     1.0000 0.69370  0.89550  0.54780  Biso   1.000  O
  O218     1.0000 0.80630  0.39550  0.95220  Biso   1.000  O
  O219     1.0000 0.30630  0.10450  0.45220  Biso   1.000  O
  O220     1.0000 0.19370  0.60450  0.04780  Biso   1.000  O
  O221     1.0000 0.42990  0.57080  0.08190  Biso   1.000  O
  O222     1.0000 0.07010  0.07080  0.41810  Biso   1.000  O
  O223     1.0000 0.57010  0.42920  0.91810  Biso   1.000  O
  O224     1.0000 0.92990  0.92920  0.58190  Biso   1.000  O
  O225     1.0000 0.80510  0.79490  0.54510  Biso   1.000  O
  O226     1.0000 0.69490  0.29490  0.95490  Biso   1.000  O
  O227     1.0000 0.19490  0.20510  0.45490  Biso   1.000  O
  O228     1.0000 0.30510  0.70510  0.04510  Biso   1.000  O
  O229     1.0000 0.40680  0.79350  0.08770  Biso   1.000  O
  O230     1.0000 0.09320  0.29350  0.41230  Biso   1.000  O
  O231     1.0000 0.59320  0.20650  0.91230  Biso   1.000  O
  O232     1.0000 0.90680  0.70650  0.58770  Biso   1.000  O
  O233     1.0000 0.23520  0.78050  0.08860  Biso   1.000  O
  O234     1.0000 0.26480  0.28050  0.41140  Biso   1.000  O
  O235     1.0000 0.76480  0.21950  0.91140  Biso   1.000  O
  O236     1.0000 0.73520  0.71950  0.58860  Biso   1.000  O
  O237     1.0000 0.73250  0.15710  0.65370  Biso   1.000  O
  O238     1.0000 0.76750  0.65710  0.84630  Biso   1.000  O
  O239     1.0000 0.26750  0.84290  0.34630  Biso   1.000  O
  O240     1.0000 0.23250  0.34290  0.15370  Biso   1.000  O
  O241     1.0000 0.77520  0.94180  0.69620  Biso   1.000  O
  O242     1.0000 0.72480  0.44180  0.80380  Biso   1.000  O
  O243     1.0000 0.22480  0.05820  0.30380  Biso   1.000  O
  O244     1.0000 0.27520  0.55820  0.19620  Biso   1.000  O
  O245     1.0000 0.62700  0.96470  0.59340  Biso   1.000  O
  O246     1.0000 0.87300  0.46470  0.90660  Biso   1.000  O
  O247     1.0000 0.37300  0.03530  0.40660  Biso   1.000  O
  O248     1.0000 0.12700  0.53530  0.09340  Biso   1.000  O
  O249     1.0000 0.73750  0.11540  0.52710  Biso   1.000  O
  O250     1.0000 0.76250  0.61540  0.97290  Biso   1.000  O
  O251     1.0000 0.26250  0.88460  0.47290  Biso   1.000  O
  O252     1.0000 0.23750  0.38460  0.02710  Biso   1.000  O
  O253     1.0000 0.37870  0.65790  0.19460  Biso   1.000  O
  O254     1.0000 0.12130  0.15790  0.30540  Biso   1.000  O
  O255     1.0000 0.62130  0.34210  0.80540  Biso   1.000  O
  O256     1.0000 0.87870  0.84210  0.69460  Biso   1.000  O
  O257     1.0000 0.40160  0.26890  0.16690  Biso   1.000  O
  O258     1.0000 0.09840  0.76890  0.33310  Biso   1.000  O
  O259     1.0000 0.59840  0.73110  0.83310  Biso   1.000  O
  O260     1.0000 0.90160  0.23110  0.66690  Biso   1.000  O
  O261     1.0000 0.34770  0.29200  0.05860  Biso   1.000  O
  O262     1.0000 0.15230  0.79200  0.44140  Biso   1.000  O
  O263     1.0000 0.65230  0.70800  0.94140  Biso   1.000  O
  O264     1.0000 0.84770  0.20800  0.55860  Biso   1.000  O
  O265     1.0000 0.66220  0.77980  0.63230  Biso   1.000  O
  O266     1.0000 0.83780  0.27980  0.86770  Biso   1.000  O
  O267     1.0000 0.33780  0.22020  0.36770  Biso   1.000  O
  O268     1.0000 0.16220  0.72020  0.13230  Biso   1.000  O
  O269     1.0000 0.85330  0.00710  0.52440  Biso   1.000  O
  O270     1.0000 0.64670  0.50710  0.97560  Biso   1.000  O
  O271     1.0000 0.14670  0.99290  0.47560  Biso   1.000  O
  O272     1.0000 0.35330  0.49290  0.02440  Biso   1.000  O
  O273     1.0000 0.27570  0.75690  0.16850  Biso   1.000  O
  O274     1.0000 0.22430  0.25690  0.33150  Biso   1.000  O
  O275     1.0000 0.72430  0.24310  0.83150  Biso   1.000  O
  O276     1.0000 0.77570  0.74310  0.66850  Biso   1.000  O
  O277     1.0000 0.70050  0.14120  0.58770  Biso   1.000  O
  O278     1.0000 0.79950  0.64120  0.91230  Biso   1.000  O
  O279     1.0000 0.29950  0.85880  0.41230  Biso   1.000  O
  O280     1.0000 0.20050  0.35880  0.08770  Biso   1.000  O
  O281     1.0000 0.43860  0.77410  0.15540  Biso   1.000  O
  O282     1.0000 0.06140  0.27410  0.34460  Biso   1.000  O
  O283     1.0000 0.56140  0.22590  0.84460  Biso   1.000  O
  O284     1.0000 0.93860  0.72590  0.65540  Biso   1.000  O
  O285     1.0000 0.43700  0.45520  0.20280  Biso   1.000  O
  O286     1.0000 0.06300  0.95520  0.29720  Biso   1.000  O
  O287     1.0000 0.56300  0.54480  0.79720  Biso   1.000  O
  O288     1.0000 0.93700  0.04480  0.70280  Biso   1.000  O
  O289     1.0000 0.80170  0.24200  0.61470  Biso   1.000  O
  O290     1.0000 0.69830  0.74200  0.88530  Biso   1.000  O
  O291     1.0000 0.19830  0.75800  0.38530  Biso   1.000  O
  O292     1.0000 0.30170  0.25800  0.11470  Biso   1.000  O
  O293     1.0000 0.66170  0.97950  0.66200  Biso   1.000  O
  O294     1.0000 0.83830  0.47950  0.83800  Biso   1.000  O
  O295     1.0000 0.33830  0.02050  0.33800  Biso   1.000  O
  O296     1.0000 0.16170  0.52050  0.16200  Biso   1.000  O
  O297     1.0000 0.34490  0.45990  0.15130  Biso   1.000  O
  O298     1.0000 0.15510  0.95990  0.34870  Biso   1.000  O
  O299     1.0000 0.65510  0.54010  0.84870  Biso   1.000  O
  O300     1.0000 0.84490  0.04010  0.65130  Biso   1.000  O
  O301     1.0000 0.34680  0.66050  0.12020  Biso   1.000  O
  O302     1.0000 0.15320  0.16050  0.37980  Biso   1.000  O
  O303     1.0000 0.65320  0.33950  0.87980  Biso   1.000  O
  O304     1.0000 0.84680  0.83950  0.62020  Biso   1.000  O
  O305     1.0000 0.74140  0.93440  0.62160  Biso   1.000  O
  O306     1.0000 0.75860  0.43440  0.87840  Biso   1.000  O
  O307     1.0000 0.25860  0.06560  0.37840  Biso   1.000  O
  O308     1.0000 0.24140  0.56560  0.12160  Biso   1.000  O
  O309     1.0000 0.31390  0.46960  0.08418  Biso   1.000  O
  O310     1.0000 0.18610  0.96960  0.41582  Biso   1.000  O
  O311     1.0000 0.68610  0.53040  0.91582  Biso   1.000  O
  O312     1.0000 0.81390  0.03040  0.58418  Biso   1.000  O
  N25      1.0000 0.46680  0.15830  0.50000  Biso   1.000  N
  N26      1.0000 0.03320  0.65830  0.00000  Biso   1.000  N
  N27      1.0000 0.53320  0.84170  0.50000  Biso   1.000  N
  N28      1.0000 0.96680  0.34170  0.00000  Biso   1.000  N
  H97      1.0000 0.44160  0.17350  0.47980  Biso   1.000  H
  H98      1.0000 0.05840  0.67350  0.02020  Biso   1.000  H
  H99      1.0000 0.55840  0.82650  0.52020  Biso   1.000  H
  H100     1.0000 0.94160  0.32650  0.97980  Biso   1.000  H
  H101     1.0000 0.44520  0.16570  0.51660  Biso   1.000  H
  H102     1.0000 0.05480  0.66570  0.98340  Biso   1.000  H
  H103     1.0000 0.55480  0.83430  0.48340  Biso   1.000  H
  H104     1.0000 0.94520  0.33430  0.01660  Biso   1.000  H
  N29      1.0000 0.57960  0.06900  0.52460  Biso   1.000  N
  N30      1.0000 0.92040  0.56900  0.97540  Biso   1.000  N
  N31      1.0000 0.42040  0.93100  0.47540  Biso   1.000  N
  N32      1.0000 0.07960  0.43100  0.02460  Biso   1.000  N
  H105     1.0000 0.59470  0.02920  0.54380  Biso   1.000  H
  H106     1.0000 0.90530  0.52920  0.95620  Biso   1.000  H
  H107     1.0000 0.40530  0.97080  0.45620  Biso   1.000  H
  H108     1.0000 0.09470  0.47080  0.04380  Biso   1.000  H
  H109     1.0000 0.60720  0.06650  0.51120  Biso   1.000  H
  H110     1.0000 0.89280  0.56650  0.98880  Biso   1.000  H
  H111     1.0000 0.39280  0.93350  0.48880  Biso   1.000  H
  H112     1.0000 0.10720  0.43350  0.01120  Biso   1.000  H
  N33      1.0000 0.41950  0.47040  0.96740  Biso   1.000  N
  N34      1.0000 0.08050  0.97040  0.53260  Biso   1.000  N
  N35      1.0000 0.58050  0.52960  0.03260  Biso   1.000  N
  N36      1.0000 0.91950  0.02960  0.46740  Biso   1.000  N
  H113     1.0000 0.40790  0.53230  0.95450  Biso   1.000  H
  H114     1.0000 0.09210  0.03230  0.54550  Biso   1.000  H
  H115     1.0000 0.59210  0.46770  0.04550  Biso   1.000  H
  H116     1.0000 0.90790  0.96770  0.45450  Biso   1.000  H
  H117     1.0000 0.39030  0.45490  0.97920  Biso   1.000  H
  H118     1.0000 0.10970  0.95490  0.52080  Biso   1.000  H
  H119     1.0000 0.60970  0.54510  0.02080  Biso   1.000  H
  H120     1.0000 0.89030  0.04510  0.47920  Biso   1.000  H
  N37      1.0000 0.52750  0.35220  0.98280  Biso   1.000  N
  N38      1.0000 0.97250  0.85220  0.51720  Biso   1.000  N
  N39      1.0000 0.47250  0.64780  0.01720  Biso   1.000  N
  N40      1.0000 0.02750  0.14780  0.48280  Biso   1.000  N
  H121     1.0000 0.54990  0.31210  0.00020  Biso   1.000  H
  H122     1.0000 0.95010  0.81210  0.49980  Biso   1.000  H
  H123     1.0000 0.45010  0.68790  0.99980  Biso   1.000  H
  H124     1.0000 0.04990  0.18790  0.50020  Biso   1.000  H
  H125     1.0000 0.55060  0.36510  0.96720  Biso   1.000  H
  H126     1.0000 0.94940  0.86510  0.53280  Biso   1.000  H
  H127     1.0000 0.44940  0.63490  0.03280  Biso   1.000  H
  H128     1.0000 0.05060  0.13490  0.46720  Biso   1.000  H
  N41      1.0000 0.76690  0.31090  0.33800  Biso   1.000  N
  N42      1.0000 0.73310  0.81090  0.16200  Biso   1.000  N
  N43      1.0000 0.23310  0.68910  0.66200  Biso   1.000  N
  N44      1.0000 0.26690  0.18910  0.83800  Biso   1.000  N
  H129     1.0000 0.73880  0.28230  0.34890  Biso   1.000  H
  H130     1.0000 0.76120  0.78230  0.15110  Biso   1.000  H
  H131     1.0000 0.26120  0.71770  0.65110  Biso   1.000  H
  H132     1.0000 0.23880  0.21770  0.84890  Biso   1.000  H
  H133     1.0000 0.77080  0.38530  0.34290  Biso   1.000  H
  H134     1.0000 0.72920  0.88530  0.15710  Biso   1.000  H
  H135     1.0000 0.22920  0.61470  0.65710  Biso   1.000  H
  H136     1.0000 0.27080  0.11470  0.84290  Biso   1.000  H
  N45      1.0000 0.81520  0.20420  0.29180  Biso   1.000  N
  N46      1.0000 0.68480  0.70420  0.20820  Biso   1.000  N
  N47      1.0000 0.18480  0.79580  0.70820  Biso   1.000  N
  N48      1.0000 0.31520  0.29580  0.79180  Biso   1.000  N
  H137     1.0000 0.83220  0.21860  0.27380  Biso   1.000  H
  H138     1.0000 0.66780  0.71860  0.22620  Biso   1.000  H
  H139     1.0000 0.16780  0.78140  0.72620  Biso   1.000  H
  H140     1.0000 0.33220  0.28140  0.77380  Biso   1.000  H
  H141     1.0000 0.80730  0.12940  0.29210  Biso   1.000  H
  H142     1.0000 0.69270  0.62940  0.20790  Biso   1.000  H
  H143     1.0000 0.19270  0.87060  0.70790  Biso   1.000  H
  H144     1.0000 0.30730  0.37060  0.79210  Biso   1.000  H
  N49      1.0000 0.70780  0.26900  0.23660  Biso   1.000  N
  N50      1.0000 0.79220  0.76900  0.26340  Biso   1.000  N
  N51      1.0000 0.29220  0.73100  0.76340  Biso   1.000  N
  N52      1.0000 0.20780  0.23100  0.73660  Biso   1.000  N
  H145     1.0000 0.70210  0.19500  0.23150  Biso   1.000  H
  H146     1.0000 0.79790  0.69500  0.26850  Biso   1.000  H
  H147     1.0000 0.29790  0.80500  0.76850  Biso   1.000  H
  H148     1.0000 0.20210  0.30500  0.73150  Biso   1.000  H
  H149     1.0000 0.73540  0.29700  0.22520  Biso   1.000  H
  H150     1.0000 0.76460  0.79700  0.27480  Biso   1.000  H
  H151     1.0000 0.26460  0.70300  0.77480  Biso   1.000  H
  H152     1.0000 0.23540  0.20300  0.72520  Biso   1.000  H
  N53      1.0000 0.66000  0.37770  0.28380  Biso   1.000  N
  N54      1.0000 0.84000  0.87770  0.21620  Biso   1.000  N
  N55      1.0000 0.34000  0.62230  0.71620  Biso   1.000  N
  N56      1.0000 0.16000  0.12230  0.78380  Biso   1.000  N
  H153     1.0000 0.66900  0.45120  0.28820  Biso   1.000  H
  H154     1.0000 0.83100  0.95120  0.21180  Biso   1.000  H
  H155     1.0000 0.33100  0.54880  0.71180  Biso   1.000  H
  H156     1.0000 0.16900  0.04880  0.78820  Biso   1.000  H
  H157     1.0000 0.63970  0.35200  0.29950  Biso   1.000  H
  H158     1.0000 0.86030  0.85200  0.20050  Biso   1.000  H
  H159     1.0000 0.36030  0.64800  0.70050  Biso   1.000  H
  H160     1.0000 0.13970  0.14800  0.79950  Biso   1.000  H
  N57      1.0000 0.40370  0.09460  0.10310  Biso   1.000  N
  N58      1.0000 0.09630  0.59460  0.39690  Biso   1.000  N
  N59      1.0000 0.59630  0.90540  0.89690  Biso   1.000  N
  N60      1.0000 0.90370  0.40540  0.60310  Biso   1.000  N
  H161     1.0000 0.37560  0.06410  0.11360  Biso   1.000  H
  H162     1.0000 0.12440  0.56410  0.38640  Biso   1.000  H
  H163     1.0000 0.62440  0.93590  0.88640  Biso   1.000  H
  H164     1.0000 0.87560  0.43590  0.61360  Biso   1.000  H
  H165     1.0000 0.40330  0.17020  0.10600  Biso   1.000  H
  H166     1.0000 0.09670  0.67020  0.39400  Biso   1.000  H
  H167     1.0000 0.59670  0.82980  0.89400  Biso   1.000  H
  H168     1.0000 0.90330  0.32980  0.60600  Biso   1.000  H
  N61      1.0000 0.52690  0.21610  0.10350  Biso   1.000  N
  N62      1.0000 0.97310  0.71610  0.39650  Biso   1.000  N
  N63      1.0000 0.47310  0.78390  0.89650  Biso   1.000  N
  N64      1.0000 0.02690  0.28390  0.60350  Biso   1.000  N
  H169     1.0000 0.50100  0.26370  0.10860  Biso   1.000  H
  H170     1.0000 0.99900  0.76370  0.39140  Biso   1.000  H
  H171     1.0000 0.49900  0.73630  0.89140  Biso   1.000  H
  H172     1.0000 0.00100  0.23630  0.60860  Biso   1.000  H
  H173     1.0000 0.55870  0.24000  0.09650  Biso   1.000  H
  H174     1.0000 0.94130  0.74000  0.40350  Biso   1.000  H
  H175     1.0000 0.44130  0.76000  0.90350  Biso   1.000  H
  H176     1.0000 0.05870  0.26000  0.59650  Biso   1.000  H
  N65      1.0000 0.33230  0.48220  0.44410  Biso   1.000  N
  N66      1.0000 0.16770  0.98220  0.05590  Biso   1.000  N
  N67      1.0000 0.66770  0.51780  0.55590  Biso   1.000  N
  N68      1.0000 0.83230  0.01780  0.94410  Biso   1.000  N
  H177     1.0000 0.29340  0.47560  0.44320  Biso   1.000  H
  H178     1.0000 0.20660  0.97560  0.05680  Biso   1.000  H
  H179     1.0000 0.70660  0.52440  0.55680  Biso   1.000  H
  H180     1.0000 0.79340  0.02440  0.94320  Biso   1.000  H
  H181     1.0000 0.35820  0.46180  0.46220  Biso   1.000  H
  H182     1.0000 0.14180  0.96180  0.03780  Biso   1.000  H
  H183     1.0000 0.64180  0.53820  0.53780  Biso   1.000  H
  H184     1.0000 0.85820  0.03820  0.96220  Biso   1.000  H
  N69      1.0000 0.28520  0.46750  0.36070  Biso   1.000  N
  N70      1.0000 0.21480  0.96750  0.13930  Biso   1.000  N
  N71      1.0000 0.71480  0.53250  0.63930  Biso   1.000  N
  N72      1.0000 0.78520  0.03250  0.86070  Biso   1.000  N
  H185     1.0000 0.29940  0.40010  0.36500  Biso   1.000  H
  H186     1.0000 0.20060  0.90010  0.13500  Biso   1.000  H
  H187     1.0000 0.70060  0.59990  0.63500  Biso   1.000  H
  H188     1.0000 0.79940  0.09990  0.86500  Biso   1.000  H
  H189     1.0000 0.25770  0.48060  0.34250  Biso   1.000  H
  H190     1.0000 0.24230  0.98060  0.15750  Biso   1.000  H
  H191     1.0000 0.74230  0.51940  0.65750  Biso   1.000  H
  H192     1.0000 0.75770  0.01940  0.84250  Biso   1.000  H
  C25      1.0000 0.51800  0.23520  0.50600  Biso   1.000  C
  C26      1.0000 0.98200  0.73520  0.99400  Biso   1.000  C
  C27      1.0000 0.48200  0.76480  0.49400  Biso   1.000  C
  C28      1.0000 0.01800  0.26480  0.00600  Biso   1.000  C
  H193     1.0000 0.50500  0.30860  0.51280  Biso   1.000  H
  H194     1.0000 0.99500  0.80860  0.98720  Biso   1.000  H
  H195     1.0000 0.49500  0.69140  0.48720  Biso   1.000  H
  H196     1.0000 0.00500  0.19140  0.01280  Biso   1.000  H
  H197     1.0000 0.53290  0.24500  0.48500  Biso   1.000  H
  H198     1.0000 0.96710  0.74500  0.01500  Biso   1.000  H
  H199     1.0000 0.46710  0.75500  0.51500  Biso   1.000  H
  H200     1.0000 0.03290  0.25500  0.98500  Biso   1.000  H
  C29      1.0000 0.56910  0.18940  0.53380  Biso   1.000  C
  C30      1.0000 0.93090  0.68940  0.96620  Biso   1.000  C
  C31      1.0000 0.43090  0.81060  0.46620  Biso   1.000  C
  C32      1.0000 0.06910  0.31060  0.03380  Biso   1.000  C
  H201     1.0000 0.60630  0.23360  0.53500  Biso   1.000  H
  H202     1.0000 0.89370  0.73360  0.96500  Biso   1.000  H
  H203     1.0000 0.39370  0.76640  0.46500  Biso   1.000  H
  H204     1.0000 0.10630  0.26640  0.03500  Biso   1.000  H
  H205     1.0000 0.55740  0.19300  0.55580  Biso   1.000  H
  H206     1.0000 0.94260  0.69300  0.94420  Biso   1.000  H
  H207     1.0000 0.44260  0.80700  0.44420  Biso   1.000  H
  H208     1.0000 0.05740  0.30700  0.05580  Biso   1.000  H
  C33      1.0000 0.42650  0.37510  0.94550  Biso   1.000  C
  C34      1.0000 0.07350  0.87510  0.55450  Biso   1.000  C
  C35      1.0000 0.57350  0.62490  0.05450  Biso   1.000  C
  C36      1.0000 0.92650  0.12490  0.44550  Biso   1.000  C
  H209     1.0000 0.38710  0.33870  0.93720  Biso   1.000  H
  H210     1.0000 0.11290  0.83870  0.56280  Biso   1.000  H
  H211     1.0000 0.61290  0.66130  0.06280  Biso   1.000  H
  H212     1.0000 0.88710  0.16130  0.43720  Biso   1.000  H
  H213     1.0000 0.44240  0.40060  0.92600  Biso   1.000  H
  H214     1.0000 0.05760  0.90060  0.57400  Biso   1.000  H
  H215     1.0000 0.55760  0.59940  0.07400  Biso   1.000  H
  H216     1.0000 0.94240  0.09940  0.42600  Biso   1.000  H
  C37      1.0000 0.47200  0.29120  0.96730  Biso   1.000  C
  C38      1.0000 0.02800  0.79120  0.53270  Biso   1.000  C
  C39      1.0000 0.52800  0.70880  0.03270  Biso   1.000  C
  C40      1.0000 0.97200  0.20880  0.46730  Biso   1.000  C
  H217     1.0000 0.48170  0.23040  0.95300  Biso   1.000  H
  H218     1.0000 0.01830  0.73040  0.54700  Biso   1.000  H
  H219     1.0000 0.51830  0.76960  0.04700  Biso   1.000  H
  H220     1.0000 0.98170  0.26960  0.45300  Biso   1.000  H
  H221     1.0000 0.45360  0.25820  0.98510  Biso   1.000  H
  H222     1.0000 0.04640  0.75820  0.51490  Biso   1.000  H
  H223     1.0000 0.54640  0.74180  0.01490  Biso   1.000  H
  H224     1.0000 0.95360  0.24180  0.48510  Biso   1.000  H
  C41      1.0000 0.82450  0.25620  0.35040  Biso   1.000  C
  C42      1.0000 0.67550  0.75620  0.14960  Biso   1.000  C
  C43      1.0000 0.17550  0.74380  0.64960  Biso   1.000  C
  C44      1.0000 0.32450  0.24380  0.85040  Biso   1.000  C
  H225     1.0000 0.85050  0.30400  0.36720  Biso   1.000  H
  H226     1.0000 0.64950  0.80400  0.13280  Biso   1.000  H
  H227     1.0000 0.14950  0.69600  0.63280  Biso   1.000  H
  H228     1.0000 0.35050  0.19600  0.86720  Biso   1.000  H
  H229     1.0000 0.81790  0.18530  0.36140  Biso   1.000  H
  H230     1.0000 0.68210  0.68530  0.13860  Biso   1.000  H
  H231     1.0000 0.18210  0.81470  0.63860  Biso   1.000  H
  H232     1.0000 0.31790  0.31470  0.86140  Biso   1.000  H
  C45      1.0000 0.85560  0.23350  0.32140  Biso   1.000  C
  C46      1.0000 0.64440  0.73350  0.17860  Biso   1.000  C
  C47      1.0000 0.14440  0.76650  0.67860  Biso   1.000  C
  C48      1.0000 0.35560  0.26650  0.82140  Biso   1.000  C
  H233     1.0000 0.88520  0.17270  0.32780  Biso   1.000  H
  H234     1.0000 0.61480  0.67270  0.17220  Biso   1.000  H
  H235     1.0000 0.11480  0.82730  0.67220  Biso   1.000  H
  H236     1.0000 0.38520  0.32730  0.82780  Biso   1.000  H
  H237     1.0000 0.87810  0.30070  0.31720  Biso   1.000  H
  H238     1.0000 0.62190  0.80070  0.18280  Biso   1.000  H
  H239     1.0000 0.12190  0.69930  0.68280  Biso   1.000  H
  H240     1.0000 0.37810  0.19930  0.81720  Biso   1.000  H
  C49      1.0000 0.64940  0.33100  0.22750  Biso   1.000  C
  C50      1.0000 0.85060  0.83100  0.27250  Biso   1.000  C
  C51      1.0000 0.35060  0.66900  0.77250  Biso   1.000  C
  C52      1.0000 0.14940  0.16900  0.72750  Biso   1.000  C
  H241     1.0000 0.62060  0.28270  0.21230  Biso   1.000  H
  H242     1.0000 0.87940  0.78270  0.28770  Biso   1.000  H
  H243     1.0000 0.37940  0.71730  0.78770  Biso   1.000  H
  H244     1.0000 0.12060  0.21730  0.71230  Biso   1.000  H
  H245     1.0000 0.65650  0.39660  0.21410  Biso   1.000  H
  H246     1.0000 0.84350  0.89660  0.28590  Biso   1.000  H
  H247     1.0000 0.34350  0.60340  0.78590  Biso   1.000  H
  H248     1.0000 0.15650  0.10340  0.71410  Biso   1.000  H
  C53      1.0000 0.62210  0.36700  0.25060  Biso   1.000  C
  C54      1.0000 0.87790  0.86700  0.24940  Biso   1.000  C
  C55      1.0000 0.37790  0.63300  0.74940  Biso   1.000  C
  C56      1.0000 0.12210  0.13300  0.75060  Biso   1.000  C
  H249     1.0000 0.60400  0.44010  0.24370  Biso   1.000  H
  H250     1.0000 0.89600  0.94010  0.25630  Biso   1.000  H
  H251     1.0000 0.39600  0.55990  0.75630  Biso   1.000  H
  H252     1.0000 0.10400  0.05990  0.74370  Biso   1.000  H
  H253     1.0000 0.58880  0.31510  0.25190  Biso   1.000  H
  H254     1.0000 0.91120  0.81510  0.24810  Biso   1.000  H
  H255     1.0000 0.41120  0.68490  0.74810  Biso   1.000  H
  H256     1.0000 0.08880  0.18490  0.75190  Biso   1.000  H
  C57      1.0000 0.46340  0.05140  0.11840  Biso   1.000  C
  C58      1.0000 0.03660  0.55140  0.38160  Biso   1.000  C
  C59      1.0000 0.53660  0.94860  0.88160  Biso   1.000  C
  C60      1.0000 0.96340  0.44860  0.61840  Biso   1.000  C
  H257     1.0000 0.47000  0.06350  0.14290  Biso   1.000  H
  H258     1.0000 0.03000  0.56350  0.35710  Biso   1.000  H
  H259     1.0000 0.53000  0.93650  0.85710  Biso   1.000  H
  H260     1.0000 0.97000  0.43650  0.64290  Biso   1.000  H
  H261     1.0000 0.46300  0.97020  0.11470  Biso   1.000  H
  H262     1.0000 0.03700  0.47020  0.38530  Biso   1.000  H
  H263     1.0000 0.53700  0.02980  0.88530  Biso   1.000  H
  H264     1.0000 0.96300  0.52980  0.61470  Biso   1.000  H
  C61      1.0000 0.51740  0.09930  0.10650  Biso   1.000  C
  C62      1.0000 0.98260  0.59930  0.39350  Biso   1.000  C
  C63      1.0000 0.48260  0.90070  0.89350  Biso   1.000  C
  C64      1.0000 0.01740  0.40070  0.60650  Biso   1.000  C
  H265     1.0000 0.51670  0.06650  0.08420  Biso   1.000  H
  H266     1.0000 0.98330  0.56650  0.41580  Biso   1.000  H
  H267     1.0000 0.48330  0.93350  0.91580  Biso   1.000  H
  H268     1.0000 0.01670  0.43350  0.58420  Biso   1.000  H
  H269     1.0000 0.55380  0.06980  0.12180  Biso   1.000  H
  H270     1.0000 0.94620  0.56980  0.37820  Biso   1.000  H
  H271     1.0000 0.44620  0.93020  0.87820  Biso   1.000  H
  H272     1.0000 0.05380  0.43020  0.62180  Biso   1.000  H
  C65      1.0000 0.35430  0.52870  0.41460  Biso   1.000  C
  C66      1.0000 0.14570  0.02870  0.08540  Biso   1.000  C
  C67      1.0000 0.64570  0.47130  0.58540  Biso   1.000  C
  C68      1.0000 0.85430  0.97130  0.91460  Biso   1.000  C
  H273     1.0000 0.37950  0.59460  0.42230  Biso   1.000  H
  H274     1.0000 0.12050  0.09460  0.07770  Biso   1.000  H
  H275     1.0000 0.62050  0.40540  0.57770  Biso   1.000  H
  H276     1.0000 0.87950  0.90540  0.92230  Biso   1.000  H
  H277     1.0000 0.38080  0.47250  0.40740  Biso   1.000  H
  H278     1.0000 0.11920  0.97250  0.09260  Biso   1.000  H
  H279     1.0000 0.61920  0.52750  0.59260  Biso   1.000  H
  H280     1.0000 0.88080  0.02750  0.90740  Biso   1.000  H
  C69      1.0000 0.30810  0.56150  0.38480  Biso   1.000  C
  C70      1.0000 0.19190  0.06150  0.11520  Biso   1.000  C
  C71      1.0000 0.69190  0.43850  0.61520  Biso   1.000  C
  C72      1.0000 0.80810  0.93850  0.88480  Biso   1.000  C
  H281     1.0000 0.32520  0.61990  0.37250  Biso   1.000  H
  H282     1.0000 0.17480  0.11990  0.12750  Biso   1.000  H
  H283     1.0000 0.67480  0.38010  0.62750  Biso   1.000  H
  H284     1.0000 0.82520  0.88010  0.87250  Biso   1.000  H
  H285     1.0000 0.27340  0.59430  0.39260  Biso   1.000  H
  H286     1.0000 0.22660  0.09430  0.10740  Biso   1.000  H
  H287     1.0000 0.72660  0.40570  0.60740  Biso   1.000  H
  H288     1.0000 0.77340  0.90570  0.89260  Biso   1.000  H
  O313     1.0000 0.53740  0.87730  0.62770  Biso   1.000  O
  O314     1.0000 0.96260  0.37730  0.87230  Biso   1.000  O
  O315     1.0000 0.46260  0.12270  0.37230  Biso   1.000  O
  O316     1.0000 0.03740  0.62270  0.12770  Biso   1.000  O
  O317     1.0000 0.78510  0.47840  0.26980  Biso   1.000  O
  O318     1.0000 0.71490  0.97840  0.23020  Biso   1.000  O
  O319     1.0000 0.21490  0.52160  0.73020  Biso   1.000  O
  O320     1.0000 0.28510  0.02160  0.76980  Biso   1.000  O
  O321     1.0000 0.43210  0.50450  0.49920  Biso   1.000  O
  O322     1.0000 0.06790  0.00450  0.00080  Biso   1.000  O
  O323     1.0000 0.56790  0.49550  0.50080  Biso   1.000  O
  O324     1.0000 0.93210  0.99550  0.99920  Biso   1.000  O
  O325     1.0000 0.39570  0.68090  0.55670  Biso   1.000  O
  O326     1.0000 0.10430  0.18090  0.94330  Biso   1.000  O
  O327     1.0000 0.60430  0.31910  0.44330  Biso   1.000  O
  O328     1.0000 0.89570  0.81910  0.05670  Biso   1.000  O
  O329     1.0000 0.53440  0.75880  0.68130  Biso   1.000  O
  O330     1.0000 0.96560  0.25880  0.81870  Biso   1.000  O
  O331     1.0000 0.46560  0.24120  0.31870  Biso   1.000  O
  O332     1.0000 0.03440  0.74120  0.18130  Biso   1.000  O
  O333     1.0000 0.49630  0.53640  0.30730  Biso   1.000  O
  O334     1.0000 0.00370  0.03640  0.19270  Biso   1.000  O
  O335     1.0000 0.50370  0.46360  0.69270  Biso   1.000  O
  O336     1.0000 0.99630  0.96360  0.80730  Biso   1.000  O
  O337     1.0000 0.78880  0.05300  0.78960  Biso   1.000  O
  O338     1.0000 0.71120  0.55300  0.71040  Biso   1.000  O
  O339     1.0000 0.21120  0.94700  0.21040  Biso   1.000  O
  O340     1.0000 0.28880  0.44700  0.28960  Biso   1.000  O
  O341     1.0000 0.51430  0.67600  0.22800  Biso   1.000  O
  O342     1.0000 0.98570  0.17600  0.27200  Biso   1.000  O
  O343     1.0000 0.48570  0.32400  0.77200  Biso   1.000  O
  O344     1.0000 0.01430  0.82400  0.72800  Biso   1.000  O
