data_image0
_cell_length_a       27.571
_cell_length_b       14.264
_cell_length_c       27.826
_cell_angle_alpha    90
_cell_angle_beta     110.162
_cell_angle_gamma    90

_symmetry_space_group_name_H-M    "P 1"
_symmetry_int_tables_number       1

loop_
  _symmetry_equiv_pos_as_xyz
  'x, y, z'

loop_
  _atom_site_label
  _atom_site_occupancy
  _atom_site_fract_x
  _atom_site_fract_y
  _atom_site_fract_z
  _atom_site_thermal_displace_type
  _atom_site_B_iso_or_equiv
  _atom_site_type_symbol
  As1      1.0000 0.42639  0.47351  0.74862  Biso   1.000  As
  As2      1.0000 0.57361  0.47351  0.75138  Biso   1.000  As
  As3      1.0000 0.92639  0.97351  0.74862  Biso   1.000  As
  As4      1.0000 0.07361  0.97351  0.75138  Biso   1.000  As
  As5      1.0000 0.57361  0.52649  0.25138  Biso   1.000  As
  As6      1.0000 0.42639  0.52649  0.24862  Biso   1.000  As
  As7      1.0000 0.07361  0.02649  0.25138  Biso   1.000  As
  As8      1.0000 0.92639  0.02649  0.24862  Biso   1.000  As
  Mo1      1.0000 0.58969  0.69121  0.81634  Biso   1.000  Mo
  Mo2      1.0000 0.41031  0.69121  0.68366  Biso   1.000  Mo
  Mo3      1.0000 0.08969  0.19121  0.81634  Biso   1.000  Mo
  Mo4      1.0000 0.91031  0.19121  0.68366  Biso   1.000  Mo
  Mo5      1.0000 0.41031  0.30879  0.18366  Biso   1.000  Mo
  Mo6      1.0000 0.58969  0.30879  0.31634  Biso   1.000  Mo
  Mo7      1.0000 0.91031  0.80879  0.18366  Biso   1.000  Mo
  Mo8      1.0000 0.08969  0.80879  0.31634  Biso   1.000  Mo
  Mo9      1.0000 0.47865  0.46787  0.88462  Biso   1.000  Mo
  Mo10     1.0000 0.52135  0.46787  0.61538  Biso   1.000  Mo
  Mo11     1.0000 0.97865  0.96787  0.88462  Biso   1.000  Mo
  Mo12     1.0000 0.02135  0.96787  0.61538  Biso   1.000  Mo
  Mo13     1.0000 0.52135  0.53213  0.11538  Biso   1.000  Mo
  Mo14     1.0000 0.47865  0.53213  0.38462  Biso   1.000  Mo
  Mo15     1.0000 0.02135  0.03213  0.11538  Biso   1.000  Mo
  Mo16     1.0000 0.97865  0.03213  0.38462  Biso   1.000  Mo
  Mo17     1.0000 0.45287  0.69371  0.81415  Biso   1.000  Mo
  Mo18     1.0000 0.54713  0.69371  0.68585  Biso   1.000  Mo
  Mo19     1.0000 0.95287  0.19371  0.81415  Biso   1.000  Mo
  Mo20     1.0000 0.04713  0.19371  0.68585  Biso   1.000  Mo
  Mo21     1.0000 0.54713  0.30629  0.18585  Biso   1.000  Mo
  Mo22     1.0000 0.45287  0.30629  0.31415  Biso   1.000  Mo
  Mo23     1.0000 0.04713  0.80629  0.18585  Biso   1.000  Mo
  Mo24     1.0000 0.95287  0.80629  0.31415  Biso   1.000  Mo
  Mo25     1.0000 0.61475  0.46457  0.88686  Biso   1.000  Mo
  Mo26     1.0000 0.38525  0.46457  0.61314  Biso   1.000  Mo
  Mo27     1.0000 0.11475  0.96457  0.88686  Biso   1.000  Mo
  Mo28     1.0000 0.88525  0.96457  0.61314  Biso   1.000  Mo
  Mo29     1.0000 0.38525  0.53543  0.11314  Biso   1.000  Mo
  Mo30     1.0000 0.61475  0.53543  0.38686  Biso   1.000  Mo
  Mo31     1.0000 0.88525  0.03543  0.11314  Biso   1.000  Mo
  Mo32     1.0000 0.11475  0.03543  0.38686  Biso   1.000  Mo
  Mo33     1.0000 0.59245  0.25843  0.82262  Biso   1.000  Mo
  Mo34     1.0000 0.40755  0.25843  0.67738  Biso   1.000  Mo
  Mo35     1.0000 0.09245  0.75843  0.82262  Biso   1.000  Mo
  Mo36     1.0000 0.90755  0.75843  0.67738  Biso   1.000  Mo
  Mo37     1.0000 0.40755  0.74157  0.17738  Biso   1.000  Mo
  Mo38     1.0000 0.59245  0.74157  0.32262  Biso   1.000  Mo
  Mo39     1.0000 0.90755  0.24157  0.17738  Biso   1.000  Mo
  Mo40     1.0000 0.09245  0.24157  0.32262  Biso   1.000  Mo
  Mo41     1.0000 0.45635  0.26221  0.82042  Biso   1.000  Mo
  Mo42     1.0000 0.54365  0.26221  0.67958  Biso   1.000  Mo
  Mo43     1.0000 0.95635  0.76221  0.82042  Biso   1.000  Mo
  Mo44     1.0000 0.04365  0.76221  0.67958  Biso   1.000  Mo
  Mo45     1.0000 0.54365  0.73779  0.17958  Biso   1.000  Mo
  Mo46     1.0000 0.45635  0.73779  0.32042  Biso   1.000  Mo
  Mo47     1.0000 0.04365  0.23779  0.17958  Biso   1.000  Mo
  Mo48     1.0000 0.95635  0.23779  0.32042  Biso   1.000  Mo
  Mo49     1.0000 0.33811  0.41811  0.81447  Biso   1.000  Mo
  Mo50     1.0000 0.66189  0.41811  0.68553  Biso   1.000  Mo
  Mo51     1.0000 0.83811  0.91811  0.81447  Biso   1.000  Mo
  Mo52     1.0000 0.16189  0.91811  0.68553  Biso   1.000  Mo
  Mo53     1.0000 0.66189  0.58189  0.18553  Biso   1.000  Mo
  Mo54     1.0000 0.33811  0.58189  0.31447  Biso   1.000  Mo
  Mo55     1.0000 0.16189  0.08189  0.18553  Biso   1.000  Mo
  Mo56     1.0000 0.83811  0.08189  0.31447  Biso   1.000  Mo
  Mo57     1.0000 0.31899  0.61810  0.74626  Biso   1.000  Mo
  Mo58     1.0000 0.68101  0.61810  0.75374  Biso   1.000  Mo
  Mo59     1.0000 0.81899  0.11810  0.74626  Biso   1.000  Mo
  Mo60     1.0000 0.18101  0.11810  0.75374  Biso   1.000  Mo
  Mo61     1.0000 0.68101  0.38190  0.25374  Biso   1.000  Mo
  Mo62     1.0000 0.31899  0.38190  0.24626  Biso   1.000  Mo
  Mo63     1.0000 0.18101  0.88190  0.25374  Biso   1.000  Mo
  Mo64     1.0000 0.81899  0.88190  0.24626  Biso   1.000  Mo
  Mo65     1.0000 0.29156  0.41361  0.68032  Biso   1.000  Mo
  Mo66     1.0000 0.70844  0.41361  0.81968  Biso   1.000  Mo
  Mo67     1.0000 0.79156  0.91361  0.68032  Biso   1.000  Mo
  Mo68     1.0000 0.20844  0.91361  0.81968  Biso   1.000  Mo
  Mo69     1.0000 0.70844  0.58639  0.31968  Biso   1.000  Mo
  Mo70     1.0000 0.29156  0.58639  0.18032  Biso   1.000  Mo
  Mo71     1.0000 0.20844  0.08639  0.31968  Biso   1.000  Mo
  Mo72     1.0000 0.79156  0.08639  0.18032  Biso   1.000  Mo
  O1       1.0000 0.52190  0.70530  0.81680  Biso   1.000  O
  O2       1.0000 0.47810  0.70530  0.68320  Biso   1.000  O
  O3       1.0000 0.02190  0.20530  0.81680  Biso   1.000  O
  O4       1.0000 0.97810  0.20530  0.68320  Biso   1.000  O
  O5       1.0000 0.47810  0.29470  0.18320  Biso   1.000  O
  O6       1.0000 0.52190  0.29470  0.31680  Biso   1.000  O
  O7       1.0000 0.97810  0.79470  0.18320  Biso   1.000  O
  O8       1.0000 0.02190  0.79470  0.31680  Biso   1.000  O
  O9       1.0000 0.52550  0.24730  0.82560  Biso   1.000  O
  O10      1.0000 0.47450  0.24730  0.67440  Biso   1.000  O
  O11      1.0000 0.02550  0.74730  0.82560  Biso   1.000  O
  O12      1.0000 0.97450  0.74730  0.67440  Biso   1.000  O
  O13      1.0000 0.47450  0.75270  0.17440  Biso   1.000  O
  O14      1.0000 0.52550  0.75270  0.32560  Biso   1.000  O
  O15      1.0000 0.97450  0.25270  0.17440  Biso   1.000  O
  O16      1.0000 0.02550  0.25270  0.32560  Biso   1.000  O
  O17      1.0000 0.47030  0.59010  0.85600  Biso   1.000  O
  O18      1.0000 0.52970  0.59010  0.64400  Biso   1.000  O
  O19      1.0000 0.97030  0.09010  0.85600  Biso   1.000  O
  O20      1.0000 0.02970  0.09010  0.64400  Biso   1.000  O
  O21      1.0000 0.52970  0.40990  0.14400  Biso   1.000  O
  O22      1.0000 0.47030  0.40990  0.35600  Biso   1.000  O
  O23      1.0000 0.02970  0.90990  0.14400  Biso   1.000  O
  O24      1.0000 0.97030  0.90990  0.35600  Biso   1.000  O
  O25      1.0000 0.42710  0.75660  0.74870  Biso   1.000  O
  O26      1.0000 0.57290  0.75660  0.75130  Biso   1.000  O
  O27      1.0000 0.92710  0.25660  0.74870  Biso   1.000  O
  O28      1.0000 0.07290  0.25660  0.75130  Biso   1.000  O
  O29      1.0000 0.57290  0.24340  0.25130  Biso   1.000  O
  O30      1.0000 0.42710  0.24340  0.24870  Biso   1.000  O
  O31      1.0000 0.07290  0.74340  0.25130  Biso   1.000  O
  O32      1.0000 0.92710  0.74340  0.24870  Biso   1.000  O
  O33      1.0000 0.36440  0.47720  0.74770  Biso   1.000  O
  O34      1.0000 0.63560  0.47720  0.75230  Biso   1.000  O
  O35      1.0000 0.86440  0.97720  0.74770  Biso   1.000  O
  O36      1.0000 0.13560  0.97720  0.75230  Biso   1.000  O
  O37      1.0000 0.63560  0.52280  0.25230  Biso   1.000  O
  O38      1.0000 0.36440  0.52280  0.24770  Biso   1.000  O
  O39      1.0000 0.13560  0.02280  0.25230  Biso   1.000  O
  O40      1.0000 0.86440  0.02280  0.24770  Biso   1.000  O
  O41      1.0000 0.60260  0.58680  0.85900  Biso   1.000  O
  O42      1.0000 0.39740  0.58680  0.64100  Biso   1.000  O
  O43      1.0000 0.10260  0.08680  0.85900  Biso   1.000  O
  O44      1.0000 0.89740  0.08680  0.64100  Biso   1.000  O
  O45      1.0000 0.39740  0.41320  0.14100  Biso   1.000  O
  O46      1.0000 0.60260  0.41320  0.35900  Biso   1.000  O
  O47      1.0000 0.89740  0.91320  0.14100  Biso   1.000  O
  O48      1.0000 0.10260  0.91320  0.35900  Biso   1.000  O
  O49      1.0000 0.46240  0.41780  0.80260  Biso   1.000  O
  O50      1.0000 0.53760  0.41780  0.69740  Biso   1.000  O
  O51      1.0000 0.96240  0.91780  0.80260  Biso   1.000  O
  O52      1.0000 0.03760  0.91780  0.69740  Biso   1.000  O
  O53      1.0000 0.53760  0.58220  0.19740  Biso   1.000  O
  O54      1.0000 0.46240  0.58220  0.30260  Biso   1.000  O
  O55      1.0000 0.03760  0.08220  0.19740  Biso   1.000  O
  O56      1.0000 0.96240  0.08220  0.30260  Biso   1.000  O
  O57      1.0000 0.43310  0.24290  0.74910  Biso   1.000  O
  O58      1.0000 0.56690  0.24290  0.75090  Biso   1.000  O
  O59      1.0000 0.93310  0.74290  0.74910  Biso   1.000  O
  O60      1.0000 0.06690  0.74290  0.75090  Biso   1.000  O
  O61      1.0000 0.56690  0.75710  0.25090  Biso   1.000  O
  O62      1.0000 0.43310  0.75710  0.24910  Biso   1.000  O
  O63      1.0000 0.06690  0.25710  0.25090  Biso   1.000  O
  O64      1.0000 0.93310  0.25710  0.24910  Biso   1.000  O
  O65      1.0000 0.61610  0.15290  0.84430  Biso   1.000  O
  O66      1.0000 0.38390  0.15290  0.65570  Biso   1.000  O
  O67      1.0000 0.11610  0.65290  0.84430  Biso   1.000  O
  O68      1.0000 0.88390  0.65290  0.65570  Biso   1.000  O
  O69      1.0000 0.38390  0.84710  0.15570  Biso   1.000  O
  O70      1.0000 0.61610  0.84710  0.34430  Biso   1.000  O
  O71      1.0000 0.88390  0.34710  0.15570  Biso   1.000  O
  O72      1.0000 0.11610  0.34710  0.34430  Biso   1.000  O
  O73      1.0000 0.65920  0.29920  0.80910  Biso   1.000  O
  O74      1.0000 0.34080  0.29920  0.69090  Biso   1.000  O
  O75      1.0000 0.15920  0.79920  0.80910  Biso   1.000  O
  O76      1.0000 0.84080  0.79920  0.69090  Biso   1.000  O
  O77      1.0000 0.34080  0.70080  0.19090  Biso   1.000  O
  O78      1.0000 0.65920  0.70080  0.30910  Biso   1.000  O
  O79      1.0000 0.84080  0.20080  0.19090  Biso   1.000  O
  O80      1.0000 0.15920  0.20080  0.30910  Biso   1.000  O
  O81      1.0000 0.30380  0.53010  0.79740  Biso   1.000  O
  O82      1.0000 0.69620  0.53010  0.70260  Biso   1.000  O
  O83      1.0000 0.80380  0.03010  0.79740  Biso   1.000  O
  O84      1.0000 0.19620  0.03010  0.70260  Biso   1.000  O
  O85      1.0000 0.69620  0.46990  0.20260  Biso   1.000  O
  O86      1.0000 0.30380  0.46990  0.29740  Biso   1.000  O
  O87      1.0000 0.19620  0.96990  0.20260  Biso   1.000  O
  O88      1.0000 0.80380  0.96990  0.29740  Biso   1.000  O
  O89      1.0000 0.34420  0.65620  0.69800  Biso   1.000  O
  O90      1.0000 0.65580  0.65620  0.80200  Biso   1.000  O
  O91      1.0000 0.84420  0.15620  0.69800  Biso   1.000  O
  O92      1.0000 0.15580  0.15620  0.80200  Biso   1.000  O
  O93      1.0000 0.65580  0.34380  0.30200  Biso   1.000  O
  O94      1.0000 0.34420  0.34380  0.19800  Biso   1.000  O
  O95      1.0000 0.15580  0.84380  0.30200  Biso   1.000  O
  O96      1.0000 0.84420  0.84380  0.19800  Biso   1.000  O
  O97      1.0000 0.47270  0.33210  0.88210  Biso   1.000  O
  O98      1.0000 0.52730  0.33210  0.61790  Biso   1.000  O
  O99      1.0000 0.97270  0.83210  0.88210  Biso   1.000  O
  O100     1.0000 0.02730  0.83210  0.61790  Biso   1.000  O
  O101     1.0000 0.52730  0.66790  0.11790  Biso   1.000  O
  O102     1.0000 0.47270  0.66790  0.38210  Biso   1.000  O
  O103     1.0000 0.02730  0.16790  0.11790  Biso   1.000  O
  O104     1.0000 0.97270  0.16790  0.38210  Biso   1.000  O
  O105     1.0000 0.30860  0.36960  0.85390  Biso   1.000  O
  O106     1.0000 0.69140  0.36960  0.64610  Biso   1.000  O
  O107     1.0000 0.80860  0.86960  0.85390  Biso   1.000  O
  O108     1.0000 0.19140  0.86960  0.64610  Biso   1.000  O
  O109     1.0000 0.69140  0.63040  0.14610  Biso   1.000  O
  O110     1.0000 0.30860  0.63040  0.35390  Biso   1.000  O
  O111     1.0000 0.19140  0.13040  0.14610  Biso   1.000  O
  O112     1.0000 0.80860  0.13040  0.35390  Biso   1.000  O
  O113     1.0000 0.62070  0.30280  0.69510  Biso   1.000  O
  O114     1.0000 0.37930  0.30280  0.80490  Biso   1.000  O
  O115     1.0000 0.12070  0.80280  0.69510  Biso   1.000  O
  O116     1.0000 0.87930  0.80280  0.80490  Biso   1.000  O
  O117     1.0000 0.37930  0.69720  0.30490  Biso   1.000  O
  O118     1.0000 0.62070  0.69720  0.19510  Biso   1.000  O
  O119     1.0000 0.87930  0.19720  0.30490  Biso   1.000  O
  O120     1.0000 0.12070  0.19720  0.19510  Biso   1.000  O
  O121     1.0000 0.42590  0.41750  0.69610  Biso   1.000  O
  O122     1.0000 0.57410  0.41750  0.80390  Biso   1.000  O
  O123     1.0000 0.92590  0.91750  0.69610  Biso   1.000  O
  O124     1.0000 0.07410  0.91750  0.80390  Biso   1.000  O
  O125     1.0000 0.57410  0.58250  0.30390  Biso   1.000  O
  O126     1.0000 0.42590  0.58250  0.19610  Biso   1.000  O
  O127     1.0000 0.07410  0.08250  0.30390  Biso   1.000  O
  O128     1.0000 0.92590  0.08250  0.19610  Biso   1.000  O
  O129     1.0000 0.65160  0.48270  0.94770  Biso   1.000  O
  O130     1.0000 0.34840  0.48270  0.55230  Biso   1.000  O
  O131     1.0000 0.15160  0.98270  0.94770  Biso   1.000  O
  O132     1.0000 0.84840  0.98270  0.55230  Biso   1.000  O
  O133     1.0000 0.34840  0.51730  0.05230  Biso   1.000  O
  O134     1.0000 0.65160  0.51730  0.44770  Biso   1.000  O
  O135     1.0000 0.84840  0.01730  0.05230  Biso   1.000  O
  O136     1.0000 0.15160  0.01730  0.44770  Biso   1.000  O
  O137     1.0000 0.70880  0.35830  0.75240  Biso   1.000  O
  O138     1.0000 0.29120  0.35830  0.74760  Biso   1.000  O
  O139     1.0000 0.20880  0.85830  0.75240  Biso   1.000  O
  O140     1.0000 0.79120  0.85830  0.74760  Biso   1.000  O
  O141     1.0000 0.29120  0.64170  0.24760  Biso   1.000  O
  O142     1.0000 0.70880  0.64170  0.25240  Biso   1.000  O
  O143     1.0000 0.79120  0.14170  0.24760  Biso   1.000  O
  O144     1.0000 0.20880  0.14170  0.25240  Biso   1.000  O
  O145     1.0000 0.61860  0.77920  0.85640  Biso   1.000  O
  O146     1.0000 0.38140  0.77920  0.64360  Biso   1.000  O
  O147     1.0000 0.11860  0.27920  0.85640  Biso   1.000  O
  O148     1.0000 0.88140  0.27920  0.64360  Biso   1.000  O
  O149     1.0000 0.38140  0.22080  0.14360  Biso   1.000  O
  O150     1.0000 0.61860  0.22080  0.35640  Biso   1.000  O
  O151     1.0000 0.88140  0.72080  0.14360  Biso   1.000  O
  O152     1.0000 0.11860  0.72080  0.35640  Biso   1.000  O
  O153     1.0000 0.39820  0.46120  0.85860  Biso   1.000  O
  O154     1.0000 0.60180  0.46120  0.64140  Biso   1.000  O
  O155     1.0000 0.89820  0.96120  0.85860  Biso   1.000  O
  O156     1.0000 0.10180  0.96120  0.64140  Biso   1.000  O
  O157     1.0000 0.60180  0.53880  0.14140  Biso   1.000  O
  O158     1.0000 0.39820  0.53880  0.35860  Biso   1.000  O
  O159     1.0000 0.10180  0.03880  0.14140  Biso   1.000  O
  O160     1.0000 0.89820  0.03880  0.35860  Biso   1.000  O
  O161     1.0000 0.26990  0.52620  0.69750  Biso   1.000  O
  O162     1.0000 0.73010  0.52620  0.80250  Biso   1.000  O
  O163     1.0000 0.76990  0.02620  0.69750  Biso   1.000  O
  O164     1.0000 0.23010  0.02620  0.80250  Biso   1.000  O
  O165     1.0000 0.73010  0.47380  0.30250  Biso   1.000  O
  O166     1.0000 0.26990  0.47380  0.19750  Biso   1.000  O
  O167     1.0000 0.23010  0.97380  0.30250  Biso   1.000  O
  O168     1.0000 0.76990  0.97380  0.19750  Biso   1.000  O
  O169     1.0000 0.61740  0.32910  0.88390  Biso   1.000  O
  O170     1.0000 0.38260  0.32910  0.61610  Biso   1.000  O
  O171     1.0000 0.11740  0.82910  0.88390  Biso   1.000  O
  O172     1.0000 0.88260  0.82910  0.61610  Biso   1.000  O
  O173     1.0000 0.38260  0.67090  0.11610  Biso   1.000  O
  O174     1.0000 0.61740  0.67090  0.38390  Biso   1.000  O
  O175     1.0000 0.88260  0.17090  0.11610  Biso   1.000  O
  O176     1.0000 0.11740  0.17090  0.38390  Biso   1.000  O
  O177     1.0000 0.45240  0.78180  0.85530  Biso   1.000  O
  O178     1.0000 0.54760  0.78180  0.64470  Biso   1.000  O
  O179     1.0000 0.95240  0.28180  0.85530  Biso   1.000  O
  O180     1.0000 0.04760  0.28180  0.64470  Biso   1.000  O
  O181     1.0000 0.54760  0.21820  0.14470  Biso   1.000  O
  O182     1.0000 0.45240  0.21820  0.35530  Biso   1.000  O
  O183     1.0000 0.04760  0.71820  0.14470  Biso   1.000  O
  O184     1.0000 0.95240  0.71820  0.35530  Biso   1.000  O
  O185     1.0000 0.48300  0.48450  0.94490  Biso   1.000  O
  O186     1.0000 0.51700  0.48450  0.55510  Biso   1.000  O
  O187     1.0000 0.98300  0.98450  0.94490  Biso   1.000  O
  O188     1.0000 0.01700  0.98450  0.55510  Biso   1.000  O
  O189     1.0000 0.51700  0.51550  0.05510  Biso   1.000  O
  O190     1.0000 0.48300  0.51550  0.44490  Biso   1.000  O
  O191     1.0000 0.01700  0.01550  0.05510  Biso   1.000  O
  O192     1.0000 0.98300  0.01550  0.44490  Biso   1.000  O
  O193     1.0000 0.44520  0.58700  0.74860  Biso   1.000  O
  O194     1.0000 0.55480  0.58700  0.75140  Biso   1.000  O
  O195     1.0000 0.94520  0.08700  0.74860  Biso   1.000  O
  O196     1.0000 0.05480  0.08700  0.75140  Biso   1.000  O
  O197     1.0000 0.55480  0.41300  0.25140  Biso   1.000  O
  O198     1.0000 0.44520  0.41300  0.24860  Biso   1.000  O
  O199     1.0000 0.05480  0.91300  0.25140  Biso   1.000  O
  O200     1.0000 0.94520  0.91300  0.24860  Biso   1.000  O
  O201     1.0000 0.27200  0.69690  0.74320  Biso   1.000  O
  O202     1.0000 0.72800  0.69690  0.75680  Biso   1.000  O
  O203     1.0000 0.77200  0.19690  0.74320  Biso   1.000  O
  O204     1.0000 0.22800  0.19690  0.75680  Biso   1.000  O
  O205     1.0000 0.72800  0.30310  0.25680  Biso   1.000  O
  O206     1.0000 0.27200  0.30310  0.24320  Biso   1.000  O
  O207     1.0000 0.22800  0.80310  0.25680  Biso   1.000  O
  O208     1.0000 0.77200  0.80310  0.24320  Biso   1.000  O
  O209     1.0000 0.37660  0.65970  0.79830  Biso   1.000  O
  O210     1.0000 0.62340  0.65970  0.70170  Biso   1.000  O
  O211     1.0000 0.87660  0.15970  0.79830  Biso   1.000  O
  O212     1.0000 0.12340  0.15970  0.70170  Biso   1.000  O
  O213     1.0000 0.62340  0.34030  0.20170  Biso   1.000  O
  O214     1.0000 0.37660  0.34030  0.29830  Biso   1.000  O
  O215     1.0000 0.12340  0.84030  0.20170  Biso   1.000  O
  O216     1.0000 0.87660  0.84030  0.29830  Biso   1.000  O
  O217     1.0000 0.32250  0.45740  0.63730  Biso   1.000  O
  O218     1.0000 0.67750  0.45740  0.86270  Biso   1.000  O
  O219     1.0000 0.82250  0.95740  0.63730  Biso   1.000  O
  O220     1.0000 0.17750  0.95740  0.86270  Biso   1.000  O
  O221     1.0000 0.67750  0.54260  0.36270  Biso   1.000  O
  O222     1.0000 0.32250  0.54260  0.13730  Biso   1.000  O
  O223     1.0000 0.17750  0.04260  0.36270  Biso   1.000  O
  O224     1.0000 0.82250  0.04260  0.13730  Biso   1.000  O
  O225     1.0000 0.23530  0.36480  0.64200  Biso   1.000  O
  O226     1.0000 0.76470  0.36480  0.85800  Biso   1.000  O
  O227     1.0000 0.73530  0.86480  0.64200  Biso   1.000  O
  O228     1.0000 0.26470  0.86480  0.85800  Biso   1.000  O
  O229     1.0000 0.76470  0.63520  0.35800  Biso   1.000  O
  O230     1.0000 0.23530  0.63520  0.14200  Biso   1.000  O
  O231     1.0000 0.26470  0.13520  0.35800  Biso   1.000  O
  O232     1.0000 0.73530  0.13520  0.14200  Biso   1.000  O
  O233     1.0000 0.54890  0.46520  0.89290  Biso   1.000  O
  O234     1.0000 0.45110  0.46520  0.60710  Biso   1.000  O
  O235     1.0000 0.04890  0.96520  0.89290  Biso   1.000  O
  O236     1.0000 0.95110  0.96520  0.60710  Biso   1.000  O
  O237     1.0000 0.45110  0.53480  0.10710  Biso   1.000  O
  O238     1.0000 0.54890  0.53480  0.39290  Biso   1.000  O
  O239     1.0000 0.95110  0.03480  0.10710  Biso   1.000  O
  O240     1.0000 0.04890  0.03480  0.39290  Biso   1.000  O
  Cu1      1.0000 0.28980  0.97426  0.00638  Biso   1.000  Cu
  Cu2      1.0000 0.71020  0.97426  0.49362  Biso   1.000  Cu
  Cu3      1.0000 0.78980  0.47426  0.00638  Biso   1.000  Cu
  Cu4      1.0000 0.21020  0.47426  0.49362  Biso   1.000  Cu
  Cu5      1.0000 0.71020  0.02574  0.99362  Biso   1.000  Cu
  Cu6      1.0000 0.28980  0.02574  0.50638  Biso   1.000  Cu
  Cu7      1.0000 0.21020  0.52574  0.99362  Biso   1.000  Cu
  Cu8      1.0000 0.78980  0.52574  0.50638  Biso   1.000  Cu
  Cu9      1.0000 0.22863  0.34834  0.85085  Biso   1.000  Cu
  Cu10     1.0000 0.77137  0.34834  0.64915  Biso   1.000  Cu
  Cu11     1.0000 0.72863  0.84834  0.85085  Biso   1.000  Cu
  Cu12     1.0000 0.27137  0.84834  0.64915  Biso   1.000  Cu
  Cu13     1.0000 0.77137  0.65166  0.14915  Biso   1.000  Cu
  Cu14     1.0000 0.22863  0.65166  0.35085  Biso   1.000  Cu
  Cu15     1.0000 0.27137  0.15166  0.14915  Biso   1.000  Cu
  Cu16     1.0000 0.72863  0.15166  0.35085  Biso   1.000  Cu
  C1       1.0000 0.23600  0.14050  0.95910  Biso   1.000  C
  C2       1.0000 0.76400  0.14050  0.54090  Biso   1.000  C
  C3       1.0000 0.73600  0.64050  0.95910  Biso   1.000  C
  C4       1.0000 0.26400  0.64050  0.54090  Biso   1.000  C
  C5       1.0000 0.76400  0.85950  0.04090  Biso   1.000  C
  C6       1.0000 0.23600  0.85950  0.45910  Biso   1.000  C
  C7       1.0000 0.26400  0.35950  0.04090  Biso   1.000  C
  C8       1.0000 0.73600  0.35950  0.45910  Biso   1.000  C
  N1       1.0000 0.27010  0.07740  0.95540  Biso   1.000  N
  N2       1.0000 0.72990  0.07740  0.54460  Biso   1.000  N
  N3       1.0000 0.77010  0.57740  0.95540  Biso   1.000  N
  N4       1.0000 0.22990  0.57740  0.54460  Biso   1.000  N
  N5       1.0000 0.72990  0.92260  0.04460  Biso   1.000  N
  N6       1.0000 0.27010  0.92260  0.45540  Biso   1.000  N
  N7       1.0000 0.22990  0.42260  0.04460  Biso   1.000  N
  N8       1.0000 0.77010  0.42260  0.45540  Biso   1.000  N
  N9       1.0000 0.18020  0.40860  0.79080  Biso   1.000  N
  N10      1.0000 0.81980  0.40860  0.70920  Biso   1.000  N
  N11      1.0000 0.68020  0.90860  0.79080  Biso   1.000  N
  N12      1.0000 0.31980  0.90860  0.70920  Biso   1.000  N
  N13      1.0000 0.81980  0.59140  0.20920  Biso   1.000  N
  N14      1.0000 0.18020  0.59140  0.29080  Biso   1.000  N
  N15      1.0000 0.31980  0.09140  0.20920  Biso   1.000  N
  N16      1.0000 0.68020  0.09140  0.29080  Biso   1.000  N
  N17      1.0000 0.24680  0.23380  0.89210  Biso   1.000  N
  N18      1.0000 0.75320  0.23380  0.60790  Biso   1.000  N
  N19      1.0000 0.74680  0.73380  0.89210  Biso   1.000  N
  N20      1.0000 0.25320  0.73380  0.60790  Biso   1.000  N
  N21      1.0000 0.75320  0.76620  0.10790  Biso   1.000  N
  N22      1.0000 0.24680  0.76620  0.39210  Biso   1.000  N
  N23      1.0000 0.25320  0.26620  0.10790  Biso   1.000  N
  N24      1.0000 0.74680  0.26620  0.39210  Biso   1.000  N
  C9       1.0000 0.17930  0.38800  0.74420  Biso   1.000  C
  C10      1.0000 0.82070  0.38800  0.75580  Biso   1.000  C
  C11      1.0000 0.67930  0.88800  0.74420  Biso   1.000  C
  C12      1.0000 0.32070  0.88800  0.75580  Biso   1.000  C
  C13      1.0000 0.82070  0.61200  0.25580  Biso   1.000  C
  C14      1.0000 0.17930  0.61200  0.24420  Biso   1.000  C
  C15      1.0000 0.32070  0.11200  0.25580  Biso   1.000  C
  C16      1.0000 0.67930  0.11200  0.24420  Biso   1.000  C
  C17      1.0000 0.10240  0.49460  0.75170  Biso   1.000  C
  C18      1.0000 0.89760  0.49460  0.74830  Biso   1.000  C
  C19      1.0000 0.60240  0.99460  0.75170  Biso   1.000  C
  C20      1.0000 0.39760  0.99460  0.74830  Biso   1.000  C
  C21      1.0000 0.89760  0.50540  0.24830  Biso   1.000  C
  C22      1.0000 0.10240  0.50540  0.25170  Biso   1.000  C
  C23      1.0000 0.39760  0.00540  0.24830  Biso   1.000  C
  C24      1.0000 0.60240  0.00540  0.25170  Biso   1.000  C
  C25      1.0000 0.22500  0.21910  0.92690  Biso   1.000  C
  C26      1.0000 0.77500  0.21910  0.57310  Biso   1.000  C
  C27      1.0000 0.72500  0.71910  0.92690  Biso   1.000  C
  C28      1.0000 0.27500  0.71910  0.57310  Biso   1.000  C
  C29      1.0000 0.77500  0.78090  0.07310  Biso   1.000  C
  C30      1.0000 0.22500  0.78090  0.42690  Biso   1.000  C
  C31      1.0000 0.27500  0.28090  0.07310  Biso   1.000  C
  C32      1.0000 0.72500  0.28090  0.42690  Biso   1.000  C
  C33      1.0000 0.28090  0.16960  0.88800  Biso   1.000  C
  C34      1.0000 0.71910  0.16960  0.61200  Biso   1.000  C
  C35      1.0000 0.78090  0.66960  0.88800  Biso   1.000  C
  C36      1.0000 0.21910  0.66960  0.61200  Biso   1.000  C
  C37      1.0000 0.71910  0.83040  0.11200  Biso   1.000  C
  C38      1.0000 0.28090  0.83040  0.38800  Biso   1.000  C
  C39      1.0000 0.21910  0.33040  0.11200  Biso   1.000  C
  C40      1.0000 0.78090  0.33040  0.38800  Biso   1.000  C
  N25      1.0000 0.37860  0.33410  0.97680  Biso   1.000  N
  N26      1.0000 0.62140  0.33410  0.52320  Biso   1.000  N
  N27      1.0000 0.87860  0.83410  0.97680  Biso   1.000  N
  N28      1.0000 0.12140  0.83410  0.52320  Biso   1.000  N
  N29      1.0000 0.62140  0.66590  0.02320  Biso   1.000  N
  N30      1.0000 0.37860  0.66590  0.47680  Biso   1.000  N
  N31      1.0000 0.12140  0.16590  0.02320  Biso   1.000  N
  N32      1.0000 0.87860  0.16590  0.47680  Biso   1.000  N
  C41      1.0000 0.39740  0.28120  0.94850  Biso   1.000  C
  C42      1.0000 0.60260  0.28120  0.55150  Biso   1.000  C
  C43      1.0000 0.89740  0.78120  0.94850  Biso   1.000  C
  C44      1.0000 0.10260  0.78120  0.55150  Biso   1.000  C
  C45      1.0000 0.60260  0.71880  0.05150  Biso   1.000  C
  C46      1.0000 0.39740  0.71880  0.44850  Biso   1.000  C
  C47      1.0000 0.10260  0.21880  0.05150  Biso   1.000  C
  C48      1.0000 0.89740  0.21880  0.44850  Biso   1.000  C
  N33      1.0000 0.58190  0.26920  0.04890  Biso   1.000  N
  N34      1.0000 0.41810  0.26920  0.45110  Biso   1.000  N
  N35      1.0000 0.08190  0.76920  0.04890  Biso   1.000  N
  N36      1.0000 0.91810  0.76920  0.45110  Biso   1.000  N
  N37      1.0000 0.41810  0.73080  0.95110  Biso   1.000  N
  N38      1.0000 0.58190  0.73080  0.54890  Biso   1.000  N
  N39      1.0000 0.91810  0.23080  0.95110  Biso   1.000  N
  N40      1.0000 0.08190  0.23080  0.54890  Biso   1.000  N
  C49      1.0000 0.62850  0.28380  0.08390  Biso   1.000  C
  C50      1.0000 0.37150  0.28380  0.41610  Biso   1.000  C
  C51      1.0000 0.12850  0.78380  0.08390  Biso   1.000  C
  C52      1.0000 0.87150  0.78380  0.41610  Biso   1.000  C
  C53      1.0000 0.37150  0.71620  0.91610  Biso   1.000  C
  C54      1.0000 0.62850  0.71620  0.58390  Biso   1.000  C
  C55      1.0000 0.87150  0.21620  0.91610  Biso   1.000  C
  C56      1.0000 0.12850  0.21620  0.58390  Biso   1.000  C
  C57      1.0000 0.65630  0.36610  0.08850  Biso   1.000  C
  C58      1.0000 0.34370  0.36610  0.41150  Biso   1.000  C
  C59      1.0000 0.15630  0.86610  0.08850  Biso   1.000  C
  C60      1.0000 0.84370  0.86610  0.41150  Biso   1.000  C
  C61      1.0000 0.34370  0.63390  0.91150  Biso   1.000  C
  C62      1.0000 0.65630  0.63390  0.58850  Biso   1.000  C
  C63      1.0000 0.84370  0.13390  0.91150  Biso   1.000  C
  C64      1.0000 0.15630  0.13390  0.58850  Biso   1.000  C
  Cu17     1.0000 0.53307  0.16123  0.05427  Biso   1.000  Cu
  Cu18     1.0000 0.46693  0.16123  0.44573  Biso   1.000  Cu
  Cu19     1.0000 0.03307  0.66123  0.05427  Biso   1.000  Cu
  Cu20     1.0000 0.96693  0.66123  0.44573  Biso   1.000  Cu
  Cu21     1.0000 0.46693  0.83877  0.94573  Biso   1.000  Cu
  Cu22     1.0000 0.53307  0.83877  0.55427  Biso   1.000  Cu
  Cu23     1.0000 0.96693  0.33877  0.94573  Biso   1.000  Cu
  Cu24     1.0000 0.03307  0.33877  0.55427  Biso   1.000  Cu
  C65      1.0000 0.44120  0.26540  0.04870  Biso   1.000  C
  C66      1.0000 0.55880  0.26540  0.45130  Biso   1.000  C
  C67      1.0000 0.94120  0.76540  0.04870  Biso   1.000  C
  C68      1.0000 0.05880  0.76540  0.45130  Biso   1.000  C
  C69      1.0000 0.55880  0.73460  0.95130  Biso   1.000  C
  C70      1.0000 0.44120  0.73460  0.54870  Biso   1.000  C
  C71      1.0000 0.05880  0.23460  0.95130  Biso   1.000  C
  C72      1.0000 0.94120  0.23460  0.54870  Biso   1.000  C
  N41      1.0000 0.46250  0.21660  0.02250  Biso   1.000  N
  N42      1.0000 0.53750  0.21660  0.47750  Biso   1.000  N
  N43      1.0000 0.96250  0.71660  0.02250  Biso   1.000  N
  N44      1.0000 0.03750  0.71660  0.47750  Biso   1.000  N
  N45      1.0000 0.53750  0.78340  0.97750  Biso   1.000  N
  N46      1.0000 0.46250  0.78340  0.52250  Biso   1.000  N
  N47      1.0000 0.03750  0.28340  0.97750  Biso   1.000  N
  N48      1.0000 0.96250  0.28340  0.52250  Biso   1.000  N
  N49      1.0000 0.63740  0.43670  0.05390  Biso   1.000  N
  N50      1.0000 0.36260  0.43670  0.44610  Biso   1.000  N
  N51      1.0000 0.13740  0.93670  0.05390  Biso   1.000  N
  N52      1.0000 0.86260  0.93670  0.44610  Biso   1.000  N
  N53      1.0000 0.36260  0.56330  0.94610  Biso   1.000  N
  N54      1.0000 0.63740  0.56330  0.55390  Biso   1.000  N
  N55      1.0000 0.86260  0.06330  0.94610  Biso   1.000  N
  N56      1.0000 0.13740  0.06330  0.55390  Biso   1.000  N
  C73      1.0000 0.59080  0.42100  0.01680  Biso   1.000  C
  C74      1.0000 0.40920  0.42100  0.48320  Biso   1.000  C
  C75      1.0000 0.09080  0.92100  0.01680  Biso   1.000  C
  C76      1.0000 0.90920  0.92100  0.48320  Biso   1.000  C
  C77      1.0000 0.40920  0.57900  0.98320  Biso   1.000  C
  C78      1.0000 0.59080  0.57900  0.51680  Biso   1.000  C
  C79      1.0000 0.90920  0.07900  0.98320  Biso   1.000  C
  C80      1.0000 0.09080  0.07900  0.51680  Biso   1.000  C
  C81      1.0000 0.56480  0.33880  0.01560  Biso   1.000  C
  C82      1.0000 0.43520  0.33880  0.48440  Biso   1.000  C
  C83      1.0000 0.06480  0.83880  0.01560  Biso   1.000  C
  C84      1.0000 0.93520  0.83880  0.48440  Biso   1.000  C
  C85      1.0000 0.43520  0.66120  0.98440  Biso   1.000  C
  C86      1.0000 0.56480  0.66120  0.51560  Biso   1.000  C
  C87      1.0000 0.93520  0.16120  0.98440  Biso   1.000  C
  C88      1.0000 0.06480  0.16120  0.51560  Biso   1.000  C
  C89      1.0000 0.44010  0.22150  0.97160  Biso   1.000  C
  C90      1.0000 0.55990  0.22150  0.52840  Biso   1.000  C
  C91      1.0000 0.94010  0.72150  0.97160  Biso   1.000  C
  C92      1.0000 0.05990  0.72150  0.52840  Biso   1.000  C
  C93      1.0000 0.55990  0.77850  0.02840  Biso   1.000  C
  C94      1.0000 0.44010  0.77850  0.47160  Biso   1.000  C
  C95      1.0000 0.05990  0.27850  0.02840  Biso   1.000  C
  C96      1.0000 0.94010  0.27850  0.47160  Biso   1.000  C
  C97      1.0000 0.39960  0.32680  0.02680  Biso   1.000  C
  C98      1.0000 0.60040  0.32680  0.47320  Biso   1.000  C
  C99      1.0000 0.89960  0.82680  0.02680  Biso   1.000  C
  C100     1.0000 0.10040  0.82680  0.47320  Biso   1.000  C
  C101     1.0000 0.60040  0.67320  0.97320  Biso   1.000  C
  C102     1.0000 0.39960  0.67320  0.52680  Biso   1.000  C
  C103     1.0000 0.10040  0.17320  0.97320  Biso   1.000  C
  C104     1.0000 0.89960  0.17320  0.52680  Biso   1.000  C
  C105     1.0000 0.29190  0.08860  0.92050  Biso   1.000  C
  C106     1.0000 0.70810  0.08860  0.57950  Biso   1.000  C
  C107     1.0000 0.79190  0.58860  0.92050  Biso   1.000  C
  C108     1.0000 0.20810  0.58860  0.57950  Biso   1.000  C
  C109     1.0000 0.70810  0.91140  0.07950  Biso   1.000  C
  C110     1.0000 0.29190  0.91140  0.42050  Biso   1.000  C
  C111     1.0000 0.20810  0.41140  0.07950  Biso   1.000  C
  C112     1.0000 0.79190  0.41140  0.42050  Biso   1.000  C
  C113     1.0000 0.14150  0.46230  0.79420  Biso   1.000  C
  C114     1.0000 0.85850  0.46230  0.70580  Biso   1.000  C
  C115     1.0000 0.64150  0.96230  0.79420  Biso   1.000  C
  C116     1.0000 0.35850  0.96230  0.70580  Biso   1.000  C
  C117     1.0000 0.85850  0.53770  0.20580  Biso   1.000  C
  C118     1.0000 0.14150  0.53770  0.29420  Biso   1.000  C
  C119     1.0000 0.35850  0.03770  0.20580  Biso   1.000  C
  C120     1.0000 0.64150  0.03770  0.29420  Biso   1.000  C
  N57      1.0000 0.26620  0.84390  0.00170  Biso   1.000  N
  N58      1.0000 0.73380  0.84390  0.49830  Biso   1.000  N
  N59      1.0000 0.76620  0.34390  0.00170  Biso   1.000  N
  N60      1.0000 0.23380  0.34390  0.49830  Biso   1.000  N
  N61      1.0000 0.73380  0.15610  0.99830  Biso   1.000  N
  N62      1.0000 0.26620  0.15610  0.50170  Biso   1.000  N
  N63      1.0000 0.23380  0.65610  0.99830  Biso   1.000  N
  N64      1.0000 0.76620  0.65610  0.50170  Biso   1.000  N
  N65      1.0000 0.36660  0.97590  0.04890  Biso   1.000  N
  N66      1.0000 0.63340  0.97590  0.45110  Biso   1.000  N
  N67      1.0000 0.86660  0.47590  0.04890  Biso   1.000  N
  N68      1.0000 0.13340  0.47590  0.45110  Biso   1.000  N
  N69      1.0000 0.63340  0.02410  0.95110  Biso   1.000  N
  N70      1.0000 0.36660  0.02410  0.54890  Biso   1.000  N
  N71      1.0000 0.13340  0.52410  0.95110  Biso   1.000  N
  N72      1.0000 0.86660  0.52410  0.54890  Biso   1.000  N
  N73      1.0000 0.47080  0.98360  0.10840  Biso   1.000  N
  N74      1.0000 0.52920  0.98360  0.39160  Biso   1.000  N
  N75      1.0000 0.97080  0.48360  0.10840  Biso   1.000  N
  N76      1.0000 0.02920  0.48360  0.39160  Biso   1.000  N
  N77      1.0000 0.52920  0.01640  0.89160  Biso   1.000  N
  N78      1.0000 0.47080  0.01640  0.60840  Biso   1.000  N
  N79      1.0000 0.02920  0.51640  0.89160  Biso   1.000  N
  N80      1.0000 0.97080  0.51640  0.60840  Biso   1.000  N
  C121     1.0000 0.43780  0.04690  0.11350  Biso   1.000  C
  C122     1.0000 0.56220  0.04690  0.38650  Biso   1.000  C
  C123     1.0000 0.93780  0.54690  0.11350  Biso   1.000  C
  C124     1.0000 0.06220  0.54690  0.38650  Biso   1.000  C
  C125     1.0000 0.56220  0.95310  0.88650  Biso   1.000  C
  C126     1.0000 0.43780  0.95310  0.61350  Biso   1.000  C
  C127     1.0000 0.06220  0.45310  0.88650  Biso   1.000  C
  C128     1.0000 0.93780  0.45310  0.61350  Biso   1.000  C
  C129     1.0000 0.45200  0.91370  0.07430  Biso   1.000  C
  C130     1.0000 0.54800  0.91370  0.42570  Biso   1.000  C
  C131     1.0000 0.95200  0.41370  0.07430  Biso   1.000  C
  C132     1.0000 0.04800  0.41370  0.42570  Biso   1.000  C
  C133     1.0000 0.54800  0.08630  0.92570  Biso   1.000  C
  C134     1.0000 0.45200  0.08630  0.57430  Biso   1.000  C
  C135     1.0000 0.04800  0.58630  0.92570  Biso   1.000  C
  C136     1.0000 0.95200  0.58630  0.57430  Biso   1.000  C
  C137     1.0000 0.39960  0.90950  0.04590  Biso   1.000  C
  C138     1.0000 0.60040  0.90950  0.45410  Biso   1.000  C
  C139     1.0000 0.89960  0.40950  0.04590  Biso   1.000  C
  C140     1.0000 0.10040  0.40950  0.45410  Biso   1.000  C
  C141     1.0000 0.60040  0.09050  0.95410  Biso   1.000  C
  C142     1.0000 0.39960  0.09050  0.54590  Biso   1.000  C
  C143     1.0000 0.10040  0.59050  0.95410  Biso   1.000  C
  C144     1.0000 0.89960  0.59050  0.54590  Biso   1.000  C
  C145     1.0000 0.38700  0.04330  0.08270  Biso   1.000  C
  C146     1.0000 0.61300  0.04330  0.41730  Biso   1.000  C
  C147     1.0000 0.88700  0.54330  0.08270  Biso   1.000  C
  C148     1.0000 0.11300  0.54330  0.41730  Biso   1.000  C
  C149     1.0000 0.61300  0.95670  0.91730  Biso   1.000  C
  C150     1.0000 0.38700  0.95670  0.58270  Biso   1.000  C
  C151     1.0000 0.11300  0.45670  0.91730  Biso   1.000  C
  C152     1.0000 0.88700  0.45670  0.58270  Biso   1.000  C
  N81      1.0000 0.10170  0.47100  0.70370  Biso   1.000  N
  N82      1.0000 0.89830  0.47100  0.79630  Biso   1.000  N
  N83      1.0000 0.60170  0.97100  0.70370  Biso   1.000  N
  N84      1.0000 0.39830  0.97100  0.79630  Biso   1.000  N
  N85      1.0000 0.89830  0.52900  0.29630  Biso   1.000  N
  N86      1.0000 0.10170  0.52900  0.20370  Biso   1.000  N
  N87      1.0000 0.39830  0.02900  0.29630  Biso   1.000  N
  N88      1.0000 0.60170  0.02900  0.20370  Biso   1.000  N
  C153     1.0000 0.14180  0.41990  0.70060  Biso   1.000  C
  C154     1.0000 0.85820  0.41990  0.79940  Biso   1.000  C
  C155     1.0000 0.64180  0.91990  0.70060  Biso   1.000  C
  C156     1.0000 0.35820  0.91990  0.79940  Biso   1.000  C
  C157     1.0000 0.85820  0.58010  0.29940  Biso   1.000  C
  C158     1.0000 0.14180  0.58010  0.20060  Biso   1.000  C
  C159     1.0000 0.35820  0.08010  0.29940  Biso   1.000  C
  C160     1.0000 0.64180  0.08010  0.20060  Biso   1.000  C
  Cu25     1.0000 0.54551  0.99265  0.14186  Biso   1.000  Cu
  Cu26     1.0000 0.45449  0.99265  0.35814  Biso   1.000  Cu
  Cu27     1.0000 0.04551  0.49265  0.14186  Biso   1.000  Cu
  Cu28     1.0000 0.95449  0.49265  0.35814  Biso   1.000  Cu
  Cu29     1.0000 0.45449  0.00735  0.85814  Biso   1.000  Cu
  Cu30     1.0000 0.54551  0.00735  0.64186  Biso   1.000  Cu
  Cu31     1.0000 0.95449  0.50735  0.85814  Biso   1.000  Cu
  Cu32     1.0000 0.04551  0.50735  0.64186  Biso   1.000  Cu
  O241     1.0000 0.44470  0.15820  0.84340  Biso   1.000  O
  O242     1.0000 0.55530  0.15820  0.65660  Biso   1.000  O
  O243     1.0000 0.94470  0.65820  0.84340  Biso   1.000  O
  O244     1.0000 0.05530  0.65820  0.65660  Biso   1.000  O
  O245     1.0000 0.55530  0.84180  0.15660  Biso   1.000  O
  O246     1.0000 0.44470  0.84180  0.34340  Biso   1.000  O
  O247     1.0000 0.05530  0.34180  0.15660  Biso   1.000  O
  O248     1.0000 0.94470  0.34180  0.34340  Biso   1.000  O
  C161     1.0000 0.27990  0.78920  0.04280  Biso   1.000  C
  C162     1.0000 0.72010  0.78920  0.45720  Biso   1.000  C
  C163     1.0000 0.77990  0.28920  0.04280  Biso   1.000  C
  C164     1.0000 0.22010  0.28920  0.45720  Biso   1.000  C
  C165     1.0000 0.72010  0.21080  0.95720  Biso   1.000  C
  C166     1.0000 0.27990  0.21080  0.54280  Biso   1.000  C
  C167     1.0000 0.22010  0.71080  0.95720  Biso   1.000  C
  C168     1.0000 0.77990  0.71080  0.54280  Biso   1.000  C
  C169     1.0000 0.23580  0.80520  0.95810  Biso   1.000  C
  C170     1.0000 0.76420  0.80520  0.54190  Biso   1.000  C
  C171     1.0000 0.73580  0.30520  0.95810  Biso   1.000  C
  C172     1.0000 0.26420  0.30520  0.54190  Biso   1.000  C
  C173     1.0000 0.76420  0.19480  0.04190  Biso   1.000  C
  C174     1.0000 0.23580  0.19480  0.45810  Biso   1.000  C
  C175     1.0000 0.26420  0.69480  0.04190  Biso   1.000  C
  C176     1.0000 0.73580  0.69480  0.45810  Biso   1.000  C
  Cu33     1.0000 0.32853  0.43710  0.94557  Biso   1.000  Cu
  Cu34     1.0000 0.67147  0.43710  0.55443  Biso   1.000  Cu
  Cu35     1.0000 0.82853  0.93710  0.94557  Biso   1.000  Cu
  Cu36     1.0000 0.17147  0.93710  0.55443  Biso   1.000  Cu
  Cu37     1.0000 0.67147  0.56290  0.05443  Biso   1.000  Cu
  Cu38     1.0000 0.32853  0.56290  0.44557  Biso   1.000  Cu
  Cu39     1.0000 0.17147  0.06290  0.05443  Biso   1.000  Cu
  Cu40     1.0000 0.82853  0.06290  0.44557  Biso   1.000  Cu
  As9      1.0000 0.66932  0.24880  0.75156  Biso   1.000  As
  As10     1.0000 0.33068  0.24880  0.74844  Biso   1.000  As
  As11     1.0000 0.16932  0.74880  0.75156  Biso   1.000  As
  As12     1.0000 0.83068  0.74880  0.74844  Biso   1.000  As
  As13     1.0000 0.33068  0.75120  0.24844  Biso   1.000  As
  As14     1.0000 0.66932  0.75120  0.25156  Biso   1.000  As
  As15     1.0000 0.83068  0.25120  0.24844  Biso   1.000  As
  As16     1.0000 0.16932  0.25120  0.25156  Biso   1.000  As
  Cl1      1.0000 0.24284  0.46520  0.92322  Biso   1.000  Cl
  Cl2      1.0000 0.75716  0.46520  0.57678  Biso   1.000  Cl
  Cl3      1.0000 0.74284  0.96520  0.92322  Biso   1.000  Cl
  Cl4      1.0000 0.25716  0.96520  0.57678  Biso   1.000  Cl
  Cl5      1.0000 0.75716  0.53480  0.07678  Biso   1.000  Cl
  Cl6      1.0000 0.24284  0.53480  0.42322  Biso   1.000  Cl
  Cl7      1.0000 0.25716  0.03480  0.07678  Biso   1.000  Cl
  Cl8      1.0000 0.74284  0.03480  0.42322  Biso   1.000  Cl
  Cl9      1.0000 0.57432  0.02490  0.07033  Biso   1.000  Cl
  Cl10     1.0000 0.42568  0.02490  0.42967  Biso   1.000  Cl
  Cl11     1.0000 0.07432  0.52490  0.07033  Biso   1.000  Cl
  Cl12     1.0000 0.92568  0.52490  0.42967  Biso   1.000  Cl
  Cl13     1.0000 0.42568  0.97510  0.92967  Biso   1.000  Cl
  Cl14     1.0000 0.57432  0.97510  0.57033  Biso   1.000  Cl
  Cl15     1.0000 0.92568  0.47510  0.92967  Biso   1.000  Cl
  Cl16     1.0000 0.07432  0.47510  0.57033  Biso   1.000  Cl
  O249     1.0000 0.50000  0.90440  0.75000  Biso   1.000  O
  O250     1.0000 0.00000  0.40440  0.75000  Biso   1.000  O
  O251     1.0000 0.50000  0.09560  0.25000  Biso   1.000  O
  O252     1.0000 0.00000  0.59560  0.25000  Biso   1.000  O
