data_image0
_cell_length_a       46.945
_cell_length_b       46.945
_cell_length_c       46.945
_cell_angle_alpha    90
_cell_angle_beta     90
_cell_angle_gamma    90

_symmetry_space_group_name_H-M    "P 1"
_symmetry_int_tables_number       1

loop_
  _symmetry_equiv_pos_as_xyz
  'x, y, z'

loop_
  _atom_site_label
  _atom_site_occupancy
  _atom_site_fract_x
  _atom_site_fract_y
  _atom_site_fract_z
  _atom_site_thermal_displace_type
  _atom_site_B_iso_or_equiv
  _atom_site_type_symbol
  Cu1      1.0000 0.34066  0.15934  0.00000  Biso   1.000  Cu
  Cu2      1.0000 0.84066  0.34066  0.00000  Biso   1.000  Cu
  Cu3      1.0000 0.65934  0.84066  0.00000  Biso   1.000  Cu
  Cu4      1.0000 0.15934  0.65934  0.00000  Biso   1.000  Cu
  Cu5      1.0000 0.34066  0.00000  0.15934  Biso   1.000  Cu
  Cu6      1.0000 0.34066  0.84066  0.00000  Biso   1.000  Cu
  Cu7      1.0000 0.34066  0.00000  0.84066  Biso   1.000  Cu
  Cu8      1.0000 0.00000  0.15934  0.65934  Biso   1.000  Cu
  Cu9      1.0000 0.65934  0.15934  0.00000  Biso   1.000  Cu
  Cu10     1.0000 0.00000  0.15934  0.34066  Biso   1.000  Cu
  Cu11     1.0000 0.00000  0.34066  0.15934  Biso   1.000  Cu
  Cu12     1.0000 0.15934  0.00000  0.34066  Biso   1.000  Cu
  Cu13     1.0000 0.84066  0.00000  0.34066  Biso   1.000  Cu
  Cu14     1.0000 0.00000  0.65934  0.84066  Biso   1.000  Cu
  Cu15     1.0000 0.84066  0.00000  0.65934  Biso   1.000  Cu
  Cu16     1.0000 0.00000  0.65934  0.15934  Biso   1.000  Cu
  Cu17     1.0000 0.00000  0.34066  0.84066  Biso   1.000  Cu
  Cu18     1.0000 0.15934  0.00000  0.65934  Biso   1.000  Cu
  Cu19     1.0000 0.15934  0.34066  0.00000  Biso   1.000  Cu
  Cu20     1.0000 0.84066  0.65934  0.00000  Biso   1.000  Cu
  Cu21     1.0000 0.65934  0.00000  0.15934  Biso   1.000  Cu
  Cu22     1.0000 0.65934  0.00000  0.84066  Biso   1.000  Cu
  Cu23     1.0000 0.00000  0.84066  0.34066  Biso   1.000  Cu
  Cu24     1.0000 0.00000  0.84066  0.65934  Biso   1.000  Cu
  Cu25     1.0000 0.34066  0.65934  0.50000  Biso   1.000  Cu
  Cu26     1.0000 0.84066  0.84066  0.50000  Biso   1.000  Cu
  Cu27     1.0000 0.65934  0.34066  0.50000  Biso   1.000  Cu
  Cu28     1.0000 0.15934  0.15934  0.50000  Biso   1.000  Cu
  Cu29     1.0000 0.34066  0.50000  0.65934  Biso   1.000  Cu
  Cu30     1.0000 0.34066  0.34066  0.50000  Biso   1.000  Cu
  Cu31     1.0000 0.34066  0.50000  0.34066  Biso   1.000  Cu
  Cu32     1.0000 0.65934  0.65934  0.50000  Biso   1.000  Cu
  Cu33     1.0000 0.15934  0.50000  0.84066  Biso   1.000  Cu
  Cu34     1.0000 0.84066  0.50000  0.84066  Biso   1.000  Cu
  Cu35     1.0000 0.84066  0.50000  0.15934  Biso   1.000  Cu
  Cu36     1.0000 0.15934  0.50000  0.15934  Biso   1.000  Cu
  Cu37     1.0000 0.15934  0.84066  0.50000  Biso   1.000  Cu
  Cu38     1.0000 0.84066  0.15934  0.50000  Biso   1.000  Cu
  Cu39     1.0000 0.65934  0.50000  0.65934  Biso   1.000  Cu
  Cu40     1.0000 0.65934  0.50000  0.34066  Biso   1.000  Cu
  Cu41     1.0000 0.50000  0.15934  0.15934  Biso   1.000  Cu
  Cu42     1.0000 0.50000  0.15934  0.84066  Biso   1.000  Cu
  Cu43     1.0000 0.50000  0.34066  0.65934  Biso   1.000  Cu
  Cu44     1.0000 0.50000  0.65934  0.34066  Biso   1.000  Cu
  Cu45     1.0000 0.50000  0.65934  0.65934  Biso   1.000  Cu
  Cu46     1.0000 0.50000  0.34066  0.34066  Biso   1.000  Cu
  Cu47     1.0000 0.50000  0.84066  0.84066  Biso   1.000  Cu
  Cu48     1.0000 0.50000  0.84066  0.15934  Biso   1.000  Cu
  Cu49     1.0000 0.38077  0.11923  0.00000  Biso   1.000  Cu
  Cu50     1.0000 0.88077  0.38077  0.00000  Biso   1.000  Cu
  Cu51     1.0000 0.61923  0.88077  0.00000  Biso   1.000  Cu
  Cu52     1.0000 0.11923  0.61923  0.00000  Biso   1.000  Cu
  Cu53     1.0000 0.38077  0.00000  0.11923  Biso   1.000  Cu
  Cu54     1.0000 0.38077  0.88077  0.00000  Biso   1.000  Cu
  Cu55     1.0000 0.38077  0.00000  0.88077  Biso   1.000  Cu
  Cu56     1.0000 0.00000  0.11923  0.61923  Biso   1.000  Cu
  Cu57     1.0000 0.61923  0.11923  0.00000  Biso   1.000  Cu
  Cu58     1.0000 0.00000  0.11923  0.38077  Biso   1.000  Cu
  Cu59     1.0000 0.00000  0.38077  0.11923  Biso   1.000  Cu
  Cu60     1.0000 0.11923  0.00000  0.38077  Biso   1.000  Cu
  Cu61     1.0000 0.88077  0.00000  0.38077  Biso   1.000  Cu
  Cu62     1.0000 0.00000  0.61923  0.88077  Biso   1.000  Cu
  Cu63     1.0000 0.88077  0.00000  0.61923  Biso   1.000  Cu
  Cu64     1.0000 0.00000  0.61923  0.11923  Biso   1.000  Cu
  Cu65     1.0000 0.00000  0.38077  0.88077  Biso   1.000  Cu
  Cu66     1.0000 0.11923  0.00000  0.61923  Biso   1.000  Cu
  Cu67     1.0000 0.11923  0.38077  0.00000  Biso   1.000  Cu
  Cu68     1.0000 0.88077  0.61923  0.00000  Biso   1.000  Cu
  Cu69     1.0000 0.61923  0.00000  0.11923  Biso   1.000  Cu
  Cu70     1.0000 0.61923  0.00000  0.88077  Biso   1.000  Cu
  Cu71     1.0000 0.00000  0.88077  0.38077  Biso   1.000  Cu
  Cu72     1.0000 0.00000  0.88077  0.61923  Biso   1.000  Cu
  Cu73     1.0000 0.38077  0.61923  0.50000  Biso   1.000  Cu
  Cu74     1.0000 0.88077  0.88077  0.50000  Biso   1.000  Cu
  Cu75     1.0000 0.61923  0.38077  0.50000  Biso   1.000  Cu
  Cu76     1.0000 0.11923  0.11923  0.50000  Biso   1.000  Cu
  Cu77     1.0000 0.38077  0.50000  0.61923  Biso   1.000  Cu
  Cu78     1.0000 0.38077  0.38077  0.50000  Biso   1.000  Cu
  Cu79     1.0000 0.38077  0.50000  0.38077  Biso   1.000  Cu
  Cu80     1.0000 0.61923  0.61923  0.50000  Biso   1.000  Cu
  Cu81     1.0000 0.11923  0.50000  0.88077  Biso   1.000  Cu
  Cu82     1.0000 0.88077  0.50000  0.88077  Biso   1.000  Cu
  Cu83     1.0000 0.88077  0.50000  0.11923  Biso   1.000  Cu
  Cu84     1.0000 0.11923  0.50000  0.11923  Biso   1.000  Cu
  Cu85     1.0000 0.11923  0.88077  0.50000  Biso   1.000  Cu
  Cu86     1.0000 0.88077  0.11923  0.50000  Biso   1.000  Cu
  Cu87     1.0000 0.61923  0.50000  0.61923  Biso   1.000  Cu
  Cu88     1.0000 0.61923  0.50000  0.38077  Biso   1.000  Cu
  Cu89     1.0000 0.50000  0.11923  0.11923  Biso   1.000  Cu
  Cu90     1.0000 0.50000  0.11923  0.88077  Biso   1.000  Cu
  Cu91     1.0000 0.50000  0.38077  0.61923  Biso   1.000  Cu
  Cu92     1.0000 0.50000  0.61923  0.38077  Biso   1.000  Cu
  Cu93     1.0000 0.50000  0.61923  0.61923  Biso   1.000  Cu
  Cu94     1.0000 0.50000  0.38077  0.38077  Biso   1.000  Cu
  Cu95     1.0000 0.50000  0.88077  0.88077  Biso   1.000  Cu
  Cu96     1.0000 0.50000  0.88077  0.11923  Biso   1.000  Cu
  O1       1.0000 0.32375  0.13590  0.02895  Biso   1.000  O
  O2       1.0000 0.86410  0.32375  0.02895  Biso   1.000  O
  O3       1.0000 0.67625  0.86410  0.02895  Biso   1.000  O
  O4       1.0000 0.13590  0.67625  0.02895  Biso   1.000  O
  O5       1.0000 0.32375  0.97105  0.13590  Biso   1.000  O
  O6       1.0000 0.32375  0.86410  0.97105  Biso   1.000  O
  O7       1.0000 0.32375  0.02895  0.86410  Biso   1.000  O
  O8       1.0000 0.02895  0.13590  0.67625  Biso   1.000  O
  O9       1.0000 0.67625  0.13590  0.97105  Biso   1.000  O
  O10      1.0000 0.97105  0.13590  0.32375  Biso   1.000  O
  O11      1.0000 0.02895  0.32375  0.13590  Biso   1.000  O
  O12      1.0000 0.13590  0.02895  0.32375  Biso   1.000  O
  O13      1.0000 0.86410  0.97105  0.32375  Biso   1.000  O
  O14      1.0000 0.02895  0.67625  0.86410  Biso   1.000  O
  O15      1.0000 0.86410  0.02895  0.67625  Biso   1.000  O
  O16      1.0000 0.97105  0.67625  0.13590  Biso   1.000  O
  O17      1.0000 0.97105  0.32375  0.86410  Biso   1.000  O
  O18      1.0000 0.13590  0.97105  0.67625  Biso   1.000  O
  O19      1.0000 0.13590  0.32375  0.97105  Biso   1.000  O
  O20      1.0000 0.86410  0.67625  0.97105  Biso   1.000  O
  O21      1.0000 0.67625  0.02895  0.13590  Biso   1.000  O
  O22      1.0000 0.67625  0.97105  0.86410  Biso   1.000  O
  O23      1.0000 0.02895  0.86410  0.32375  Biso   1.000  O
  O24      1.0000 0.97105  0.86410  0.67625  Biso   1.000  O
  O25      1.0000 0.32375  0.63590  0.52895  Biso   1.000  O
  O26      1.0000 0.86410  0.82375  0.52895  Biso   1.000  O
  O27      1.0000 0.67625  0.36410  0.52895  Biso   1.000  O
  O28      1.0000 0.13590  0.17625  0.52895  Biso   1.000  O
  O29      1.0000 0.32375  0.47105  0.63590  Biso   1.000  O
  O30      1.0000 0.32375  0.36410  0.47105  Biso   1.000  O
  O31      1.0000 0.32375  0.52895  0.36410  Biso   1.000  O
  O32      1.0000 0.02895  0.63590  0.17625  Biso   1.000  O
  O33      1.0000 0.67625  0.63590  0.47105  Biso   1.000  O
  O34      1.0000 0.97105  0.63590  0.82375  Biso   1.000  O
  O35      1.0000 0.02895  0.82375  0.63590  Biso   1.000  O
  O36      1.0000 0.13590  0.52895  0.82375  Biso   1.000  O
  O37      1.0000 0.86410  0.47105  0.82375  Biso   1.000  O
  O38      1.0000 0.02895  0.17625  0.36410  Biso   1.000  O
  O39      1.0000 0.86410  0.52895  0.17625  Biso   1.000  O
  O40      1.0000 0.97105  0.17625  0.63590  Biso   1.000  O
  O41      1.0000 0.97105  0.82375  0.36410  Biso   1.000  O
  O42      1.0000 0.13590  0.47105  0.17625  Biso   1.000  O
  O43      1.0000 0.13590  0.82375  0.47105  Biso   1.000  O
  O44      1.0000 0.86410  0.17625  0.47105  Biso   1.000  O
  O45      1.0000 0.67625  0.52895  0.63590  Biso   1.000  O
  O46      1.0000 0.67625  0.47105  0.36410  Biso   1.000  O
  O47      1.0000 0.02895  0.36410  0.82375  Biso   1.000  O
  O48      1.0000 0.97105  0.36410  0.17625  Biso   1.000  O
  O49      1.0000 0.82375  0.13590  0.52895  Biso   1.000  O
  O50      1.0000 0.36410  0.32375  0.52895  Biso   1.000  O
  O51      1.0000 0.17625  0.86410  0.52895  Biso   1.000  O
  O52      1.0000 0.63590  0.67625  0.52895  Biso   1.000  O
  O53      1.0000 0.82375  0.97105  0.63590  Biso   1.000  O
  O54      1.0000 0.82375  0.86410  0.47105  Biso   1.000  O
  O55      1.0000 0.82375  0.02895  0.36410  Biso   1.000  O
  O56      1.0000 0.52895  0.13590  0.17625  Biso   1.000  O
  O57      1.0000 0.17625  0.13590  0.47105  Biso   1.000  O
  O58      1.0000 0.47105  0.13590  0.82375  Biso   1.000  O
  O59      1.0000 0.52895  0.32375  0.63590  Biso   1.000  O
  O60      1.0000 0.63590  0.02895  0.82375  Biso   1.000  O
  O61      1.0000 0.36410  0.97105  0.82375  Biso   1.000  O
  O62      1.0000 0.52895  0.67625  0.36410  Biso   1.000  O
  O63      1.0000 0.36410  0.02895  0.17625  Biso   1.000  O
  O64      1.0000 0.47105  0.67625  0.63590  Biso   1.000  O
  O65      1.0000 0.47105  0.32375  0.36410  Biso   1.000  O
  O66      1.0000 0.63590  0.97105  0.17625  Biso   1.000  O
  O67      1.0000 0.63590  0.32375  0.47105  Biso   1.000  O
  O68      1.0000 0.36410  0.67625  0.47105  Biso   1.000  O
  O69      1.0000 0.17625  0.02895  0.63590  Biso   1.000  O
  O70      1.0000 0.17625  0.97105  0.36410  Biso   1.000  O
  O71      1.0000 0.52895  0.86410  0.82375  Biso   1.000  O
  O72      1.0000 0.47105  0.86410  0.17625  Biso   1.000  O
  O73      1.0000 0.82375  0.63590  0.02895  Biso   1.000  O
  O74      1.0000 0.36410  0.82375  0.02895  Biso   1.000  O
  O75      1.0000 0.17625  0.36410  0.02895  Biso   1.000  O
  O76      1.0000 0.63590  0.17625  0.02895  Biso   1.000  O
  O77      1.0000 0.82375  0.47105  0.13590  Biso   1.000  O
  O78      1.0000 0.82375  0.36410  0.97105  Biso   1.000  O
  O79      1.0000 0.82375  0.52895  0.86410  Biso   1.000  O
  O80      1.0000 0.52895  0.63590  0.67625  Biso   1.000  O
  O81      1.0000 0.17625  0.63590  0.97105  Biso   1.000  O
  O82      1.0000 0.47105  0.63590  0.32375  Biso   1.000  O
  O83      1.0000 0.52895  0.82375  0.13590  Biso   1.000  O
  O84      1.0000 0.63590  0.52895  0.32375  Biso   1.000  O
  O85      1.0000 0.36410  0.47105  0.32375  Biso   1.000  O
  O86      1.0000 0.52895  0.17625  0.86410  Biso   1.000  O
  O87      1.0000 0.36410  0.52895  0.67625  Biso   1.000  O
  O88      1.0000 0.47105  0.17625  0.13590  Biso   1.000  O
  O89      1.0000 0.47105  0.82375  0.86410  Biso   1.000  O
  O90      1.0000 0.63590  0.47105  0.67625  Biso   1.000  O
  O91      1.0000 0.63590  0.82375  0.97105  Biso   1.000  O
  O92      1.0000 0.36410  0.17625  0.97105  Biso   1.000  O
  O93      1.0000 0.17625  0.52895  0.13590  Biso   1.000  O
  O94      1.0000 0.17625  0.47105  0.86410  Biso   1.000  O
  O95      1.0000 0.52895  0.36410  0.32375  Biso   1.000  O
  O96      1.0000 0.47105  0.36410  0.67625  Biso   1.000  O
  O97      1.0000 0.67625  0.86410  0.97105  Biso   1.000  O
  O98      1.0000 0.13590  0.67625  0.97105  Biso   1.000  O
  O99      1.0000 0.32375  0.13590  0.97105  Biso   1.000  O
  O100     1.0000 0.86410  0.32375  0.97105  Biso   1.000  O
  O101     1.0000 0.67625  0.02895  0.86410  Biso   1.000  O
  O102     1.0000 0.67625  0.13590  0.02895  Biso   1.000  O
  O103     1.0000 0.67625  0.97105  0.13590  Biso   1.000  O
  O104     1.0000 0.97105  0.86410  0.32375  Biso   1.000  O
  O105     1.0000 0.32375  0.86410  0.02895  Biso   1.000  O
  O106     1.0000 0.02895  0.86410  0.67625  Biso   1.000  O
  O107     1.0000 0.97105  0.67625  0.86410  Biso   1.000  O
  O108     1.0000 0.86410  0.97105  0.67625  Biso   1.000  O
  O109     1.0000 0.13590  0.02895  0.67625  Biso   1.000  O
  O110     1.0000 0.97105  0.32375  0.13590  Biso   1.000  O
  O111     1.0000 0.13590  0.97105  0.32375  Biso   1.000  O
  O112     1.0000 0.02895  0.32375  0.86410  Biso   1.000  O
  O113     1.0000 0.02895  0.67625  0.13590  Biso   1.000  O
  O114     1.0000 0.86410  0.02895  0.32375  Biso   1.000  O
  O115     1.0000 0.86410  0.67625  0.02895  Biso   1.000  O
  O116     1.0000 0.13590  0.32375  0.02895  Biso   1.000  O
  O117     1.0000 0.32375  0.97105  0.86410  Biso   1.000  O
  O118     1.0000 0.32375  0.02895  0.13590  Biso   1.000  O
  O119     1.0000 0.97105  0.13590  0.67625  Biso   1.000  O
  O120     1.0000 0.02895  0.13590  0.32375  Biso   1.000  O
  O121     1.0000 0.67625  0.36410  0.47105  Biso   1.000  O
  O122     1.0000 0.13590  0.17625  0.47105  Biso   1.000  O
  O123     1.0000 0.32375  0.63590  0.47105  Biso   1.000  O
  O124     1.0000 0.86410  0.82375  0.47105  Biso   1.000  O
  O125     1.0000 0.67625  0.52895  0.36410  Biso   1.000  O
  O126     1.0000 0.67625  0.63590  0.52895  Biso   1.000  O
  O127     1.0000 0.67625  0.47105  0.63590  Biso   1.000  O
  O128     1.0000 0.97105  0.36410  0.82375  Biso   1.000  O
  O129     1.0000 0.32375  0.36410  0.52895  Biso   1.000  O
  O130     1.0000 0.02895  0.36410  0.17625  Biso   1.000  O
  O131     1.0000 0.97105  0.17625  0.36410  Biso   1.000  O
  O132     1.0000 0.86410  0.47105  0.17625  Biso   1.000  O
  O133     1.0000 0.13590  0.52895  0.17625  Biso   1.000  O
  O134     1.0000 0.97105  0.82375  0.63590  Biso   1.000  O
  O135     1.0000 0.13590  0.47105  0.82375  Biso   1.000  O
  O136     1.0000 0.02895  0.82375  0.36410  Biso   1.000  O
  O137     1.0000 0.02895  0.17625  0.63590  Biso   1.000  O
  O138     1.0000 0.86410  0.52895  0.82375  Biso   1.000  O
  O139     1.0000 0.86410  0.17625  0.52895  Biso   1.000  O
  O140     1.0000 0.13590  0.82375  0.52895  Biso   1.000  O
  O141     1.0000 0.32375  0.47105  0.36410  Biso   1.000  O
  O142     1.0000 0.32375  0.52895  0.63590  Biso   1.000  O
  O143     1.0000 0.97105  0.63590  0.17625  Biso   1.000  O
  O144     1.0000 0.02895  0.63590  0.82375  Biso   1.000  O
  O145     1.0000 0.17625  0.86410  0.47105  Biso   1.000  O
  O146     1.0000 0.63590  0.67625  0.47105  Biso   1.000  O
  O147     1.0000 0.82375  0.13590  0.47105  Biso   1.000  O
  O148     1.0000 0.36410  0.32375  0.47105  Biso   1.000  O
  O149     1.0000 0.17625  0.02895  0.36410  Biso   1.000  O
  O150     1.0000 0.17625  0.13590  0.52895  Biso   1.000  O
  O151     1.0000 0.17625  0.97105  0.63590  Biso   1.000  O
  O152     1.0000 0.47105  0.86410  0.82375  Biso   1.000  O
  O153     1.0000 0.82375  0.86410  0.52895  Biso   1.000  O
  O154     1.0000 0.52895  0.86410  0.17625  Biso   1.000  O
  O155     1.0000 0.47105  0.67625  0.36410  Biso   1.000  O
  O156     1.0000 0.36410  0.97105  0.17625  Biso   1.000  O
  O157     1.0000 0.63590  0.02895  0.17625  Biso   1.000  O
  O158     1.0000 0.47105  0.32375  0.63590  Biso   1.000  O
  O159     1.0000 0.63590  0.97105  0.82375  Biso   1.000  O
  O160     1.0000 0.52895  0.32375  0.36410  Biso   1.000  O
  O161     1.0000 0.52895  0.67625  0.63590  Biso   1.000  O
  O162     1.0000 0.36410  0.02895  0.82375  Biso   1.000  O
  O163     1.0000 0.36410  0.67625  0.52895  Biso   1.000  O
  O164     1.0000 0.63590  0.32375  0.52895  Biso   1.000  O
  O165     1.0000 0.82375  0.97105  0.36410  Biso   1.000  O
  O166     1.0000 0.82375  0.02895  0.63590  Biso   1.000  O
  O167     1.0000 0.47105  0.13590  0.17625  Biso   1.000  O
  O168     1.0000 0.52895  0.13590  0.82375  Biso   1.000  O
  O169     1.0000 0.17625  0.36410  0.97105  Biso   1.000  O
  O170     1.0000 0.63590  0.17625  0.97105  Biso   1.000  O
  O171     1.0000 0.82375  0.63590  0.97105  Biso   1.000  O
  O172     1.0000 0.36410  0.82375  0.97105  Biso   1.000  O
  O173     1.0000 0.17625  0.52895  0.86410  Biso   1.000  O
  O174     1.0000 0.17625  0.63590  0.02895  Biso   1.000  O
  O175     1.0000 0.17625  0.47105  0.13590  Biso   1.000  O
  O176     1.0000 0.47105  0.36410  0.32375  Biso   1.000  O
  O177     1.0000 0.82375  0.36410  0.02895  Biso   1.000  O
  O178     1.0000 0.52895  0.36410  0.67625  Biso   1.000  O
  O179     1.0000 0.47105  0.17625  0.86410  Biso   1.000  O
  O180     1.0000 0.36410  0.47105  0.67625  Biso   1.000  O
  O181     1.0000 0.63590  0.52895  0.67625  Biso   1.000  O
  O182     1.0000 0.47105  0.82375  0.13590  Biso   1.000  O
  O183     1.0000 0.63590  0.47105  0.32375  Biso   1.000  O
  O184     1.0000 0.52895  0.82375  0.86410  Biso   1.000  O
  O185     1.0000 0.52895  0.17625  0.13590  Biso   1.000  O
  O186     1.0000 0.36410  0.52895  0.32375  Biso   1.000  O
  O187     1.0000 0.36410  0.17625  0.02895  Biso   1.000  O
  O188     1.0000 0.63590  0.82375  0.02895  Biso   1.000  O
  O189     1.0000 0.82375  0.47105  0.86410  Biso   1.000  O
  O190     1.0000 0.82375  0.52895  0.13590  Biso   1.000  O
  O191     1.0000 0.47105  0.63590  0.67625  Biso   1.000  O
  O192     1.0000 0.52895  0.63590  0.32375  Biso   1.000  O
  O193     1.0000 0.35783  0.10204  0.02900  Biso   1.000  O
  O194     1.0000 0.89796  0.35783  0.02900  Biso   1.000  O
  O195     1.0000 0.64217  0.89796  0.02900  Biso   1.000  O
  O196     1.0000 0.10204  0.64217  0.02900  Biso   1.000  O
  O197     1.0000 0.35783  0.97100  0.10204  Biso   1.000  O
  O198     1.0000 0.35783  0.89796  0.97100  Biso   1.000  O
  O199     1.0000 0.35783  0.02900  0.89796  Biso   1.000  O
  O200     1.0000 0.02900  0.10204  0.64217  Biso   1.000  O
  O201     1.0000 0.64217  0.10204  0.97100  Biso   1.000  O
  O202     1.0000 0.97100  0.10204  0.35783  Biso   1.000  O
  O203     1.0000 0.02900  0.35783  0.10204  Biso   1.000  O
  O204     1.0000 0.10204  0.02900  0.35783  Biso   1.000  O
  O205     1.0000 0.89796  0.97100  0.35783  Biso   1.000  O
  O206     1.0000 0.02900  0.64217  0.89796  Biso   1.000  O
  O207     1.0000 0.89796  0.02900  0.64217  Biso   1.000  O
  O208     1.0000 0.97100  0.64217  0.10204  Biso   1.000  O
  O209     1.0000 0.97100  0.35783  0.89796  Biso   1.000  O
  O210     1.0000 0.10204  0.97100  0.64217  Biso   1.000  O
  O211     1.0000 0.10204  0.35783  0.97100  Biso   1.000  O
  O212     1.0000 0.89796  0.64217  0.97100  Biso   1.000  O
  O213     1.0000 0.64217  0.02900  0.10204  Biso   1.000  O
  O214     1.0000 0.64217  0.97100  0.89796  Biso   1.000  O
  O215     1.0000 0.02900  0.89796  0.35783  Biso   1.000  O
  O216     1.0000 0.97100  0.89796  0.64217  Biso   1.000  O
  O217     1.0000 0.35783  0.60204  0.52900  Biso   1.000  O
  O218     1.0000 0.89796  0.85783  0.52900  Biso   1.000  O
  O219     1.0000 0.64217  0.39796  0.52900  Biso   1.000  O
  O220     1.0000 0.10204  0.14217  0.52900  Biso   1.000  O
  O221     1.0000 0.35783  0.47100  0.60204  Biso   1.000  O
  O222     1.0000 0.35783  0.39796  0.47100  Biso   1.000  O
  O223     1.0000 0.35783  0.52900  0.39796  Biso   1.000  O
  O224     1.0000 0.02900  0.60204  0.14217  Biso   1.000  O
  O225     1.0000 0.64217  0.60204  0.47100  Biso   1.000  O
  O226     1.0000 0.97100  0.60204  0.85783  Biso   1.000  O
  O227     1.0000 0.02900  0.85783  0.60204  Biso   1.000  O
  O228     1.0000 0.10204  0.52900  0.85783  Biso   1.000  O
  O229     1.0000 0.89796  0.47100  0.85783  Biso   1.000  O
  O230     1.0000 0.02900  0.14217  0.39796  Biso   1.000  O
  O231     1.0000 0.89796  0.52900  0.14217  Biso   1.000  O
  O232     1.0000 0.97100  0.14217  0.60204  Biso   1.000  O
  O233     1.0000 0.97100  0.85783  0.39796  Biso   1.000  O
  O234     1.0000 0.10204  0.47100  0.14217  Biso   1.000  O
  O235     1.0000 0.10204  0.85783  0.47100  Biso   1.000  O
  O236     1.0000 0.89796  0.14217  0.47100  Biso   1.000  O
  O237     1.0000 0.64217  0.52900  0.60204  Biso   1.000  O
  O238     1.0000 0.64217  0.47100  0.39796  Biso   1.000  O
  O239     1.0000 0.02900  0.39796  0.85783  Biso   1.000  O
  O240     1.0000 0.97100  0.39796  0.14217  Biso   1.000  O
  O241     1.0000 0.85783  0.10204  0.52900  Biso   1.000  O
  O242     1.0000 0.39796  0.35783  0.52900  Biso   1.000  O
  O243     1.0000 0.14217  0.89796  0.52900  Biso   1.000  O
  O244     1.0000 0.60204  0.64217  0.52900  Biso   1.000  O
  O245     1.0000 0.85783  0.97100  0.60204  Biso   1.000  O
  O246     1.0000 0.85783  0.89796  0.47100  Biso   1.000  O
  O247     1.0000 0.85783  0.02900  0.39796  Biso   1.000  O
  O248     1.0000 0.52900  0.10204  0.14217  Biso   1.000  O
  O249     1.0000 0.14217  0.10204  0.47100  Biso   1.000  O
  O250     1.0000 0.47100  0.10204  0.85783  Biso   1.000  O
  O251     1.0000 0.52900  0.35783  0.60204  Biso   1.000  O
  O252     1.0000 0.60204  0.02900  0.85783  Biso   1.000  O
  O253     1.0000 0.39796  0.97100  0.85783  Biso   1.000  O
  O254     1.0000 0.52900  0.64217  0.39796  Biso   1.000  O
  O255     1.0000 0.39796  0.02900  0.14217  Biso   1.000  O
  O256     1.0000 0.47100  0.64217  0.60204  Biso   1.000  O
  O257     1.0000 0.47100  0.35783  0.39796  Biso   1.000  O
  O258     1.0000 0.60204  0.97100  0.14217  Biso   1.000  O
  O259     1.0000 0.60204  0.35783  0.47100  Biso   1.000  O
  O260     1.0000 0.39796  0.64217  0.47100  Biso   1.000  O
  O261     1.0000 0.14217  0.02900  0.60204  Biso   1.000  O
  O262     1.0000 0.14217  0.97100  0.39796  Biso   1.000  O
  O263     1.0000 0.52900  0.89796  0.85783  Biso   1.000  O
  O264     1.0000 0.47100  0.89796  0.14217  Biso   1.000  O
  O265     1.0000 0.85783  0.60204  0.02900  Biso   1.000  O
  O266     1.0000 0.39796  0.85783  0.02900  Biso   1.000  O
  O267     1.0000 0.14217  0.39796  0.02900  Biso   1.000  O
  O268     1.0000 0.60204  0.14217  0.02900  Biso   1.000  O
  O269     1.0000 0.85783  0.47100  0.10204  Biso   1.000  O
  O270     1.0000 0.85783  0.39796  0.97100  Biso   1.000  O
  O271     1.0000 0.85783  0.52900  0.89796  Biso   1.000  O
  O272     1.0000 0.52900  0.60204  0.64217  Biso   1.000  O
  O273     1.0000 0.14217  0.60204  0.97100  Biso   1.000  O
  O274     1.0000 0.47100  0.60204  0.35783  Biso   1.000  O
  O275     1.0000 0.52900  0.85783  0.10204  Biso   1.000  O
  O276     1.0000 0.60204  0.52900  0.35783  Biso   1.000  O
  O277     1.0000 0.39796  0.47100  0.35783  Biso   1.000  O
  O278     1.0000 0.52900  0.14217  0.89796  Biso   1.000  O
  O279     1.0000 0.39796  0.52900  0.64217  Biso   1.000  O
  O280     1.0000 0.47100  0.14217  0.10204  Biso   1.000  O
  O281     1.0000 0.47100  0.85783  0.89796  Biso   1.000  O
  O282     1.0000 0.60204  0.47100  0.64217  Biso   1.000  O
  O283     1.0000 0.60204  0.85783  0.97100  Biso   1.000  O
  O284     1.0000 0.39796  0.14217  0.97100  Biso   1.000  O
  O285     1.0000 0.14217  0.52900  0.10204  Biso   1.000  O
  O286     1.0000 0.14217  0.47100  0.89796  Biso   1.000  O
  O287     1.0000 0.52900  0.39796  0.35783  Biso   1.000  O
  O288     1.0000 0.47100  0.39796  0.64217  Biso   1.000  O
  O289     1.0000 0.64217  0.89796  0.97100  Biso   1.000  O
  O290     1.0000 0.10204  0.64217  0.97100  Biso   1.000  O
  O291     1.0000 0.35783  0.10204  0.97100  Biso   1.000  O
  O292     1.0000 0.89796  0.35783  0.97100  Biso   1.000  O
  O293     1.0000 0.64217  0.02900  0.89796  Biso   1.000  O
  O294     1.0000 0.64217  0.10204  0.02900  Biso   1.000  O
  O295     1.0000 0.64217  0.97100  0.10204  Biso   1.000  O
  O296     1.0000 0.97100  0.89796  0.35783  Biso   1.000  O
  O297     1.0000 0.35783  0.89796  0.02900  Biso   1.000  O
  O298     1.0000 0.02900  0.89796  0.64217  Biso   1.000  O
  O299     1.0000 0.97100  0.64217  0.89796  Biso   1.000  O
  O300     1.0000 0.89796  0.97100  0.64217  Biso   1.000  O
  O301     1.0000 0.10204  0.02900  0.64217  Biso   1.000  O
  O302     1.0000 0.97100  0.35783  0.10204  Biso   1.000  O
  O303     1.0000 0.10204  0.97100  0.35783  Biso   1.000  O
  O304     1.0000 0.02900  0.35783  0.89796  Biso   1.000  O
  O305     1.0000 0.02900  0.64217  0.10204  Biso   1.000  O
  O306     1.0000 0.89796  0.02900  0.35783  Biso   1.000  O
  O307     1.0000 0.89796  0.64217  0.02900  Biso   1.000  O
  O308     1.0000 0.10204  0.35783  0.02900  Biso   1.000  O
  O309     1.0000 0.35783  0.97100  0.89796  Biso   1.000  O
  O310     1.0000 0.35783  0.02900  0.10204  Biso   1.000  O
  O311     1.0000 0.97100  0.10204  0.64217  Biso   1.000  O
  O312     1.0000 0.02900  0.10204  0.35783  Biso   1.000  O
  O313     1.0000 0.64217  0.39796  0.47100  Biso   1.000  O
  O314     1.0000 0.10204  0.14217  0.47100  Biso   1.000  O
  O315     1.0000 0.35783  0.60204  0.47100  Biso   1.000  O
  O316     1.0000 0.89796  0.85783  0.47100  Biso   1.000  O
  O317     1.0000 0.64217  0.52900  0.39796  Biso   1.000  O
  O318     1.0000 0.64217  0.60204  0.52900  Biso   1.000  O
  O319     1.0000 0.64217  0.47100  0.60204  Biso   1.000  O
  O320     1.0000 0.97100  0.39796  0.85783  Biso   1.000  O
  O321     1.0000 0.35783  0.39796  0.52900  Biso   1.000  O
  O322     1.0000 0.02900  0.39796  0.14217  Biso   1.000  O
  O323     1.0000 0.97100  0.14217  0.39796  Biso   1.000  O
  O324     1.0000 0.89796  0.47100  0.14217  Biso   1.000  O
  O325     1.0000 0.10204  0.52900  0.14217  Biso   1.000  O
  O326     1.0000 0.97100  0.85783  0.60204  Biso   1.000  O
  O327     1.0000 0.10204  0.47100  0.85783  Biso   1.000  O
  O328     1.0000 0.02900  0.85783  0.39796  Biso   1.000  O
  O329     1.0000 0.02900  0.14217  0.60204  Biso   1.000  O
  O330     1.0000 0.89796  0.52900  0.85783  Biso   1.000  O
  O331     1.0000 0.89796  0.14217  0.52900  Biso   1.000  O
  O332     1.0000 0.10204  0.85783  0.52900  Biso   1.000  O
  O333     1.0000 0.35783  0.47100  0.39796  Biso   1.000  O
  O334     1.0000 0.35783  0.52900  0.60204  Biso   1.000  O
  O335     1.0000 0.97100  0.60204  0.14217  Biso   1.000  O
  O336     1.0000 0.02900  0.60204  0.85783  Biso   1.000  O
  O337     1.0000 0.14217  0.89796  0.47100  Biso   1.000  O
  O338     1.0000 0.60204  0.64217  0.47100  Biso   1.000  O
  O339     1.0000 0.85783  0.10204  0.47100  Biso   1.000  O
  O340     1.0000 0.39796  0.35783  0.47100  Biso   1.000  O
  O341     1.0000 0.14217  0.02900  0.39796  Biso   1.000  O
  O342     1.0000 0.14217  0.10204  0.52900  Biso   1.000  O
  O343     1.0000 0.14217  0.97100  0.60204  Biso   1.000  O
  O344     1.0000 0.47100  0.89796  0.85783  Biso   1.000  O
  O345     1.0000 0.85783  0.89796  0.52900  Biso   1.000  O
  O346     1.0000 0.52900  0.89796  0.14217  Biso   1.000  O
  O347     1.0000 0.47100  0.64217  0.39796  Biso   1.000  O
  O348     1.0000 0.39796  0.97100  0.14217  Biso   1.000  O
  O349     1.0000 0.60204  0.02900  0.14217  Biso   1.000  O
  O350     1.0000 0.47100  0.35783  0.60204  Biso   1.000  O
  O351     1.0000 0.60204  0.97100  0.85783  Biso   1.000  O
  O352     1.0000 0.52900  0.35783  0.39796  Biso   1.000  O
  O353     1.0000 0.52900  0.64217  0.60204  Biso   1.000  O
  O354     1.0000 0.39796  0.02900  0.85783  Biso   1.000  O
  O355     1.0000 0.39796  0.64217  0.52900  Biso   1.000  O
  O356     1.0000 0.60204  0.35783  0.52900  Biso   1.000  O
  O357     1.0000 0.85783  0.97100  0.39796  Biso   1.000  O
  O358     1.0000 0.85783  0.02900  0.60204  Biso   1.000  O
  O359     1.0000 0.47100  0.10204  0.14217  Biso   1.000  O
  O360     1.0000 0.52900  0.10204  0.85783  Biso   1.000  O
  O361     1.0000 0.14217  0.39796  0.97100  Biso   1.000  O
  O362     1.0000 0.60204  0.14217  0.97100  Biso   1.000  O
  O363     1.0000 0.85783  0.60204  0.97100  Biso   1.000  O
  O364     1.0000 0.39796  0.85783  0.97100  Biso   1.000  O
  O365     1.0000 0.14217  0.52900  0.89796  Biso   1.000  O
  O366     1.0000 0.14217  0.60204  0.02900  Biso   1.000  O
  O367     1.0000 0.14217  0.47100  0.10204  Biso   1.000  O
  O368     1.0000 0.47100  0.39796  0.35783  Biso   1.000  O
  O369     1.0000 0.85783  0.39796  0.02900  Biso   1.000  O
  O370     1.0000 0.52900  0.39796  0.64217  Biso   1.000  O
  O371     1.0000 0.47100  0.14217  0.89796  Biso   1.000  O
  O372     1.0000 0.39796  0.47100  0.64217  Biso   1.000  O
  O373     1.0000 0.60204  0.52900  0.64217  Biso   1.000  O
  O374     1.0000 0.47100  0.85783  0.10204  Biso   1.000  O
  O375     1.0000 0.60204  0.47100  0.35783  Biso   1.000  O
  O376     1.0000 0.52900  0.85783  0.89796  Biso   1.000  O
  O377     1.0000 0.52900  0.14217  0.10204  Biso   1.000  O
  O378     1.0000 0.39796  0.52900  0.35783  Biso   1.000  O
  O379     1.0000 0.39796  0.14217  0.02900  Biso   1.000  O
  O380     1.0000 0.60204  0.85783  0.02900  Biso   1.000  O
  O381     1.0000 0.85783  0.47100  0.89796  Biso   1.000  O
  O382     1.0000 0.85783  0.52900  0.10204  Biso   1.000  O
  O383     1.0000 0.47100  0.60204  0.64217  Biso   1.000  O
  O384     1.0000 0.52900  0.60204  0.35783  Biso   1.000  O
  O385     1.0000 0.41292  0.08708  0.00000  Biso   1.000  O
  O386     1.0000 0.91292  0.41292  0.00000  Biso   1.000  O
  O387     1.0000 0.58708  0.91292  0.00000  Biso   1.000  O
  O388     1.0000 0.08708  0.58708  0.00000  Biso   1.000  O
  O389     1.0000 0.41292  0.00000  0.08708  Biso   1.000  O
  O390     1.0000 0.41292  0.91292  0.00000  Biso   1.000  O
  O391     1.0000 0.41292  0.00000  0.91292  Biso   1.000  O
  O392     1.0000 0.00000  0.08708  0.58708  Biso   1.000  O
  O393     1.0000 0.58708  0.08708  0.00000  Biso   1.000  O
  O394     1.0000 0.00000  0.08708  0.41292  Biso   1.000  O
  O395     1.0000 0.00000  0.41292  0.08708  Biso   1.000  O
  O396     1.0000 0.08708  0.00000  0.41292  Biso   1.000  O
  O397     1.0000 0.91292  0.00000  0.41292  Biso   1.000  O
  O398     1.0000 0.00000  0.58708  0.91292  Biso   1.000  O
  O399     1.0000 0.91292  0.00000  0.58708  Biso   1.000  O
  O400     1.0000 0.00000  0.58708  0.08708  Biso   1.000  O
  O401     1.0000 0.00000  0.41292  0.91292  Biso   1.000  O
  O402     1.0000 0.08708  0.00000  0.58708  Biso   1.000  O
  O403     1.0000 0.08708  0.41292  0.00000  Biso   1.000  O
  O404     1.0000 0.91292  0.58708  0.00000  Biso   1.000  O
  O405     1.0000 0.58708  0.00000  0.08708  Biso   1.000  O
  O406     1.0000 0.58708  0.00000  0.91292  Biso   1.000  O
  O407     1.0000 0.00000  0.91292  0.41292  Biso   1.000  O
  O408     1.0000 0.00000  0.91292  0.58708  Biso   1.000  O
  O409     1.0000 0.41292  0.58708  0.50000  Biso   1.000  O
  O410     1.0000 0.91292  0.91292  0.50000  Biso   1.000  O
  O411     1.0000 0.58708  0.41292  0.50000  Biso   1.000  O
  O412     1.0000 0.08708  0.08708  0.50000  Biso   1.000  O
  O413     1.0000 0.41292  0.50000  0.58708  Biso   1.000  O
  O414     1.0000 0.41292  0.41292  0.50000  Biso   1.000  O
  O415     1.0000 0.41292  0.50000  0.41292  Biso   1.000  O
  O416     1.0000 0.58708  0.58708  0.50000  Biso   1.000  O
  O417     1.0000 0.08708  0.50000  0.91292  Biso   1.000  O
  O418     1.0000 0.91292  0.50000  0.91292  Biso   1.000  O
  O419     1.0000 0.91292  0.50000  0.08708  Biso   1.000  O
  O420     1.0000 0.08708  0.50000  0.08708  Biso   1.000  O
  O421     1.0000 0.08708  0.91292  0.50000  Biso   1.000  O
  O422     1.0000 0.91292  0.08708  0.50000  Biso   1.000  O
  O423     1.0000 0.58708  0.50000  0.58708  Biso   1.000  O
  O424     1.0000 0.58708  0.50000  0.41292  Biso   1.000  O
  O425     1.0000 0.50000  0.08708  0.08708  Biso   1.000  O
  O426     1.0000 0.50000  0.08708  0.91292  Biso   1.000  O
  O427     1.0000 0.50000  0.41292  0.58708  Biso   1.000  O
  O428     1.0000 0.50000  0.58708  0.41292  Biso   1.000  O
  O429     1.0000 0.50000  0.58708  0.58708  Biso   1.000  O
  O430     1.0000 0.50000  0.41292  0.41292  Biso   1.000  O
  O431     1.0000 0.50000  0.91292  0.91292  Biso   1.000  O
  O432     1.0000 0.50000  0.91292  0.08708  Biso   1.000  O
  C1       1.0000 0.33564  0.11244  0.03818  Biso   1.000  C
  C2       1.0000 0.88756  0.33564  0.03818  Biso   1.000  C
  C3       1.0000 0.66436  0.88756  0.03818  Biso   1.000  C
  C4       1.0000 0.11244  0.66436  0.03818  Biso   1.000  C
  C5       1.0000 0.33564  0.96182  0.11244  Biso   1.000  C
  C6       1.0000 0.33564  0.88756  0.96182  Biso   1.000  C
  C7       1.0000 0.33564  0.03818  0.88756  Biso   1.000  C
  C8       1.0000 0.03818  0.11244  0.66436  Biso   1.000  C
  C9       1.0000 0.66436  0.11244  0.96182  Biso   1.000  C
  C10      1.0000 0.96182  0.11244  0.33564  Biso   1.000  C
  C11      1.0000 0.03818  0.33564  0.11244  Biso   1.000  C
  C12      1.0000 0.11244  0.03818  0.33564  Biso   1.000  C
  C13      1.0000 0.88756  0.96182  0.33564  Biso   1.000  C
  C14      1.0000 0.03818  0.66436  0.88756  Biso   1.000  C
  C15      1.0000 0.88756  0.03818  0.66436  Biso   1.000  C
  C16      1.0000 0.96182  0.66436  0.11244  Biso   1.000  C
  C17      1.0000 0.96182  0.33564  0.88756  Biso   1.000  C
  C18      1.0000 0.11244  0.96182  0.66436  Biso   1.000  C
  C19      1.0000 0.11244  0.33564  0.96182  Biso   1.000  C
  C20      1.0000 0.88756  0.66436  0.96182  Biso   1.000  C
  C21      1.0000 0.66436  0.03818  0.11244  Biso   1.000  C
  C22      1.0000 0.66436  0.96182  0.88756  Biso   1.000  C
  C23      1.0000 0.03818  0.88756  0.33564  Biso   1.000  C
  C24      1.0000 0.96182  0.88756  0.66436  Biso   1.000  C
  C25      1.0000 0.33564  0.61244  0.53818  Biso   1.000  C
  C26      1.0000 0.88756  0.83564  0.53818  Biso   1.000  C
  C27      1.0000 0.66436  0.38756  0.53818  Biso   1.000  C
  C28      1.0000 0.11244  0.16436  0.53818  Biso   1.000  C
  C29      1.0000 0.33564  0.46182  0.61244  Biso   1.000  C
  C30      1.0000 0.33564  0.38756  0.46182  Biso   1.000  C
  C31      1.0000 0.33564  0.53818  0.38756  Biso   1.000  C
  C32      1.0000 0.03818  0.61244  0.16436  Biso   1.000  C
  C33      1.0000 0.66436  0.61244  0.46182  Biso   1.000  C
  C34      1.0000 0.96182  0.61244  0.83564  Biso   1.000  C
  C35      1.0000 0.03818  0.83564  0.61244  Biso   1.000  C
  C36      1.0000 0.11244  0.53818  0.83564  Biso   1.000  C
  C37      1.0000 0.88756  0.46182  0.83564  Biso   1.000  C
  C38      1.0000 0.03818  0.16436  0.38756  Biso   1.000  C
  C39      1.0000 0.88756  0.53818  0.16436  Biso   1.000  C
  C40      1.0000 0.96182  0.16436  0.61244  Biso   1.000  C
  C41      1.0000 0.96182  0.83564  0.38756  Biso   1.000  C
  C42      1.0000 0.11244  0.46182  0.16436  Biso   1.000  C
  C43      1.0000 0.11244  0.83564  0.46182  Biso   1.000  C
  C44      1.0000 0.88756  0.16436  0.46182  Biso   1.000  C
  C45      1.0000 0.66436  0.53818  0.61244  Biso   1.000  C
  C46      1.0000 0.66436  0.46182  0.38756  Biso   1.000  C
  C47      1.0000 0.03818  0.38756  0.83564  Biso   1.000  C
  C48      1.0000 0.96182  0.38756  0.16436  Biso   1.000  C
  C49      1.0000 0.83564  0.11244  0.53818  Biso   1.000  C
  C50      1.0000 0.38756  0.33564  0.53818  Biso   1.000  C
  C51      1.0000 0.16436  0.88756  0.53818  Biso   1.000  C
  C52      1.0000 0.61244  0.66436  0.53818  Biso   1.000  C
  C53      1.0000 0.83564  0.96182  0.61244  Biso   1.000  C
  C54      1.0000 0.83564  0.88756  0.46182  Biso   1.000  C
  C55      1.0000 0.83564  0.03818  0.38756  Biso   1.000  C
  C56      1.0000 0.53818  0.11244  0.16436  Biso   1.000  C
  C57      1.0000 0.16436  0.11244  0.46182  Biso   1.000  C
  C58      1.0000 0.46182  0.11244  0.83564  Biso   1.000  C
  C59      1.0000 0.53818  0.33564  0.61244  Biso   1.000  C
  C60      1.0000 0.61244  0.03818  0.83564  Biso   1.000  C
  C61      1.0000 0.38756  0.96182  0.83564  Biso   1.000  C
  C62      1.0000 0.53818  0.66436  0.38756  Biso   1.000  C
  C63      1.0000 0.38756  0.03818  0.16436  Biso   1.000  C
  C64      1.0000 0.46182  0.66436  0.61244  Biso   1.000  C
  C65      1.0000 0.46182  0.33564  0.38756  Biso   1.000  C
  C66      1.0000 0.61244  0.96182  0.16436  Biso   1.000  C
  C67      1.0000 0.61244  0.33564  0.46182  Biso   1.000  C
  C68      1.0000 0.38756  0.66436  0.46182  Biso   1.000  C
  C69      1.0000 0.16436  0.03818  0.61244  Biso   1.000  C
  C70      1.0000 0.16436  0.96182  0.38756  Biso   1.000  C
  C71      1.0000 0.53818  0.88756  0.83564  Biso   1.000  C
  C72      1.0000 0.46182  0.88756  0.16436  Biso   1.000  C
  C73      1.0000 0.83564  0.61244  0.03818  Biso   1.000  C
  C74      1.0000 0.38756  0.83564  0.03818  Biso   1.000  C
  C75      1.0000 0.16436  0.38756  0.03818  Biso   1.000  C
  C76      1.0000 0.61244  0.16436  0.03818  Biso   1.000  C
  C77      1.0000 0.83564  0.46182  0.11244  Biso   1.000  C
  C78      1.0000 0.83564  0.38756  0.96182  Biso   1.000  C
  C79      1.0000 0.83564  0.53818  0.88756  Biso   1.000  C
  C80      1.0000 0.53818  0.61244  0.66436  Biso   1.000  C
  C81      1.0000 0.16436  0.61244  0.96182  Biso   1.000  C
  C82      1.0000 0.46182  0.61244  0.33564  Biso   1.000  C
  C83      1.0000 0.53818  0.83564  0.11244  Biso   1.000  C
  C84      1.0000 0.61244  0.53818  0.33564  Biso   1.000  C
  C85      1.0000 0.38756  0.46182  0.33564  Biso   1.000  C
  C86      1.0000 0.53818  0.16436  0.88756  Biso   1.000  C
  C87      1.0000 0.38756  0.53818  0.66436  Biso   1.000  C
  C88      1.0000 0.46182  0.16436  0.11244  Biso   1.000  C
  C89      1.0000 0.46182  0.83564  0.88756  Biso   1.000  C
  C90      1.0000 0.61244  0.46182  0.66436  Biso   1.000  C
  C91      1.0000 0.61244  0.83564  0.96182  Biso   1.000  C
  C92      1.0000 0.38756  0.16436  0.96182  Biso   1.000  C
  C93      1.0000 0.16436  0.53818  0.11244  Biso   1.000  C
  C94      1.0000 0.16436  0.46182  0.88756  Biso   1.000  C
  C95      1.0000 0.53818  0.38756  0.33564  Biso   1.000  C
  C96      1.0000 0.46182  0.38756  0.66436  Biso   1.000  C
  C97      1.0000 0.66436  0.88756  0.96182  Biso   1.000  C
  C98      1.0000 0.11244  0.66436  0.96182  Biso   1.000  C
  C99      1.0000 0.33564  0.11244  0.96182  Biso   1.000  C
  C100     1.0000 0.88756  0.33564  0.96182  Biso   1.000  C
  C101     1.0000 0.66436  0.03818  0.88756  Biso   1.000  C
  C102     1.0000 0.66436  0.11244  0.03818  Biso   1.000  C
  C103     1.0000 0.66436  0.96182  0.11244  Biso   1.000  C
  C104     1.0000 0.96182  0.88756  0.33564  Biso   1.000  C
  C105     1.0000 0.33564  0.88756  0.03818  Biso   1.000  C
  C106     1.0000 0.03818  0.88756  0.66436  Biso   1.000  C
  C107     1.0000 0.96182  0.66436  0.88756  Biso   1.000  C
  C108     1.0000 0.88756  0.96182  0.66436  Biso   1.000  C
  C109     1.0000 0.11244  0.03818  0.66436  Biso   1.000  C
  C110     1.0000 0.96182  0.33564  0.11244  Biso   1.000  C
  C111     1.0000 0.11244  0.96182  0.33564  Biso   1.000  C
  C112     1.0000 0.03818  0.33564  0.88756  Biso   1.000  C
  C113     1.0000 0.03818  0.66436  0.11244  Biso   1.000  C
  C114     1.0000 0.88756  0.03818  0.33564  Biso   1.000  C
  C115     1.0000 0.88756  0.66436  0.03818  Biso   1.000  C
  C116     1.0000 0.11244  0.33564  0.03818  Biso   1.000  C
  C117     1.0000 0.33564  0.96182  0.88756  Biso   1.000  C
  C118     1.0000 0.33564  0.03818  0.11244  Biso   1.000  C
  C119     1.0000 0.96182  0.11244  0.66436  Biso   1.000  C
  C120     1.0000 0.03818  0.11244  0.33564  Biso   1.000  C
  C121     1.0000 0.66436  0.38756  0.46182  Biso   1.000  C
  C122     1.0000 0.11244  0.16436  0.46182  Biso   1.000  C
  C123     1.0000 0.33564  0.61244  0.46182  Biso   1.000  C
  C124     1.0000 0.88756  0.83564  0.46182  Biso   1.000  C
  C125     1.0000 0.66436  0.53818  0.38756  Biso   1.000  C
  C126     1.0000 0.66436  0.61244  0.53818  Biso   1.000  C
  C127     1.0000 0.66436  0.46182  0.61244  Biso   1.000  C
  C128     1.0000 0.96182  0.38756  0.83564  Biso   1.000  C
  C129     1.0000 0.33564  0.38756  0.53818  Biso   1.000  C
  C130     1.0000 0.03818  0.38756  0.16436  Biso   1.000  C
  C131     1.0000 0.96182  0.16436  0.38756  Biso   1.000  C
  C132     1.0000 0.88756  0.46182  0.16436  Biso   1.000  C
  C133     1.0000 0.11244  0.53818  0.16436  Biso   1.000  C
  C134     1.0000 0.96182  0.83564  0.61244  Biso   1.000  C
  C135     1.0000 0.11244  0.46182  0.83564  Biso   1.000  C
  C136     1.0000 0.03818  0.83564  0.38756  Biso   1.000  C
  C137     1.0000 0.03818  0.16436  0.61244  Biso   1.000  C
  C138     1.0000 0.88756  0.53818  0.83564  Biso   1.000  C
  C139     1.0000 0.88756  0.16436  0.53818  Biso   1.000  C
  C140     1.0000 0.11244  0.83564  0.53818  Biso   1.000  C
  C141     1.0000 0.33564  0.46182  0.38756  Biso   1.000  C
  C142     1.0000 0.33564  0.53818  0.61244  Biso   1.000  C
  C143     1.0000 0.96182  0.61244  0.16436  Biso   1.000  C
  C144     1.0000 0.03818  0.61244  0.83564  Biso   1.000  C
  C145     1.0000 0.16436  0.88756  0.46182  Biso   1.000  C
  C146     1.0000 0.61244  0.66436  0.46182  Biso   1.000  C
  C147     1.0000 0.83564  0.11244  0.46182  Biso   1.000  C
  C148     1.0000 0.38756  0.33564  0.46182  Biso   1.000  C
  C149     1.0000 0.16436  0.03818  0.38756  Biso   1.000  C
  C150     1.0000 0.16436  0.11244  0.53818  Biso   1.000  C
  C151     1.0000 0.16436  0.96182  0.61244  Biso   1.000  C
  C152     1.0000 0.46182  0.88756  0.83564  Biso   1.000  C
  C153     1.0000 0.83564  0.88756  0.53818  Biso   1.000  C
  C154     1.0000 0.53818  0.88756  0.16436  Biso   1.000  C
  C155     1.0000 0.46182  0.66436  0.38756  Biso   1.000  C
  C156     1.0000 0.38756  0.96182  0.16436  Biso   1.000  C
  C157     1.0000 0.61244  0.03818  0.16436  Biso   1.000  C
  C158     1.0000 0.46182  0.33564  0.61244  Biso   1.000  C
  C159     1.0000 0.61244  0.96182  0.83564  Biso   1.000  C
  C160     1.0000 0.53818  0.33564  0.38756  Biso   1.000  C
  C161     1.0000 0.53818  0.66436  0.61244  Biso   1.000  C
  C162     1.0000 0.38756  0.03818  0.83564  Biso   1.000  C
  C163     1.0000 0.38756  0.66436  0.53818  Biso   1.000  C
  C164     1.0000 0.61244  0.33564  0.53818  Biso   1.000  C
  C165     1.0000 0.83564  0.96182  0.38756  Biso   1.000  C
  C166     1.0000 0.83564  0.03818  0.61244  Biso   1.000  C
  C167     1.0000 0.46182  0.11244  0.16436  Biso   1.000  C
  C168     1.0000 0.53818  0.11244  0.83564  Biso   1.000  C
  C169     1.0000 0.16436  0.38756  0.96182  Biso   1.000  C
  C170     1.0000 0.61244  0.16436  0.96182  Biso   1.000  C
  C171     1.0000 0.83564  0.61244  0.96182  Biso   1.000  C
  C172     1.0000 0.38756  0.83564  0.96182  Biso   1.000  C
  C173     1.0000 0.16436  0.53818  0.88756  Biso   1.000  C
  C174     1.0000 0.16436  0.61244  0.03818  Biso   1.000  C
  C175     1.0000 0.16436  0.46182  0.11244  Biso   1.000  C
  C176     1.0000 0.46182  0.38756  0.33564  Biso   1.000  C
  C177     1.0000 0.83564  0.38756  0.03818  Biso   1.000  C
  C178     1.0000 0.53818  0.38756  0.66436  Biso   1.000  C
  C179     1.0000 0.46182  0.16436  0.88756  Biso   1.000  C
  C180     1.0000 0.38756  0.46182  0.66436  Biso   1.000  C
  C181     1.0000 0.61244  0.53818  0.66436  Biso   1.000  C
  C182     1.0000 0.46182  0.83564  0.11244  Biso   1.000  C
  C183     1.0000 0.61244  0.46182  0.33564  Biso   1.000  C
  C184     1.0000 0.53818  0.83564  0.88756  Biso   1.000  C
  C185     1.0000 0.53818  0.16436  0.11244  Biso   1.000  C
  C186     1.0000 0.38756  0.53818  0.33564  Biso   1.000  C
  C187     1.0000 0.38756  0.16436  0.03818  Biso   1.000  C
  C188     1.0000 0.61244  0.83564  0.03818  Biso   1.000  C
  C189     1.0000 0.83564  0.46182  0.88756  Biso   1.000  C
  C190     1.0000 0.83564  0.53818  0.11244  Biso   1.000  C
  C191     1.0000 0.46182  0.61244  0.66436  Biso   1.000  C
  C192     1.0000 0.53818  0.61244  0.33564  Biso   1.000  C
  C193     1.0000 0.33170  0.07430  0.07430  Biso   1.000  C
  C194     1.0000 0.92570  0.33170  0.07430  Biso   1.000  C
  C195     1.0000 0.66830  0.92570  0.07430  Biso   1.000  C
  C196     1.0000 0.07430  0.66830  0.07430  Biso   1.000  C
  C197     1.0000 0.33170  0.92570  0.07430  Biso   1.000  C
  C198     1.0000 0.33170  0.92570  0.92570  Biso   1.000  C
  C199     1.0000 0.33170  0.07430  0.92570  Biso   1.000  C
  C200     1.0000 0.07430  0.07430  0.66830  Biso   1.000  C
  C201     1.0000 0.66830  0.07430  0.92570  Biso   1.000  C
  C202     1.0000 0.92570  0.07430  0.33170  Biso   1.000  C
  C203     1.0000 0.07430  0.33170  0.07430  Biso   1.000  C
  C204     1.0000 0.07430  0.07430  0.33170  Biso   1.000  C
  C205     1.0000 0.92570  0.92570  0.33170  Biso   1.000  C
  C206     1.0000 0.07430  0.66830  0.92570  Biso   1.000  C
  C207     1.0000 0.92570  0.07430  0.66830  Biso   1.000  C
  C208     1.0000 0.92570  0.66830  0.07430  Biso   1.000  C
  C209     1.0000 0.92570  0.33170  0.92570  Biso   1.000  C
  C210     1.0000 0.07430  0.92570  0.66830  Biso   1.000  C
  C211     1.0000 0.07430  0.33170  0.92570  Biso   1.000  C
  C212     1.0000 0.92570  0.66830  0.92570  Biso   1.000  C
  C213     1.0000 0.66830  0.07430  0.07430  Biso   1.000  C
  C214     1.0000 0.66830  0.92570  0.92570  Biso   1.000  C
  C215     1.0000 0.07430  0.92570  0.33170  Biso   1.000  C
  C216     1.0000 0.92570  0.92570  0.66830  Biso   1.000  C
  C217     1.0000 0.33170  0.57430  0.57430  Biso   1.000  C
  C218     1.0000 0.92570  0.83170  0.57430  Biso   1.000  C
  C219     1.0000 0.66830  0.42570  0.57430  Biso   1.000  C
  C220     1.0000 0.07430  0.16830  0.57430  Biso   1.000  C
  C221     1.0000 0.33170  0.42570  0.57430  Biso   1.000  C
  C222     1.0000 0.33170  0.42570  0.42570  Biso   1.000  C
  C223     1.0000 0.33170  0.57430  0.42570  Biso   1.000  C
  C224     1.0000 0.07430  0.57430  0.16830  Biso   1.000  C
  C225     1.0000 0.66830  0.57430  0.42570  Biso   1.000  C
  C226     1.0000 0.92570  0.57430  0.83170  Biso   1.000  C
  C227     1.0000 0.07430  0.83170  0.57430  Biso   1.000  C
  C228     1.0000 0.07430  0.57430  0.83170  Biso   1.000  C
  C229     1.0000 0.92570  0.42570  0.83170  Biso   1.000  C
  C230     1.0000 0.07430  0.16830  0.42570  Biso   1.000  C
  C231     1.0000 0.92570  0.57430  0.16830  Biso   1.000  C
  C232     1.0000 0.92570  0.16830  0.57430  Biso   1.000  C
  C233     1.0000 0.92570  0.83170  0.42570  Biso   1.000  C
  C234     1.0000 0.07430  0.42570  0.16830  Biso   1.000  C
  C235     1.0000 0.07430  0.83170  0.42570  Biso   1.000  C
  C236     1.0000 0.92570  0.16830  0.42570  Biso   1.000  C
  C237     1.0000 0.66830  0.57430  0.57430  Biso   1.000  C
  C238     1.0000 0.66830  0.42570  0.42570  Biso   1.000  C
  C239     1.0000 0.07430  0.42570  0.83170  Biso   1.000  C
  C240     1.0000 0.92570  0.42570  0.16830  Biso   1.000  C
  C241     1.0000 0.83170  0.07430  0.57430  Biso   1.000  C
  C242     1.0000 0.42570  0.33170  0.57430  Biso   1.000  C
  C243     1.0000 0.16830  0.92570  0.57430  Biso   1.000  C
  C244     1.0000 0.57430  0.66830  0.57430  Biso   1.000  C
  C245     1.0000 0.83170  0.92570  0.57430  Biso   1.000  C
  C246     1.0000 0.83170  0.92570  0.42570  Biso   1.000  C
  C247     1.0000 0.83170  0.07430  0.42570  Biso   1.000  C
  C248     1.0000 0.57430  0.07430  0.16830  Biso   1.000  C
  C249     1.0000 0.16830  0.07430  0.42570  Biso   1.000  C
  C250     1.0000 0.42570  0.07430  0.83170  Biso   1.000  C
  C251     1.0000 0.57430  0.33170  0.57430  Biso   1.000  C
  C252     1.0000 0.57430  0.07430  0.83170  Biso   1.000  C
  C253     1.0000 0.42570  0.92570  0.83170  Biso   1.000  C
  C254     1.0000 0.57430  0.66830  0.42570  Biso   1.000  C
  C255     1.0000 0.42570  0.07430  0.16830  Biso   1.000  C
  C256     1.0000 0.42570  0.66830  0.57430  Biso   1.000  C
  C257     1.0000 0.42570  0.33170  0.42570  Biso   1.000  C
  C258     1.0000 0.57430  0.92570  0.16830  Biso   1.000  C
  C259     1.0000 0.57430  0.33170  0.42570  Biso   1.000  C
  C260     1.0000 0.42570  0.66830  0.42570  Biso   1.000  C
  C261     1.0000 0.16830  0.07430  0.57430  Biso   1.000  C
  C262     1.0000 0.16830  0.92570  0.42570  Biso   1.000  C
  C263     1.0000 0.57430  0.92570  0.83170  Biso   1.000  C
  C264     1.0000 0.42570  0.92570  0.16830  Biso   1.000  C
  C265     1.0000 0.83170  0.57430  0.07430  Biso   1.000  C
  C266     1.0000 0.42570  0.83170  0.07430  Biso   1.000  C
  C267     1.0000 0.16830  0.42570  0.07430  Biso   1.000  C
  C268     1.0000 0.57430  0.16830  0.07430  Biso   1.000  C
  C269     1.0000 0.83170  0.42570  0.07430  Biso   1.000  C
  C270     1.0000 0.83170  0.42570  0.92570  Biso   1.000  C
  C271     1.0000 0.83170  0.57430  0.92570  Biso   1.000  C
  C272     1.0000 0.57430  0.57430  0.66830  Biso   1.000  C
  C273     1.0000 0.16830  0.57430  0.92570  Biso   1.000  C
  C274     1.0000 0.42570  0.57430  0.33170  Biso   1.000  C
  C275     1.0000 0.57430  0.83170  0.07430  Biso   1.000  C
  C276     1.0000 0.57430  0.57430  0.33170  Biso   1.000  C
  C277     1.0000 0.42570  0.42570  0.33170  Biso   1.000  C
  C278     1.0000 0.57430  0.16830  0.92570  Biso   1.000  C
  C279     1.0000 0.42570  0.57430  0.66830  Biso   1.000  C
  C280     1.0000 0.42570  0.16830  0.07430  Biso   1.000  C
  C281     1.0000 0.42570  0.83170  0.92570  Biso   1.000  C
  C282     1.0000 0.57430  0.42570  0.66830  Biso   1.000  C
  C283     1.0000 0.57430  0.83170  0.92570  Biso   1.000  C
  C284     1.0000 0.42570  0.16830  0.92570  Biso   1.000  C
  C285     1.0000 0.16830  0.57430  0.07430  Biso   1.000  C
  C286     1.0000 0.16830  0.42570  0.92570  Biso   1.000  C
  C287     1.0000 0.57430  0.42570  0.33170  Biso   1.000  C
  C288     1.0000 0.42570  0.42570  0.66830  Biso   1.000  C
  H1       1.0000 0.34860  0.06710  0.06710  Biso   1.000  H
  H2       1.0000 0.93290  0.34860  0.06710  Biso   1.000  H
  H3       1.0000 0.65140  0.93290  0.06710  Biso   1.000  H
  H4       1.0000 0.06710  0.65140  0.06710  Biso   1.000  H
  H5       1.0000 0.34860  0.93290  0.06710  Biso   1.000  H
  H6       1.0000 0.34860  0.93290  0.93290  Biso   1.000  H
  H7       1.0000 0.34860  0.06710  0.93290  Biso   1.000  H
  H8       1.0000 0.06710  0.06710  0.65140  Biso   1.000  H
  H9       1.0000 0.65140  0.06710  0.93290  Biso   1.000  H
  H10      1.0000 0.93290  0.06710  0.34860  Biso   1.000  H
  H11      1.0000 0.06710  0.34860  0.06710  Biso   1.000  H
  H12      1.0000 0.06710  0.06710  0.34860  Biso   1.000  H
  H13      1.0000 0.93290  0.93290  0.34860  Biso   1.000  H
  H14      1.0000 0.06710  0.65140  0.93290  Biso   1.000  H
  H15      1.0000 0.93290  0.06710  0.65140  Biso   1.000  H
  H16      1.0000 0.93290  0.65140  0.06710  Biso   1.000  H
  H17      1.0000 0.93290  0.34860  0.93290  Biso   1.000  H
  H18      1.0000 0.06710  0.93290  0.65140  Biso   1.000  H
  H19      1.0000 0.06710  0.34860  0.93290  Biso   1.000  H
  H20      1.0000 0.93290  0.65140  0.93290  Biso   1.000  H
  H21      1.0000 0.65140  0.06710  0.06710  Biso   1.000  H
  H22      1.0000 0.65140  0.93290  0.93290  Biso   1.000  H
  H23      1.0000 0.06710  0.93290  0.34860  Biso   1.000  H
  H24      1.0000 0.93290  0.93290  0.65140  Biso   1.000  H
  H25      1.0000 0.34860  0.56710  0.56710  Biso   1.000  H
  H26      1.0000 0.93290  0.84860  0.56710  Biso   1.000  H
  H27      1.0000 0.65140  0.43290  0.56710  Biso   1.000  H
  H28      1.0000 0.06710  0.15140  0.56710  Biso   1.000  H
  H29      1.0000 0.34860  0.43290  0.56710  Biso   1.000  H
  H30      1.0000 0.34860  0.43290  0.43290  Biso   1.000  H
  H31      1.0000 0.34860  0.56710  0.43290  Biso   1.000  H
  H32      1.0000 0.06710  0.56710  0.15140  Biso   1.000  H
  H33      1.0000 0.65140  0.56710  0.43290  Biso   1.000  H
  H34      1.0000 0.93290  0.56710  0.84860  Biso   1.000  H
  H35      1.0000 0.06710  0.84860  0.56710  Biso   1.000  H
  H36      1.0000 0.06710  0.56710  0.84860  Biso   1.000  H
  H37      1.0000 0.93290  0.43290  0.84860  Biso   1.000  H
  H38      1.0000 0.06710  0.15140  0.43290  Biso   1.000  H
  H39      1.0000 0.93290  0.56710  0.15140  Biso   1.000  H
  H40      1.0000 0.93290  0.15140  0.56710  Biso   1.000  H
  H41      1.0000 0.93290  0.84860  0.43290  Biso   1.000  H
  H42      1.0000 0.06710  0.43290  0.15140  Biso   1.000  H
  H43      1.0000 0.06710  0.84860  0.43290  Biso   1.000  H
  H44      1.0000 0.93290  0.15140  0.43290  Biso   1.000  H
  H45      1.0000 0.65140  0.56710  0.56710  Biso   1.000  H
  H46      1.0000 0.65140  0.43290  0.43290  Biso   1.000  H
  H47      1.0000 0.06710  0.43290  0.84860  Biso   1.000  H
  H48      1.0000 0.93290  0.43290  0.15140  Biso   1.000  H
  H49      1.0000 0.84860  0.06710  0.56710  Biso   1.000  H
  H50      1.0000 0.43290  0.34860  0.56710  Biso   1.000  H
  H51      1.0000 0.15140  0.93290  0.56710  Biso   1.000  H
  H52      1.0000 0.56710  0.65140  0.56710  Biso   1.000  H
  H53      1.0000 0.84860  0.93290  0.56710  Biso   1.000  H
  H54      1.0000 0.84860  0.93290  0.43290  Biso   1.000  H
  H55      1.0000 0.84860  0.06710  0.43290  Biso   1.000  H
  H56      1.0000 0.56710  0.06710  0.15140  Biso   1.000  H
  H57      1.0000 0.15140  0.06710  0.43290  Biso   1.000  H
  H58      1.0000 0.43290  0.06710  0.84860  Biso   1.000  H
  H59      1.0000 0.56710  0.34860  0.56710  Biso   1.000  H
  H60      1.0000 0.56710  0.06710  0.84860  Biso   1.000  H
  H61      1.0000 0.43290  0.93290  0.84860  Biso   1.000  H
  H62      1.0000 0.56710  0.65140  0.43290  Biso   1.000  H
  H63      1.0000 0.43290  0.06710  0.15140  Biso   1.000  H
  H64      1.0000 0.43290  0.65140  0.56710  Biso   1.000  H
  H65      1.0000 0.43290  0.34860  0.43290  Biso   1.000  H
  H66      1.0000 0.56710  0.93290  0.15140  Biso   1.000  H
  H67      1.0000 0.56710  0.34860  0.43290  Biso   1.000  H
  H68      1.0000 0.43290  0.65140  0.43290  Biso   1.000  H
  H69      1.0000 0.15140  0.06710  0.56710  Biso   1.000  H
  H70      1.0000 0.15140  0.93290  0.43290  Biso   1.000  H
  H71      1.0000 0.56710  0.93290  0.84860  Biso   1.000  H
  H72      1.0000 0.43290  0.93290  0.15140  Biso   1.000  H
  H73      1.0000 0.84860  0.56710  0.06710  Biso   1.000  H
  H74      1.0000 0.43290  0.84860  0.06710  Biso   1.000  H
  H75      1.0000 0.15140  0.43290  0.06710  Biso   1.000  H
  H76      1.0000 0.56710  0.15140  0.06710  Biso   1.000  H
  H77      1.0000 0.84860  0.43290  0.06710  Biso   1.000  H
  H78      1.0000 0.84860  0.43290  0.93290  Biso   1.000  H
  H79      1.0000 0.84860  0.56710  0.93290  Biso   1.000  H
  H80      1.0000 0.56710  0.56710  0.65140  Biso   1.000  H
  H81      1.0000 0.15140  0.56710  0.93290  Biso   1.000  H
  H82      1.0000 0.43290  0.56710  0.34860  Biso   1.000  H
  H83      1.0000 0.56710  0.84860  0.06710  Biso   1.000  H
  H84      1.0000 0.56710  0.56710  0.34860  Biso   1.000  H
  H85      1.0000 0.43290  0.43290  0.34860  Biso   1.000  H
  H86      1.0000 0.56710  0.15140  0.93290  Biso   1.000  H
  H87      1.0000 0.43290  0.56710  0.65140  Biso   1.000  H
  H88      1.0000 0.43290  0.15140  0.06710  Biso   1.000  H
  H89      1.0000 0.43290  0.84860  0.93290  Biso   1.000  H
  H90      1.0000 0.56710  0.43290  0.65140  Biso   1.000  H
  H91      1.0000 0.56710  0.84860  0.93290  Biso   1.000  H
  H92      1.0000 0.43290  0.15140  0.93290  Biso   1.000  H
  H93      1.0000 0.15140  0.56710  0.06710  Biso   1.000  H
  H94      1.0000 0.15140  0.43290  0.93290  Biso   1.000  H
  H95      1.0000 0.56710  0.43290  0.34860  Biso   1.000  H
  H96      1.0000 0.43290  0.43290  0.65140  Biso   1.000  H
  C289     1.0000 0.31961  0.09752  0.06132  Biso   1.000  C
  C290     1.0000 0.90248  0.31961  0.06132  Biso   1.000  C
  C291     1.0000 0.68039  0.90248  0.06132  Biso   1.000  C
  C292     1.0000 0.09752  0.68039  0.06132  Biso   1.000  C
  C293     1.0000 0.31961  0.93868  0.09752  Biso   1.000  C
  C294     1.0000 0.31961  0.90248  0.93868  Biso   1.000  C
  C295     1.0000 0.31961  0.06132  0.90248  Biso   1.000  C
  C296     1.0000 0.06132  0.09752  0.68039  Biso   1.000  C
  C297     1.0000 0.68039  0.09752  0.93868  Biso   1.000  C
  C298     1.0000 0.93868  0.09752  0.31961  Biso   1.000  C
  C299     1.0000 0.06132  0.31961  0.09752  Biso   1.000  C
  C300     1.0000 0.09752  0.06132  0.31961  Biso   1.000  C
  C301     1.0000 0.90248  0.93868  0.31961  Biso   1.000  C
  C302     1.0000 0.06132  0.68039  0.90248  Biso   1.000  C
  C303     1.0000 0.90248  0.06132  0.68039  Biso   1.000  C
  C304     1.0000 0.93868  0.68039  0.09752  Biso   1.000  C
  C305     1.0000 0.93868  0.31961  0.90248  Biso   1.000  C
  C306     1.0000 0.09752  0.93868  0.68039  Biso   1.000  C
  C307     1.0000 0.09752  0.31961  0.93868  Biso   1.000  C
  C308     1.0000 0.90248  0.68039  0.93868  Biso   1.000  C
  C309     1.0000 0.68039  0.06132  0.09752  Biso   1.000  C
  C310     1.0000 0.68039  0.93868  0.90248  Biso   1.000  C
  C311     1.0000 0.06132  0.90248  0.31961  Biso   1.000  C
  C312     1.0000 0.93868  0.90248  0.68039  Biso   1.000  C
  C313     1.0000 0.31961  0.59752  0.56132  Biso   1.000  C
  C314     1.0000 0.90248  0.81961  0.56132  Biso   1.000  C
  C315     1.0000 0.68039  0.40248  0.56132  Biso   1.000  C
  C316     1.0000 0.09752  0.18039  0.56132  Biso   1.000  C
  C317     1.0000 0.31961  0.43868  0.59752  Biso   1.000  C
  C318     1.0000 0.31961  0.40248  0.43868  Biso   1.000  C
  C319     1.0000 0.31961  0.56132  0.40248  Biso   1.000  C
  C320     1.0000 0.06132  0.59752  0.18039  Biso   1.000  C
  C321     1.0000 0.68039  0.59752  0.43868  Biso   1.000  C
  C322     1.0000 0.93868  0.59752  0.81961  Biso   1.000  C
  C323     1.0000 0.06132  0.81961  0.59752  Biso   1.000  C
  C324     1.0000 0.09752  0.56132  0.81961  Biso   1.000  C
  C325     1.0000 0.90248  0.43868  0.81961  Biso   1.000  C
  C326     1.0000 0.06132  0.18039  0.40248  Biso   1.000  C
  C327     1.0000 0.90248  0.56132  0.18039  Biso   1.000  C
  C328     1.0000 0.93868  0.18039  0.59752  Biso   1.000  C
  C329     1.0000 0.93868  0.81961  0.40248  Biso   1.000  C
  C330     1.0000 0.09752  0.43868  0.18039  Biso   1.000  C
  C331     1.0000 0.09752  0.81961  0.43868  Biso   1.000  C
  C332     1.0000 0.90248  0.18039  0.43868  Biso   1.000  C
  C333     1.0000 0.68039  0.56132  0.59752  Biso   1.000  C
  C334     1.0000 0.68039  0.43868  0.40248  Biso   1.000  C
  C335     1.0000 0.06132  0.40248  0.81961  Biso   1.000  C
  C336     1.0000 0.93868  0.40248  0.18039  Biso   1.000  C
  C337     1.0000 0.81961  0.09752  0.56132  Biso   1.000  C
  C338     1.0000 0.40248  0.31961  0.56132  Biso   1.000  C
  C339     1.0000 0.18039  0.90248  0.56132  Biso   1.000  C
  C340     1.0000 0.59752  0.68039  0.56132  Biso   1.000  C
  C341     1.0000 0.81961  0.93868  0.59752  Biso   1.000  C
  C342     1.0000 0.81961  0.90248  0.43868  Biso   1.000  C
  C343     1.0000 0.81961  0.06132  0.40248  Biso   1.000  C
  C344     1.0000 0.56132  0.09752  0.18039  Biso   1.000  C
  C345     1.0000 0.18039  0.09752  0.43868  Biso   1.000  C
  C346     1.0000 0.43868  0.09752  0.81961  Biso   1.000  C
  C347     1.0000 0.56132  0.31961  0.59752  Biso   1.000  C
  C348     1.0000 0.59752  0.06132  0.81961  Biso   1.000  C
  C349     1.0000 0.40248  0.93868  0.81961  Biso   1.000  C
  C350     1.0000 0.56132  0.68039  0.40248  Biso   1.000  C
  C351     1.0000 0.40248  0.06132  0.18039  Biso   1.000  C
  C352     1.0000 0.43868  0.68039  0.59752  Biso   1.000  C
  C353     1.0000 0.43868  0.31961  0.40248  Biso   1.000  C
  C354     1.0000 0.59752  0.93868  0.18039  Biso   1.000  C
  C355     1.0000 0.59752  0.31961  0.43868  Biso   1.000  C
  C356     1.0000 0.40248  0.68039  0.43868  Biso   1.000  C
  C357     1.0000 0.18039  0.06132  0.59752  Biso   1.000  C
  C358     1.0000 0.18039  0.93868  0.40248  Biso   1.000  C
  C359     1.0000 0.56132  0.90248  0.81961  Biso   1.000  C
  C360     1.0000 0.43868  0.90248  0.18039  Biso   1.000  C
  C361     1.0000 0.81961  0.59752  0.06132  Biso   1.000  C
  C362     1.0000 0.40248  0.81961  0.06132  Biso   1.000  C
  C363     1.0000 0.18039  0.40248  0.06132  Biso   1.000  C
  C364     1.0000 0.59752  0.18039  0.06132  Biso   1.000  C
  C365     1.0000 0.81961  0.43868  0.09752  Biso   1.000  C
  C366     1.0000 0.81961  0.40248  0.93868  Biso   1.000  C
  C367     1.0000 0.81961  0.56132  0.90248  Biso   1.000  C
  C368     1.0000 0.56132  0.59752  0.68039  Biso   1.000  C
  C369     1.0000 0.18039  0.59752  0.93868  Biso   1.000  C
  C370     1.0000 0.43868  0.59752  0.31961  Biso   1.000  C
  C371     1.0000 0.56132  0.81961  0.09752  Biso   1.000  C
  C372     1.0000 0.59752  0.56132  0.31961  Biso   1.000  C
  C373     1.0000 0.40248  0.43868  0.31961  Biso   1.000  C
  C374     1.0000 0.56132  0.18039  0.90248  Biso   1.000  C
  C375     1.0000 0.40248  0.56132  0.68039  Biso   1.000  C
  C376     1.0000 0.43868  0.18039  0.09752  Biso   1.000  C
  C377     1.0000 0.43868  0.81961  0.90248  Biso   1.000  C
  C378     1.0000 0.59752  0.43868  0.68039  Biso   1.000  C
  C379     1.0000 0.59752  0.81961  0.93868  Biso   1.000  C
  C380     1.0000 0.40248  0.18039  0.93868  Biso   1.000  C
  C381     1.0000 0.18039  0.56132  0.09752  Biso   1.000  C
  C382     1.0000 0.18039  0.43868  0.90248  Biso   1.000  C
  C383     1.0000 0.56132  0.40248  0.31961  Biso   1.000  C
  C384     1.0000 0.43868  0.40248  0.68039  Biso   1.000  C
  C385     1.0000 0.68039  0.90248  0.93868  Biso   1.000  C
  C386     1.0000 0.09752  0.68039  0.93868  Biso   1.000  C
  C387     1.0000 0.31961  0.09752  0.93868  Biso   1.000  C
  C388     1.0000 0.90248  0.31961  0.93868  Biso   1.000  C
  C389     1.0000 0.68039  0.06132  0.90248  Biso   1.000  C
  C390     1.0000 0.68039  0.09752  0.06132  Biso   1.000  C
  C391     1.0000 0.68039  0.93868  0.09752  Biso   1.000  C
  C392     1.0000 0.93868  0.90248  0.31961  Biso   1.000  C
  C393     1.0000 0.31961  0.90248  0.06132  Biso   1.000  C
  C394     1.0000 0.06132  0.90248  0.68039  Biso   1.000  C
  C395     1.0000 0.93868  0.68039  0.90248  Biso   1.000  C
  C396     1.0000 0.90248  0.93868  0.68039  Biso   1.000  C
  C397     1.0000 0.09752  0.06132  0.68039  Biso   1.000  C
  C398     1.0000 0.93868  0.31961  0.09752  Biso   1.000  C
  C399     1.0000 0.09752  0.93868  0.31961  Biso   1.000  C
  C400     1.0000 0.06132  0.31961  0.90248  Biso   1.000  C
  C401     1.0000 0.06132  0.68039  0.09752  Biso   1.000  C
  C402     1.0000 0.90248  0.06132  0.31961  Biso   1.000  C
  C403     1.0000 0.90248  0.68039  0.06132  Biso   1.000  C
  C404     1.0000 0.09752  0.31961  0.06132  Biso   1.000  C
  C405     1.0000 0.31961  0.93868  0.90248  Biso   1.000  C
  C406     1.0000 0.31961  0.06132  0.09752  Biso   1.000  C
  C407     1.0000 0.93868  0.09752  0.68039  Biso   1.000  C
  C408     1.0000 0.06132  0.09752  0.31961  Biso   1.000  C
  C409     1.0000 0.68039  0.40248  0.43868  Biso   1.000  C
  C410     1.0000 0.09752  0.18039  0.43868  Biso   1.000  C
  C411     1.0000 0.31961  0.59752  0.43868  Biso   1.000  C
  C412     1.0000 0.90248  0.81961  0.43868  Biso   1.000  C
  C413     1.0000 0.68039  0.56132  0.40248  Biso   1.000  C
  C414     1.0000 0.68039  0.59752  0.56132  Biso   1.000  C
  C415     1.0000 0.68039  0.43868  0.59752  Biso   1.000  C
  C416     1.0000 0.93868  0.40248  0.81961  Biso   1.000  C
  C417     1.0000 0.31961  0.40248  0.56132  Biso   1.000  C
  C418     1.0000 0.06132  0.40248  0.18039  Biso   1.000  C
  C419     1.0000 0.93868  0.18039  0.40248  Biso   1.000  C
  C420     1.0000 0.90248  0.43868  0.18039  Biso   1.000  C
  C421     1.0000 0.09752  0.56132  0.18039  Biso   1.000  C
  C422     1.0000 0.93868  0.81961  0.59752  Biso   1.000  C
  C423     1.0000 0.09752  0.43868  0.81961  Biso   1.000  C
  C424     1.0000 0.06132  0.81961  0.40248  Biso   1.000  C
  C425     1.0000 0.06132  0.18039  0.59752  Biso   1.000  C
  C426     1.0000 0.90248  0.56132  0.81961  Biso   1.000  C
  C427     1.0000 0.90248  0.18039  0.56132  Biso   1.000  C
  C428     1.0000 0.09752  0.81961  0.56132  Biso   1.000  C
  C429     1.0000 0.31961  0.43868  0.40248  Biso   1.000  C
  C430     1.0000 0.31961  0.56132  0.59752  Biso   1.000  C
  C431     1.0000 0.93868  0.59752  0.18039  Biso   1.000  C
  C432     1.0000 0.06132  0.59752  0.81961  Biso   1.000  C
  C433     1.0000 0.18039  0.90248  0.43868  Biso   1.000  C
  C434     1.0000 0.59752  0.68039  0.43868  Biso   1.000  C
  C435     1.0000 0.81961  0.09752  0.43868  Biso   1.000  C
  C436     1.0000 0.40248  0.31961  0.43868  Biso   1.000  C
  C437     1.0000 0.18039  0.06132  0.40248  Biso   1.000  C
  C438     1.0000 0.18039  0.09752  0.56132  Biso   1.000  C
  C439     1.0000 0.18039  0.93868  0.59752  Biso   1.000  C
  C440     1.0000 0.43868  0.90248  0.81961  Biso   1.000  C
  C441     1.0000 0.81961  0.90248  0.56132  Biso   1.000  C
  C442     1.0000 0.56132  0.90248  0.18039  Biso   1.000  C
  C443     1.0000 0.43868  0.68039  0.40248  Biso   1.000  C
  C444     1.0000 0.40248  0.93868  0.18039  Biso   1.000  C
  C445     1.0000 0.59752  0.06132  0.18039  Biso   1.000  C
  C446     1.0000 0.43868  0.31961  0.59752  Biso   1.000  C
  C447     1.0000 0.59752  0.93868  0.81961  Biso   1.000  C
  C448     1.0000 0.56132  0.31961  0.40248  Biso   1.000  C
  C449     1.0000 0.56132  0.68039  0.59752  Biso   1.000  C
  C450     1.0000 0.40248  0.06132  0.81961  Biso   1.000  C
  C451     1.0000 0.40248  0.68039  0.56132  Biso   1.000  C
  C452     1.0000 0.59752  0.31961  0.56132  Biso   1.000  C
  C453     1.0000 0.81961  0.93868  0.40248  Biso   1.000  C
  C454     1.0000 0.81961  0.06132  0.59752  Biso   1.000  C
  C455     1.0000 0.43868  0.09752  0.18039  Biso   1.000  C
  C456     1.0000 0.56132  0.09752  0.81961  Biso   1.000  C
  C457     1.0000 0.18039  0.40248  0.93868  Biso   1.000  C
  C458     1.0000 0.59752  0.18039  0.93868  Biso   1.000  C
  C459     1.0000 0.81961  0.59752  0.93868  Biso   1.000  C
  C460     1.0000 0.40248  0.81961  0.93868  Biso   1.000  C
  C461     1.0000 0.18039  0.56132  0.90248  Biso   1.000  C
  C462     1.0000 0.18039  0.59752  0.06132  Biso   1.000  C
  C463     1.0000 0.18039  0.43868  0.09752  Biso   1.000  C
  C464     1.0000 0.43868  0.40248  0.31961  Biso   1.000  C
  C465     1.0000 0.81961  0.40248  0.06132  Biso   1.000  C
  C466     1.0000 0.56132  0.40248  0.68039  Biso   1.000  C
  C467     1.0000 0.43868  0.18039  0.90248  Biso   1.000  C
  C468     1.0000 0.40248  0.43868  0.68039  Biso   1.000  C
  C469     1.0000 0.59752  0.56132  0.68039  Biso   1.000  C
  C470     1.0000 0.43868  0.81961  0.09752  Biso   1.000  C
  C471     1.0000 0.59752  0.43868  0.31961  Biso   1.000  C
  C472     1.0000 0.56132  0.81961  0.90248  Biso   1.000  C
  C473     1.0000 0.56132  0.18039  0.09752  Biso   1.000  C
  C474     1.0000 0.40248  0.56132  0.31961  Biso   1.000  C
  C475     1.0000 0.40248  0.18039  0.06132  Biso   1.000  C
  C476     1.0000 0.59752  0.81961  0.06132  Biso   1.000  C
  C477     1.0000 0.81961  0.43868  0.90248  Biso   1.000  C
  C478     1.0000 0.81961  0.56132  0.09752  Biso   1.000  C
  C479     1.0000 0.43868  0.59752  0.68039  Biso   1.000  C
  C480     1.0000 0.56132  0.59752  0.31961  Biso   1.000  C
  C481     1.0000 0.29340  0.10693  0.07167  Biso   1.000  C
  C482     1.0000 0.89307  0.29340  0.07167  Biso   1.000  C
  C483     1.0000 0.70660  0.89307  0.07167  Biso   1.000  C
  C484     1.0000 0.10693  0.70660  0.07167  Biso   1.000  C
  C485     1.0000 0.29340  0.92833  0.10693  Biso   1.000  C
  C486     1.0000 0.29340  0.89307  0.92833  Biso   1.000  C
  C487     1.0000 0.29340  0.07167  0.89307  Biso   1.000  C
  C488     1.0000 0.07167  0.10693  0.70660  Biso   1.000  C
  C489     1.0000 0.70660  0.10693  0.92833  Biso   1.000  C
  C490     1.0000 0.92833  0.10693  0.29340  Biso   1.000  C
  C491     1.0000 0.07167  0.29340  0.10693  Biso   1.000  C
  C492     1.0000 0.10693  0.07167  0.29340  Biso   1.000  C
  C493     1.0000 0.89307  0.92833  0.29340  Biso   1.000  C
  C494     1.0000 0.07167  0.70660  0.89307  Biso   1.000  C
  C495     1.0000 0.89307  0.07167  0.70660  Biso   1.000  C
  C496     1.0000 0.92833  0.70660  0.10693  Biso   1.000  C
  C497     1.0000 0.92833  0.29340  0.89307  Biso   1.000  C
  C498     1.0000 0.10693  0.92833  0.70660  Biso   1.000  C
  C499     1.0000 0.10693  0.29340  0.92833  Biso   1.000  C
  C500     1.0000 0.89307  0.70660  0.92833  Biso   1.000  C
  C501     1.0000 0.70660  0.07167  0.10693  Biso   1.000  C
  C502     1.0000 0.70660  0.92833  0.89307  Biso   1.000  C
  C503     1.0000 0.07167  0.89307  0.29340  Biso   1.000  C
  C504     1.0000 0.92833  0.89307  0.70660  Biso   1.000  C
  C505     1.0000 0.29340  0.60693  0.57167  Biso   1.000  C
  C506     1.0000 0.89307  0.79340  0.57167  Biso   1.000  C
  C507     1.0000 0.70660  0.39307  0.57167  Biso   1.000  C
  C508     1.0000 0.10693  0.20660  0.57167  Biso   1.000  C
  C509     1.0000 0.29340  0.42833  0.60693  Biso   1.000  C
  C510     1.0000 0.29340  0.39307  0.42833  Biso   1.000  C
  C511     1.0000 0.29340  0.57167  0.39307  Biso   1.000  C
  C512     1.0000 0.07167  0.60693  0.20660  Biso   1.000  C
  C513     1.0000 0.70660  0.60693  0.42833  Biso   1.000  C
  C514     1.0000 0.92833  0.60693  0.79340  Biso   1.000  C
  C515     1.0000 0.07167  0.79340  0.60693  Biso   1.000  C
  C516     1.0000 0.10693  0.57167  0.79340  Biso   1.000  C
  C517     1.0000 0.89307  0.42833  0.79340  Biso   1.000  C
  C518     1.0000 0.07167  0.20660  0.39307  Biso   1.000  C
  C519     1.0000 0.89307  0.57167  0.20660  Biso   1.000  C
  C520     1.0000 0.92833  0.20660  0.60693  Biso   1.000  C
  C521     1.0000 0.92833  0.79340  0.39307  Biso   1.000  C
  C522     1.0000 0.10693  0.42833  0.20660  Biso   1.000  C
  C523     1.0000 0.10693  0.79340  0.42833  Biso   1.000  C
  C524     1.0000 0.89307  0.20660  0.42833  Biso   1.000  C
  C525     1.0000 0.70660  0.57167  0.60693  Biso   1.000  C
  C526     1.0000 0.70660  0.42833  0.39307  Biso   1.000  C
  C527     1.0000 0.07167  0.39307  0.79340  Biso   1.000  C
  C528     1.0000 0.92833  0.39307  0.20660  Biso   1.000  C
  C529     1.0000 0.79340  0.10693  0.57167  Biso   1.000  C
  C530     1.0000 0.39307  0.29340  0.57167  Biso   1.000  C
  C531     1.0000 0.20660  0.89307  0.57167  Biso   1.000  C
  C532     1.0000 0.60693  0.70660  0.57167  Biso   1.000  C
  C533     1.0000 0.79340  0.92833  0.60693  Biso   1.000  C
  C534     1.0000 0.79340  0.89307  0.42833  Biso   1.000  C
  C535     1.0000 0.79340  0.07167  0.39307  Biso   1.000  C
  C536     1.0000 0.57167  0.10693  0.20660  Biso   1.000  C
  C537     1.0000 0.20660  0.10693  0.42833  Biso   1.000  C
  C538     1.0000 0.42833  0.10693  0.79340  Biso   1.000  C
  C539     1.0000 0.57167  0.29340  0.60693  Biso   1.000  C
  C540     1.0000 0.60693  0.07167  0.79340  Biso   1.000  C
  C541     1.0000 0.39307  0.92833  0.79340  Biso   1.000  C
  C542     1.0000 0.57167  0.70660  0.39307  Biso   1.000  C
  C543     1.0000 0.39307  0.07167  0.20660  Biso   1.000  C
  C544     1.0000 0.42833  0.70660  0.60693  Biso   1.000  C
  C545     1.0000 0.42833  0.29340  0.39307  Biso   1.000  C
  C546     1.0000 0.60693  0.92833  0.20660  Biso   1.000  C
  C547     1.0000 0.60693  0.29340  0.42833  Biso   1.000  C
  C548     1.0000 0.39307  0.70660  0.42833  Biso   1.000  C
  C549     1.0000 0.20660  0.07167  0.60693  Biso   1.000  C
  C550     1.0000 0.20660  0.92833  0.39307  Biso   1.000  C
  C551     1.0000 0.57167  0.89307  0.79340  Biso   1.000  C
  C552     1.0000 0.42833  0.89307  0.20660  Biso   1.000  C
  C553     1.0000 0.79340  0.60693  0.07167  Biso   1.000  C
  C554     1.0000 0.39307  0.79340  0.07167  Biso   1.000  C
  C555     1.0000 0.20660  0.39307  0.07167  Biso   1.000  C
  C556     1.0000 0.60693  0.20660  0.07167  Biso   1.000  C
  C557     1.0000 0.79340  0.42833  0.10693  Biso   1.000  C
  C558     1.0000 0.79340  0.39307  0.92833  Biso   1.000  C
  C559     1.0000 0.79340  0.57167  0.89307  Biso   1.000  C
  C560     1.0000 0.57167  0.60693  0.70660  Biso   1.000  C
  C561     1.0000 0.20660  0.60693  0.92833  Biso   1.000  C
  C562     1.0000 0.42833  0.60693  0.29340  Biso   1.000  C
  C563     1.0000 0.57167  0.79340  0.10693  Biso   1.000  C
  C564     1.0000 0.60693  0.57167  0.29340  Biso   1.000  C
  C565     1.0000 0.39307  0.42833  0.29340  Biso   1.000  C
  C566     1.0000 0.57167  0.20660  0.89307  Biso   1.000  C
  C567     1.0000 0.39307  0.57167  0.70660  Biso   1.000  C
  C568     1.0000 0.42833  0.20660  0.10693  Biso   1.000  C
  C569     1.0000 0.42833  0.79340  0.89307  Biso   1.000  C
  C570     1.0000 0.60693  0.42833  0.70660  Biso   1.000  C
  C571     1.0000 0.60693  0.79340  0.92833  Biso   1.000  C
  C572     1.0000 0.39307  0.20660  0.92833  Biso   1.000  C
  C573     1.0000 0.20660  0.57167  0.10693  Biso   1.000  C
  C574     1.0000 0.20660  0.42833  0.89307  Biso   1.000  C
  C575     1.0000 0.57167  0.39307  0.29340  Biso   1.000  C
  C576     1.0000 0.42833  0.39307  0.70660  Biso   1.000  C
  C577     1.0000 0.70660  0.89307  0.92833  Biso   1.000  C
  C578     1.0000 0.10693  0.70660  0.92833  Biso   1.000  C
  C579     1.0000 0.29340  0.10693  0.92833  Biso   1.000  C
  C580     1.0000 0.89307  0.29340  0.92833  Biso   1.000  C
  C581     1.0000 0.70660  0.07167  0.89307  Biso   1.000  C
  C582     1.0000 0.70660  0.10693  0.07167  Biso   1.000  C
  C583     1.0000 0.70660  0.92833  0.10693  Biso   1.000  C
  C584     1.0000 0.92833  0.89307  0.29340  Biso   1.000  C
  C585     1.0000 0.29340  0.89307  0.07167  Biso   1.000  C
  C586     1.0000 0.07167  0.89307  0.70660  Biso   1.000  C
  C587     1.0000 0.92833  0.70660  0.89307  Biso   1.000  C
  C588     1.0000 0.89307  0.92833  0.70660  Biso   1.000  C
  C589     1.0000 0.10693  0.07167  0.70660  Biso   1.000  C
  C590     1.0000 0.92833  0.29340  0.10693  Biso   1.000  C
  C591     1.0000 0.10693  0.92833  0.29340  Biso   1.000  C
  C592     1.0000 0.07167  0.29340  0.89307  Biso   1.000  C
  C593     1.0000 0.07167  0.70660  0.10693  Biso   1.000  C
  C594     1.0000 0.89307  0.07167  0.29340  Biso   1.000  C
  C595     1.0000 0.89307  0.70660  0.07167  Biso   1.000  C
  C596     1.0000 0.10693  0.29340  0.07167  Biso   1.000  C
  C597     1.0000 0.29340  0.92833  0.89307  Biso   1.000  C
  C598     1.0000 0.29340  0.07167  0.10693  Biso   1.000  C
  C599     1.0000 0.92833  0.10693  0.70660  Biso   1.000  C
  C600     1.0000 0.07167  0.10693  0.29340  Biso   1.000  C
  C601     1.0000 0.70660  0.39307  0.42833  Biso   1.000  C
  C602     1.0000 0.10693  0.20660  0.42833  Biso   1.000  C
  C603     1.0000 0.29340  0.60693  0.42833  Biso   1.000  C
  C604     1.0000 0.89307  0.79340  0.42833  Biso   1.000  C
  C605     1.0000 0.70660  0.57167  0.39307  Biso   1.000  C
  C606     1.0000 0.70660  0.60693  0.57167  Biso   1.000  C
  C607     1.0000 0.70660  0.42833  0.60693  Biso   1.000  C
  C608     1.0000 0.92833  0.39307  0.79340  Biso   1.000  C
  C609     1.0000 0.29340  0.39307  0.57167  Biso   1.000  C
  C610     1.0000 0.07167  0.39307  0.20660  Biso   1.000  C
  C611     1.0000 0.92833  0.20660  0.39307  Biso   1.000  C
  C612     1.0000 0.89307  0.42833  0.20660  Biso   1.000  C
  C613     1.0000 0.10693  0.57167  0.20660  Biso   1.000  C
  C614     1.0000 0.92833  0.79340  0.60693  Biso   1.000  C
  C615     1.0000 0.10693  0.42833  0.79340  Biso   1.000  C
  C616     1.0000 0.07167  0.79340  0.39307  Biso   1.000  C
  C617     1.0000 0.07167  0.20660  0.60693  Biso   1.000  C
  C618     1.0000 0.89307  0.57167  0.79340  Biso   1.000  C
  C619     1.0000 0.89307  0.20660  0.57167  Biso   1.000  C
  C620     1.0000 0.10693  0.79340  0.57167  Biso   1.000  C
  C621     1.0000 0.29340  0.42833  0.39307  Biso   1.000  C
  C622     1.0000 0.29340  0.57167  0.60693  Biso   1.000  C
  C623     1.0000 0.92833  0.60693  0.20660  Biso   1.000  C
  C624     1.0000 0.07167  0.60693  0.79340  Biso   1.000  C
  C625     1.0000 0.20660  0.89307  0.42833  Biso   1.000  C
  C626     1.0000 0.60693  0.70660  0.42833  Biso   1.000  C
  C627     1.0000 0.79340  0.10693  0.42833  Biso   1.000  C
  C628     1.0000 0.39307  0.29340  0.42833  Biso   1.000  C
  C629     1.0000 0.20660  0.07167  0.39307  Biso   1.000  C
  C630     1.0000 0.20660  0.10693  0.57167  Biso   1.000  C
  C631     1.0000 0.20660  0.92833  0.60693  Biso   1.000  C
  C632     1.0000 0.42833  0.89307  0.79340  Biso   1.000  C
  C633     1.0000 0.79340  0.89307  0.57167  Biso   1.000  C
  C634     1.0000 0.57167  0.89307  0.20660  Biso   1.000  C
  C635     1.0000 0.42833  0.70660  0.39307  Biso   1.000  C
  C636     1.0000 0.39307  0.92833  0.20660  Biso   1.000  C
  C637     1.0000 0.60693  0.07167  0.20660  Biso   1.000  C
  C638     1.0000 0.42833  0.29340  0.60693  Biso   1.000  C
  C639     1.0000 0.60693  0.92833  0.79340  Biso   1.000  C
  C640     1.0000 0.57167  0.29340  0.39307  Biso   1.000  C
  C641     1.0000 0.57167  0.70660  0.60693  Biso   1.000  C
  C642     1.0000 0.39307  0.07167  0.79340  Biso   1.000  C
  C643     1.0000 0.39307  0.70660  0.57167  Biso   1.000  C
  C644     1.0000 0.60693  0.29340  0.57167  Biso   1.000  C
  C645     1.0000 0.79340  0.92833  0.39307  Biso   1.000  C
  C646     1.0000 0.79340  0.07167  0.60693  Biso   1.000  C
  C647     1.0000 0.42833  0.10693  0.20660  Biso   1.000  C
  C648     1.0000 0.57167  0.10693  0.79340  Biso   1.000  C
  C649     1.0000 0.20660  0.39307  0.92833  Biso   1.000  C
  C650     1.0000 0.60693  0.20660  0.92833  Biso   1.000  C
  C651     1.0000 0.79340  0.60693  0.92833  Biso   1.000  C
  C652     1.0000 0.39307  0.79340  0.92833  Biso   1.000  C
  C653     1.0000 0.20660  0.57167  0.89307  Biso   1.000  C
  C654     1.0000 0.20660  0.60693  0.07167  Biso   1.000  C
  C655     1.0000 0.20660  0.42833  0.10693  Biso   1.000  C
  C656     1.0000 0.42833  0.39307  0.29340  Biso   1.000  C
  C657     1.0000 0.79340  0.39307  0.07167  Biso   1.000  C
  C658     1.0000 0.57167  0.39307  0.70660  Biso   1.000  C
  C659     1.0000 0.42833  0.20660  0.89307  Biso   1.000  C
  C660     1.0000 0.39307  0.42833  0.70660  Biso   1.000  C
  C661     1.0000 0.60693  0.57167  0.70660  Biso   1.000  C
  C662     1.0000 0.42833  0.79340  0.10693  Biso   1.000  C
  C663     1.0000 0.60693  0.42833  0.29340  Biso   1.000  C
  C664     1.0000 0.57167  0.79340  0.89307  Biso   1.000  C
  C665     1.0000 0.57167  0.20660  0.10693  Biso   1.000  C
  C666     1.0000 0.39307  0.57167  0.29340  Biso   1.000  C
  C667     1.0000 0.39307  0.20660  0.07167  Biso   1.000  C
  C668     1.0000 0.60693  0.79340  0.07167  Biso   1.000  C
  C669     1.0000 0.79340  0.42833  0.89307  Biso   1.000  C
  C670     1.0000 0.79340  0.57167  0.10693  Biso   1.000  C
  C671     1.0000 0.42833  0.60693  0.70660  Biso   1.000  C
  C672     1.0000 0.57167  0.60693  0.29340  Biso   1.000  C
  H97      1.0000 0.28450  0.12230  0.06280  Biso   1.000  H
  H98      1.0000 0.87770  0.28450  0.06280  Biso   1.000  H
  H99      1.0000 0.71550  0.87770  0.06280  Biso   1.000  H
  H100     1.0000 0.12230  0.71550  0.06280  Biso   1.000  H
  H101     1.0000 0.28450  0.93720  0.12230  Biso   1.000  H
  H102     1.0000 0.28450  0.87770  0.93720  Biso   1.000  H
  H103     1.0000 0.28450  0.06280  0.87770  Biso   1.000  H
  H104     1.0000 0.06280  0.12230  0.71550  Biso   1.000  H
  H105     1.0000 0.71550  0.12230  0.93720  Biso   1.000  H
  H106     1.0000 0.93720  0.12230  0.28450  Biso   1.000  H
  H107     1.0000 0.06280  0.28450  0.12230  Biso   1.000  H
  H108     1.0000 0.12230  0.06280  0.28450  Biso   1.000  H
  H109     1.0000 0.87770  0.93720  0.28450  Biso   1.000  H
  H110     1.0000 0.06280  0.71550  0.87770  Biso   1.000  H
  H111     1.0000 0.87770  0.06280  0.71550  Biso   1.000  H
  H112     1.0000 0.93720  0.71550  0.12230  Biso   1.000  H
  H113     1.0000 0.93720  0.28450  0.87770  Biso   1.000  H
  H114     1.0000 0.12230  0.93720  0.71550  Biso   1.000  H
  H115     1.0000 0.12230  0.28450  0.93720  Biso   1.000  H
  H116     1.0000 0.87770  0.71550  0.93720  Biso   1.000  H
  H117     1.0000 0.71550  0.06280  0.12230  Biso   1.000  H
  H118     1.0000 0.71550  0.93720  0.87770  Biso   1.000  H
  H119     1.0000 0.06280  0.87770  0.28450  Biso   1.000  H
  H120     1.0000 0.93720  0.87770  0.71550  Biso   1.000  H
  H121     1.0000 0.28450  0.62230  0.56280  Biso   1.000  H
  H122     1.0000 0.87770  0.78450  0.56280  Biso   1.000  H
  H123     1.0000 0.71550  0.37770  0.56280  Biso   1.000  H
  H124     1.0000 0.12230  0.21550  0.56280  Biso   1.000  H
  H125     1.0000 0.28450  0.43720  0.62230  Biso   1.000  H
  H126     1.0000 0.28450  0.37770  0.43720  Biso   1.000  H
  H127     1.0000 0.28450  0.56280  0.37770  Biso   1.000  H
  H128     1.0000 0.06280  0.62230  0.21550  Biso   1.000  H
  H129     1.0000 0.71550  0.62230  0.43720  Biso   1.000  H
  H130     1.0000 0.93720  0.62230  0.78450  Biso   1.000  H
  H131     1.0000 0.06280  0.78450  0.62230  Biso   1.000  H
  H132     1.0000 0.12230  0.56280  0.78450  Biso   1.000  H
  H133     1.0000 0.87770  0.43720  0.78450  Biso   1.000  H
  H134     1.0000 0.06280  0.21550  0.37770  Biso   1.000  H
  H135     1.0000 0.87770  0.56280  0.21550  Biso   1.000  H
  H136     1.0000 0.93720  0.21550  0.62230  Biso   1.000  H
  H137     1.0000 0.93720  0.78450  0.37770  Biso   1.000  H
  H138     1.0000 0.12230  0.43720  0.21550  Biso   1.000  H
  H139     1.0000 0.12230  0.78450  0.43720  Biso   1.000  H
  H140     1.0000 0.87770  0.21550  0.43720  Biso   1.000  H
  H141     1.0000 0.71550  0.56280  0.62230  Biso   1.000  H
  H142     1.0000 0.71550  0.43720  0.37770  Biso   1.000  H
  H143     1.0000 0.06280  0.37770  0.78450  Biso   1.000  H
  H144     1.0000 0.93720  0.37770  0.21550  Biso   1.000  H
  H145     1.0000 0.78450  0.12230  0.56280  Biso   1.000  H
  H146     1.0000 0.37770  0.28450  0.56280  Biso   1.000  H
  H147     1.0000 0.21550  0.87770  0.56280  Biso   1.000  H
  H148     1.0000 0.62230  0.71550  0.56280  Biso   1.000  H
  H149     1.0000 0.78450  0.93720  0.62230  Biso   1.000  H
  H150     1.0000 0.78450  0.87770  0.43720  Biso   1.000  H
  H151     1.0000 0.78450  0.06280  0.37770  Biso   1.000  H
  H152     1.0000 0.56280  0.12230  0.21550  Biso   1.000  H
  H153     1.0000 0.21550  0.12230  0.43720  Biso   1.000  H
  H154     1.0000 0.43720  0.12230  0.78450  Biso   1.000  H
  H155     1.0000 0.56280  0.28450  0.62230  Biso   1.000  H
  H156     1.0000 0.62230  0.06280  0.78450  Biso   1.000  H
  H157     1.0000 0.37770  0.93720  0.78450  Biso   1.000  H
  H158     1.0000 0.56280  0.71550  0.37770  Biso   1.000  H
  H159     1.0000 0.37770  0.06280  0.21550  Biso   1.000  H
  H160     1.0000 0.43720  0.71550  0.62230  Biso   1.000  H
  H161     1.0000 0.43720  0.28450  0.37770  Biso   1.000  H
  H162     1.0000 0.62230  0.93720  0.21550  Biso   1.000  H
  H163     1.0000 0.62230  0.28450  0.43720  Biso   1.000  H
  H164     1.0000 0.37770  0.71550  0.43720  Biso   1.000  H
  H165     1.0000 0.21550  0.06280  0.62230  Biso   1.000  H
  H166     1.0000 0.21550  0.93720  0.37770  Biso   1.000  H
  H167     1.0000 0.56280  0.87770  0.78450  Biso   1.000  H
  H168     1.0000 0.43720  0.87770  0.21550  Biso   1.000  H
  H169     1.0000 0.78450  0.62230  0.06280  Biso   1.000  H
  H170     1.0000 0.37770  0.78450  0.06280  Biso   1.000  H
  H171     1.0000 0.21550  0.37770  0.06280  Biso   1.000  H
  H172     1.0000 0.62230  0.21550  0.06280  Biso   1.000  H
  H173     1.0000 0.78450  0.43720  0.12230  Biso   1.000  H
  H174     1.0000 0.78450  0.37770  0.93720  Biso   1.000  H
  H175     1.0000 0.78450  0.56280  0.87770  Biso   1.000  H
  H176     1.0000 0.56280  0.62230  0.71550  Biso   1.000  H
  H177     1.0000 0.21550  0.62230  0.93720  Biso   1.000  H
  H178     1.0000 0.43720  0.62230  0.28450  Biso   1.000  H
  H179     1.0000 0.56280  0.78450  0.12230  Biso   1.000  H
  H180     1.0000 0.62230  0.56280  0.28450  Biso   1.000  H
  H181     1.0000 0.37770  0.43720  0.28450  Biso   1.000  H
  H182     1.0000 0.56280  0.21550  0.87770  Biso   1.000  H
  H183     1.0000 0.37770  0.56280  0.71550  Biso   1.000  H
  H184     1.0000 0.43720  0.21550  0.12230  Biso   1.000  H
  H185     1.0000 0.43720  0.78450  0.87770  Biso   1.000  H
  H186     1.0000 0.62230  0.43720  0.71550  Biso   1.000  H
  H187     1.0000 0.62230  0.78450  0.93720  Biso   1.000  H
  H188     1.0000 0.37770  0.21550  0.93720  Biso   1.000  H
  H189     1.0000 0.21550  0.56280  0.12230  Biso   1.000  H
  H190     1.0000 0.21550  0.43720  0.87770  Biso   1.000  H
  H191     1.0000 0.56280  0.37770  0.28450  Biso   1.000  H
  H192     1.0000 0.43720  0.37770  0.71550  Biso   1.000  H
  H193     1.0000 0.71550  0.87770  0.93720  Biso   1.000  H
  H194     1.0000 0.12230  0.71550  0.93720  Biso   1.000  H
  H195     1.0000 0.28450  0.12230  0.93720  Biso   1.000  H
  H196     1.0000 0.87770  0.28450  0.93720  Biso   1.000  H
  H197     1.0000 0.71550  0.06280  0.87770  Biso   1.000  H
  H198     1.0000 0.71550  0.12230  0.06280  Biso   1.000  H
  H199     1.0000 0.71550  0.93720  0.12230  Biso   1.000  H
  H200     1.0000 0.93720  0.87770  0.28450  Biso   1.000  H
  H201     1.0000 0.28450  0.87770  0.06280  Biso   1.000  H
  H202     1.0000 0.06280  0.87770  0.71550  Biso   1.000  H
  H203     1.0000 0.93720  0.71550  0.87770  Biso   1.000  H
  H204     1.0000 0.87770  0.93720  0.71550  Biso   1.000  H
  H205     1.0000 0.12230  0.06280  0.71550  Biso   1.000  H
  H206     1.0000 0.93720  0.28450  0.12230  Biso   1.000  H
  H207     1.0000 0.12230  0.93720  0.28450  Biso   1.000  H
  H208     1.0000 0.06280  0.28450  0.87770  Biso   1.000  H
  H209     1.0000 0.06280  0.71550  0.12230  Biso   1.000  H
  H210     1.0000 0.87770  0.06280  0.28450  Biso   1.000  H
  H211     1.0000 0.87770  0.71550  0.06280  Biso   1.000  H
  H212     1.0000 0.12230  0.28450  0.06280  Biso   1.000  H
  H213     1.0000 0.28450  0.93720  0.87770  Biso   1.000  H
  H214     1.0000 0.28450  0.06280  0.12230  Biso   1.000  H
  H215     1.0000 0.93720  0.12230  0.71550  Biso   1.000  H
  H216     1.0000 0.06280  0.12230  0.28450  Biso   1.000  H
  H217     1.0000 0.71550  0.37770  0.43720  Biso   1.000  H
  H218     1.0000 0.12230  0.21550  0.43720  Biso   1.000  H
  H219     1.0000 0.28450  0.62230  0.43720  Biso   1.000  H
  H220     1.0000 0.87770  0.78450  0.43720  Biso   1.000  H
  H221     1.0000 0.71550  0.56280  0.37770  Biso   1.000  H
  H222     1.0000 0.71550  0.62230  0.56280  Biso   1.000  H
  H223     1.0000 0.71550  0.43720  0.62230  Biso   1.000  H
  H224     1.0000 0.93720  0.37770  0.78450  Biso   1.000  H
  H225     1.0000 0.28450  0.37770  0.56280  Biso   1.000  H
  H226     1.0000 0.06280  0.37770  0.21550  Biso   1.000  H
  H227     1.0000 0.93720  0.21550  0.37770  Biso   1.000  H
  H228     1.0000 0.87770  0.43720  0.21550  Biso   1.000  H
  H229     1.0000 0.12230  0.56280  0.21550  Biso   1.000  H
  H230     1.0000 0.93720  0.78450  0.62230  Biso   1.000  H
  H231     1.0000 0.12230  0.43720  0.78450  Biso   1.000  H
  H232     1.0000 0.06280  0.78450  0.37770  Biso   1.000  H
  H233     1.0000 0.06280  0.21550  0.62230  Biso   1.000  H
  H234     1.0000 0.87770  0.56280  0.78450  Biso   1.000  H
  H235     1.0000 0.87770  0.21550  0.56280  Biso   1.000  H
  H236     1.0000 0.12230  0.78450  0.56280  Biso   1.000  H
  H237     1.0000 0.28450  0.43720  0.37770  Biso   1.000  H
  H238     1.0000 0.28450  0.56280  0.62230  Biso   1.000  H
  H239     1.0000 0.93720  0.62230  0.21550  Biso   1.000  H
  H240     1.0000 0.06280  0.62230  0.78450  Biso   1.000  H
  H241     1.0000 0.21550  0.87770  0.43720  Biso   1.000  H
  H242     1.0000 0.62230  0.71550  0.43720  Biso   1.000  H
  H243     1.0000 0.78450  0.12230  0.43720  Biso   1.000  H
  H244     1.0000 0.37770  0.28450  0.43720  Biso   1.000  H
  H245     1.0000 0.21550  0.06280  0.37770  Biso   1.000  H
  H246     1.0000 0.21550  0.12230  0.56280  Biso   1.000  H
  H247     1.0000 0.21550  0.93720  0.62230  Biso   1.000  H
  H248     1.0000 0.43720  0.87770  0.78450  Biso   1.000  H
  H249     1.0000 0.78450  0.87770  0.56280  Biso   1.000  H
  H250     1.0000 0.56280  0.87770  0.21550  Biso   1.000  H
  H251     1.0000 0.43720  0.71550  0.37770  Biso   1.000  H
  H252     1.0000 0.37770  0.93720  0.21550  Biso   1.000  H
  H253     1.0000 0.62230  0.06280  0.21550  Biso   1.000  H
  H254     1.0000 0.43720  0.28450  0.62230  Biso   1.000  H
  H255     1.0000 0.62230  0.93720  0.78450  Biso   1.000  H
  H256     1.0000 0.56280  0.28450  0.37770  Biso   1.000  H
  H257     1.0000 0.56280  0.71550  0.62230  Biso   1.000  H
  H258     1.0000 0.37770  0.06280  0.78450  Biso   1.000  H
  H259     1.0000 0.37770  0.71550  0.56280  Biso   1.000  H
  H260     1.0000 0.62230  0.28450  0.56280  Biso   1.000  H
  H261     1.0000 0.78450  0.93720  0.37770  Biso   1.000  H
  H262     1.0000 0.78450  0.06280  0.62230  Biso   1.000  H
  H263     1.0000 0.43720  0.12230  0.21550  Biso   1.000  H
  H264     1.0000 0.56280  0.12230  0.78450  Biso   1.000  H
  H265     1.0000 0.21550  0.37770  0.93720  Biso   1.000  H
  H266     1.0000 0.62230  0.21550  0.93720  Biso   1.000  H
  H267     1.0000 0.78450  0.62230  0.93720  Biso   1.000  H
  H268     1.0000 0.37770  0.78450  0.93720  Biso   1.000  H
  H269     1.0000 0.21550  0.56280  0.87770  Biso   1.000  H
  H270     1.0000 0.21550  0.62230  0.06280  Biso   1.000  H
  H271     1.0000 0.21550  0.43720  0.12230  Biso   1.000  H
  H272     1.0000 0.43720  0.37770  0.28450  Biso   1.000  H
  H273     1.0000 0.78450  0.37770  0.06280  Biso   1.000  H
  H274     1.0000 0.56280  0.37770  0.71550  Biso   1.000  H
  H275     1.0000 0.43720  0.21550  0.87770  Biso   1.000  H
  H276     1.0000 0.37770  0.43720  0.71550  Biso   1.000  H
  H277     1.0000 0.62230  0.56280  0.71550  Biso   1.000  H
  H278     1.0000 0.43720  0.78450  0.12230  Biso   1.000  H
  H279     1.0000 0.62230  0.43720  0.28450  Biso   1.000  H
  H280     1.0000 0.56280  0.78450  0.87770  Biso   1.000  H
  H281     1.0000 0.56280  0.21550  0.12230  Biso   1.000  H
  H282     1.0000 0.37770  0.56280  0.28450  Biso   1.000  H
  H283     1.0000 0.37770  0.21550  0.06280  Biso   1.000  H
  H284     1.0000 0.62230  0.78450  0.06280  Biso   1.000  H
  H285     1.0000 0.78450  0.43720  0.87770  Biso   1.000  H
  H286     1.0000 0.78450  0.56280  0.12230  Biso   1.000  H
  H287     1.0000 0.43720  0.62230  0.71550  Biso   1.000  H
  H288     1.0000 0.56280  0.62230  0.28450  Biso   1.000  H
  C673     1.0000 0.28050  0.09435  0.09435  Biso   1.000  C
  C674     1.0000 0.90565  0.28050  0.09435  Biso   1.000  C
  C675     1.0000 0.71950  0.90565  0.09435  Biso   1.000  C
  C676     1.0000 0.09435  0.71950  0.09435  Biso   1.000  C
  C677     1.0000 0.28050  0.90565  0.09435  Biso   1.000  C
  C678     1.0000 0.28050  0.90565  0.90565  Biso   1.000  C
  C679     1.0000 0.28050  0.09435  0.90565  Biso   1.000  C
  C680     1.0000 0.09435  0.09435  0.71950  Biso   1.000  C
  C681     1.0000 0.71950  0.09435  0.90565  Biso   1.000  C
  C682     1.0000 0.90565  0.09435  0.28050  Biso   1.000  C
  C683     1.0000 0.09435  0.28050  0.09435  Biso   1.000  C
  C684     1.0000 0.09435  0.09435  0.28050  Biso   1.000  C
  C685     1.0000 0.90565  0.90565  0.28050  Biso   1.000  C
  C686     1.0000 0.09435  0.71950  0.90565  Biso   1.000  C
  C687     1.0000 0.90565  0.09435  0.71950  Biso   1.000  C
  C688     1.0000 0.90565  0.71950  0.09435  Biso   1.000  C
  C689     1.0000 0.90565  0.28050  0.90565  Biso   1.000  C
  C690     1.0000 0.09435  0.90565  0.71950  Biso   1.000  C
  C691     1.0000 0.09435  0.28050  0.90565  Biso   1.000  C
  C692     1.0000 0.90565  0.71950  0.90565  Biso   1.000  C
  C693     1.0000 0.71950  0.09435  0.09435  Biso   1.000  C
  C694     1.0000 0.71950  0.90565  0.90565  Biso   1.000  C
  C695     1.0000 0.09435  0.90565  0.28050  Biso   1.000  C
  C696     1.0000 0.90565  0.90565  0.71950  Biso   1.000  C
  C697     1.0000 0.28050  0.59435  0.59435  Biso   1.000  C
  C698     1.0000 0.90565  0.78050  0.59435  Biso   1.000  C
  C699     1.0000 0.71950  0.40565  0.59435  Biso   1.000  C
  C700     1.0000 0.09435  0.21950  0.59435  Biso   1.000  C
  C701     1.0000 0.28050  0.40565  0.59435  Biso   1.000  C
  C702     1.0000 0.28050  0.40565  0.40565  Biso   1.000  C
  C703     1.0000 0.28050  0.59435  0.40565  Biso   1.000  C
  C704     1.0000 0.09435  0.59435  0.21950  Biso   1.000  C
  C705     1.0000 0.71950  0.59435  0.40565  Biso   1.000  C
  C706     1.0000 0.90565  0.59435  0.78050  Biso   1.000  C
  C707     1.0000 0.09435  0.78050  0.59435  Biso   1.000  C
  C708     1.0000 0.09435  0.59435  0.78050  Biso   1.000  C
  C709     1.0000 0.90565  0.40565  0.78050  Biso   1.000  C
  C710     1.0000 0.09435  0.21950  0.40565  Biso   1.000  C
  C711     1.0000 0.90565  0.59435  0.21950  Biso   1.000  C
  C712     1.0000 0.90565  0.21950  0.59435  Biso   1.000  C
  C713     1.0000 0.90565  0.78050  0.40565  Biso   1.000  C
  C714     1.0000 0.09435  0.40565  0.21950  Biso   1.000  C
  C715     1.0000 0.09435  0.78050  0.40565  Biso   1.000  C
  C716     1.0000 0.90565  0.21950  0.40565  Biso   1.000  C
  C717     1.0000 0.71950  0.59435  0.59435  Biso   1.000  C
  C718     1.0000 0.71950  0.40565  0.40565  Biso   1.000  C
  C719     1.0000 0.09435  0.40565  0.78050  Biso   1.000  C
  C720     1.0000 0.90565  0.40565  0.21950  Biso   1.000  C
  C721     1.0000 0.78050  0.09435  0.59435  Biso   1.000  C
  C722     1.0000 0.40565  0.28050  0.59435  Biso   1.000  C
  C723     1.0000 0.21950  0.90565  0.59435  Biso   1.000  C
  C724     1.0000 0.59435  0.71950  0.59435  Biso   1.000  C
  C725     1.0000 0.78050  0.90565  0.59435  Biso   1.000  C
  C726     1.0000 0.78050  0.90565  0.40565  Biso   1.000  C
  C727     1.0000 0.78050  0.09435  0.40565  Biso   1.000  C
  C728     1.0000 0.59435  0.09435  0.21950  Biso   1.000  C
  C729     1.0000 0.21950  0.09435  0.40565  Biso   1.000  C
  C730     1.0000 0.40565  0.09435  0.78050  Biso   1.000  C
  C731     1.0000 0.59435  0.28050  0.59435  Biso   1.000  C
  C732     1.0000 0.59435  0.09435  0.78050  Biso   1.000  C
  C733     1.0000 0.40565  0.90565  0.78050  Biso   1.000  C
  C734     1.0000 0.59435  0.71950  0.40565  Biso   1.000  C
  C735     1.0000 0.40565  0.09435  0.21950  Biso   1.000  C
  C736     1.0000 0.40565  0.71950  0.59435  Biso   1.000  C
  C737     1.0000 0.40565  0.28050  0.40565  Biso   1.000  C
  C738     1.0000 0.59435  0.90565  0.21950  Biso   1.000  C
  C739     1.0000 0.59435  0.28050  0.40565  Biso   1.000  C
  C740     1.0000 0.40565  0.71950  0.40565  Biso   1.000  C
  C741     1.0000 0.21950  0.09435  0.59435  Biso   1.000  C
  C742     1.0000 0.21950  0.90565  0.40565  Biso   1.000  C
  C743     1.0000 0.59435  0.90565  0.78050  Biso   1.000  C
  C744     1.0000 0.40565  0.90565  0.21950  Biso   1.000  C
  C745     1.0000 0.78050  0.59435  0.09435  Biso   1.000  C
  C746     1.0000 0.40565  0.78050  0.09435  Biso   1.000  C
  C747     1.0000 0.21950  0.40565  0.09435  Biso   1.000  C
  C748     1.0000 0.59435  0.21950  0.09435  Biso   1.000  C
  C749     1.0000 0.78050  0.40565  0.09435  Biso   1.000  C
  C750     1.0000 0.78050  0.40565  0.90565  Biso   1.000  C
  C751     1.0000 0.78050  0.59435  0.90565  Biso   1.000  C
  C752     1.0000 0.59435  0.59435  0.71950  Biso   1.000  C
  C753     1.0000 0.21950  0.59435  0.90565  Biso   1.000  C
  C754     1.0000 0.40565  0.59435  0.28050  Biso   1.000  C
  C755     1.0000 0.59435  0.78050  0.09435  Biso   1.000  C
  C756     1.0000 0.59435  0.59435  0.28050  Biso   1.000  C
  C757     1.0000 0.40565  0.40565  0.28050  Biso   1.000  C
  C758     1.0000 0.59435  0.21950  0.90565  Biso   1.000  C
  C759     1.0000 0.40565  0.59435  0.71950  Biso   1.000  C
  C760     1.0000 0.40565  0.21950  0.09435  Biso   1.000  C
  C761     1.0000 0.40565  0.78050  0.90565  Biso   1.000  C
  C762     1.0000 0.59435  0.40565  0.71950  Biso   1.000  C
  C763     1.0000 0.59435  0.78050  0.90565  Biso   1.000  C
  C764     1.0000 0.40565  0.21950  0.90565  Biso   1.000  C
  C765     1.0000 0.21950  0.59435  0.09435  Biso   1.000  C
  C766     1.0000 0.21950  0.40565  0.90565  Biso   1.000  C
  C767     1.0000 0.59435  0.40565  0.28050  Biso   1.000  C
  C768     1.0000 0.40565  0.40565  0.71950  Biso   1.000  C
  C769     1.0000 0.25180  0.10280  0.10550  Biso   1.000  C
  C770     1.0000 0.89720  0.25180  0.10550  Biso   1.000  C
  C771     1.0000 0.74820  0.89720  0.10550  Biso   1.000  C
  C772     1.0000 0.10280  0.74820  0.10550  Biso   1.000  C
  C773     1.0000 0.25180  0.89450  0.10280  Biso   1.000  C
  C774     1.0000 0.25180  0.89720  0.89450  Biso   1.000  C
  C775     1.0000 0.25180  0.10550  0.89720  Biso   1.000  C
  C776     1.0000 0.10550  0.10280  0.74820  Biso   1.000  C
  C777     1.0000 0.74820  0.10280  0.89450  Biso   1.000  C
  C778     1.0000 0.89450  0.10280  0.25180  Biso   1.000  C
  C779     1.0000 0.10550  0.25180  0.10280  Biso   1.000  C
  C780     1.0000 0.10280  0.10550  0.25180  Biso   1.000  C
  C781     1.0000 0.89720  0.89450  0.25180  Biso   1.000  C
  C782     1.0000 0.10550  0.74820  0.89720  Biso   1.000  C
  C783     1.0000 0.89720  0.10550  0.74820  Biso   1.000  C
  C784     1.0000 0.89450  0.74820  0.10280  Biso   1.000  C
  C785     1.0000 0.89450  0.25180  0.89720  Biso   1.000  C
  C786     1.0000 0.10280  0.89450  0.74820  Biso   1.000  C
  C787     1.0000 0.10280  0.25180  0.89450  Biso   1.000  C
  C788     1.0000 0.89720  0.74820  0.89450  Biso   1.000  C
  C789     1.0000 0.74820  0.10550  0.10280  Biso   1.000  C
  C790     1.0000 0.74820  0.89450  0.89720  Biso   1.000  C
  C791     1.0000 0.10550  0.89720  0.25180  Biso   1.000  C
  C792     1.0000 0.89450  0.89720  0.74820  Biso   1.000  C
  C793     1.0000 0.25180  0.60280  0.60550  Biso   1.000  C
  C794     1.0000 0.89720  0.75180  0.60550  Biso   1.000  C
  C795     1.0000 0.74820  0.39720  0.60550  Biso   1.000  C
  C796     1.0000 0.10280  0.24820  0.60550  Biso   1.000  C
  C797     1.0000 0.25180  0.39450  0.60280  Biso   1.000  C
  C798     1.0000 0.25180  0.39720  0.39450  Biso   1.000  C
  C799     1.0000 0.25180  0.60550  0.39720  Biso   1.000  C
  C800     1.0000 0.10550  0.60280  0.24820  Biso   1.000  C
  C801     1.0000 0.74820  0.60280  0.39450  Biso   1.000  C
  C802     1.0000 0.89450  0.60280  0.75180  Biso   1.000  C
  C803     1.0000 0.10550  0.75180  0.60280  Biso   1.000  C
  C804     1.0000 0.10280  0.60550  0.75180  Biso   1.000  C
  C805     1.0000 0.89720  0.39450  0.75180  Biso   1.000  C
  C806     1.0000 0.10550  0.24820  0.39720  Biso   1.000  C
  C807     1.0000 0.89720  0.60550  0.24820  Biso   1.000  C
  C808     1.0000 0.89450  0.24820  0.60280  Biso   1.000  C
  C809     1.0000 0.89450  0.75180  0.39720  Biso   1.000  C
  C810     1.0000 0.10280  0.39450  0.24820  Biso   1.000  C
  C811     1.0000 0.10280  0.75180  0.39450  Biso   1.000  C
  C812     1.0000 0.89720  0.24820  0.39450  Biso   1.000  C
  C813     1.0000 0.74820  0.60550  0.60280  Biso   1.000  C
  C814     1.0000 0.74820  0.39450  0.39720  Biso   1.000  C
  C815     1.0000 0.10550  0.39720  0.75180  Biso   1.000  C
  C816     1.0000 0.89450  0.39720  0.24820  Biso   1.000  C
  C817     1.0000 0.75180  0.10280  0.60550  Biso   1.000  C
  C818     1.0000 0.39720  0.25180  0.60550  Biso   1.000  C
  C819     1.0000 0.24820  0.89720  0.60550  Biso   1.000  C
  C820     1.0000 0.60280  0.74820  0.60550  Biso   1.000  C
  C821     1.0000 0.75180  0.89450  0.60280  Biso   1.000  C
  C822     1.0000 0.75180  0.89720  0.39450  Biso   1.000  C
  C823     1.0000 0.75180  0.10550  0.39720  Biso   1.000  C
  C824     1.0000 0.60550  0.10280  0.24820  Biso   1.000  C
  C825     1.0000 0.24820  0.10280  0.39450  Biso   1.000  C
  C826     1.0000 0.39450  0.10280  0.75180  Biso   1.000  C
  C827     1.0000 0.60550  0.25180  0.60280  Biso   1.000  C
  C828     1.0000 0.60280  0.10550  0.75180  Biso   1.000  C
  C829     1.0000 0.39720  0.89450  0.75180  Biso   1.000  C
  C830     1.0000 0.60550  0.74820  0.39720  Biso   1.000  C
  C831     1.0000 0.39720  0.10550  0.24820  Biso   1.000  C
  C832     1.0000 0.39450  0.74820  0.60280  Biso   1.000  C
  C833     1.0000 0.39450  0.25180  0.39720  Biso   1.000  C
  C834     1.0000 0.60280  0.89450  0.24820  Biso   1.000  C
  C835     1.0000 0.60280  0.25180  0.39450  Biso   1.000  C
  C836     1.0000 0.39720  0.74820  0.39450  Biso   1.000  C
  C837     1.0000 0.24820  0.10550  0.60280  Biso   1.000  C
  C838     1.0000 0.24820  0.89450  0.39720  Biso   1.000  C
  C839     1.0000 0.60550  0.89720  0.75180  Biso   1.000  C
  C840     1.0000 0.39450  0.89720  0.24820  Biso   1.000  C
  C841     1.0000 0.75180  0.60280  0.10550  Biso   1.000  C
  C842     1.0000 0.39720  0.75180  0.10550  Biso   1.000  C
  C843     1.0000 0.24820  0.39720  0.10550  Biso   1.000  C
  C844     1.0000 0.60280  0.24820  0.10550  Biso   1.000  C
  C845     1.0000 0.75180  0.39450  0.10280  Biso   1.000  C
  C846     1.0000 0.75180  0.39720  0.89450  Biso   1.000  C
  C847     1.0000 0.75180  0.60550  0.89720  Biso   1.000  C
  C848     1.0000 0.60550  0.60280  0.74820  Biso   1.000  C
  C849     1.0000 0.24820  0.60280  0.89450  Biso   1.000  C
  C850     1.0000 0.39450  0.60280  0.25180  Biso   1.000  C
  C851     1.0000 0.60550  0.75180  0.10280  Biso   1.000  C
  C852     1.0000 0.60280  0.60550  0.25180  Biso   1.000  C
  C853     1.0000 0.39720  0.39450  0.25180  Biso   1.000  C
  C854     1.0000 0.60550  0.24820  0.89720  Biso   1.000  C
  C855     1.0000 0.39720  0.60550  0.74820  Biso   1.000  C
  C856     1.0000 0.39450  0.24820  0.10280  Biso   1.000  C
  C857     1.0000 0.39450  0.75180  0.89720  Biso   1.000  C
  C858     1.0000 0.60280  0.39450  0.74820  Biso   1.000  C
  C859     1.0000 0.60280  0.75180  0.89450  Biso   1.000  C
  C860     1.0000 0.39720  0.24820  0.89450  Biso   1.000  C
  C861     1.0000 0.24820  0.60550  0.10280  Biso   1.000  C
  C862     1.0000 0.24820  0.39450  0.89720  Biso   1.000  C
  C863     1.0000 0.60550  0.39720  0.25180  Biso   1.000  C
  C864     1.0000 0.39450  0.39720  0.74820  Biso   1.000  C
  C865     1.0000 0.74820  0.89720  0.89450  Biso   1.000  C
  C866     1.0000 0.10280  0.74820  0.89450  Biso   1.000  C
  C867     1.0000 0.25180  0.10280  0.89450  Biso   1.000  C
  C868     1.0000 0.89720  0.25180  0.89450  Biso   1.000  C
  C869     1.0000 0.74820  0.10550  0.89720  Biso   1.000  C
  C870     1.0000 0.74820  0.10280  0.10550  Biso   1.000  C
  C871     1.0000 0.74820  0.89450  0.10280  Biso   1.000  C
  C872     1.0000 0.89450  0.89720  0.25180  Biso   1.000  C
  C873     1.0000 0.25180  0.89720  0.10550  Biso   1.000  C
  C874     1.0000 0.10550  0.89720  0.74820  Biso   1.000  C
  C875     1.0000 0.89450  0.74820  0.89720  Biso   1.000  C
  C876     1.0000 0.89720  0.89450  0.74820  Biso   1.000  C
  C877     1.0000 0.10280  0.10550  0.74820  Biso   1.000  C
  C878     1.0000 0.89450  0.25180  0.10280  Biso   1.000  C
  C879     1.0000 0.10280  0.89450  0.25180  Biso   1.000  C
  C880     1.0000 0.10550  0.25180  0.89720  Biso   1.000  C
  C881     1.0000 0.10550  0.74820  0.10280  Biso   1.000  C
  C882     1.0000 0.89720  0.10550  0.25180  Biso   1.000  C
  C883     1.0000 0.89720  0.74820  0.10550  Biso   1.000  C
  C884     1.0000 0.10280  0.25180  0.10550  Biso   1.000  C
  C885     1.0000 0.25180  0.89450  0.89720  Biso   1.000  C
  C886     1.0000 0.25180  0.10550  0.10280  Biso   1.000  C
  C887     1.0000 0.89450  0.10280  0.74820  Biso   1.000  C
  C888     1.0000 0.10550  0.10280  0.25180  Biso   1.000  C
  C889     1.0000 0.74820  0.39720  0.39450  Biso   1.000  C
  C890     1.0000 0.10280  0.24820  0.39450  Biso   1.000  C
  C891     1.0000 0.25180  0.60280  0.39450  Biso   1.000  C
  C892     1.0000 0.89720  0.75180  0.39450  Biso   1.000  C
  C893     1.0000 0.74820  0.60550  0.39720  Biso   1.000  C
  C894     1.0000 0.74820  0.60280  0.60550  Biso   1.000  C
  C895     1.0000 0.74820  0.39450  0.60280  Biso   1.000  C
  C896     1.0000 0.89450  0.39720  0.75180  Biso   1.000  C
  C897     1.0000 0.25180  0.39720  0.60550  Biso   1.000  C
  C898     1.0000 0.10550  0.39720  0.24820  Biso   1.000  C
  C899     1.0000 0.89450  0.24820  0.39720  Biso   1.000  C
  C900     1.0000 0.89720  0.39450  0.24820  Biso   1.000  C
  C901     1.0000 0.10280  0.60550  0.24820  Biso   1.000  C
  C902     1.0000 0.89450  0.75180  0.60280  Biso   1.000  C
  C903     1.0000 0.10280  0.39450  0.75180  Biso   1.000  C
  C904     1.0000 0.10550  0.75180  0.39720  Biso   1.000  C
  C905     1.0000 0.10550  0.24820  0.60280  Biso   1.000  C
  C906     1.0000 0.89720  0.60550  0.75180  Biso   1.000  C
  C907     1.0000 0.89720  0.24820  0.60550  Biso   1.000  C
  C908     1.0000 0.10280  0.75180  0.60550  Biso   1.000  C
  C909     1.0000 0.25180  0.39450  0.39720  Biso   1.000  C
  C910     1.0000 0.25180  0.60550  0.60280  Biso   1.000  C
  C911     1.0000 0.89450  0.60280  0.24820  Biso   1.000  C
  C912     1.0000 0.10550  0.60280  0.75180  Biso   1.000  C
  C913     1.0000 0.24820  0.89720  0.39450  Biso   1.000  C
  C914     1.0000 0.60280  0.74820  0.39450  Biso   1.000  C
  C915     1.0000 0.75180  0.10280  0.39450  Biso   1.000  C
  C916     1.0000 0.39720  0.25180  0.39450  Biso   1.000  C
  C917     1.0000 0.24820  0.10550  0.39720  Biso   1.000  C
  C918     1.0000 0.24820  0.10280  0.60550  Biso   1.000  C
  C919     1.0000 0.24820  0.89450  0.60280  Biso   1.000  C
  C920     1.0000 0.39450  0.89720  0.75180  Biso   1.000  C
  C921     1.0000 0.75180  0.89720  0.60550  Biso   1.000  C
  C922     1.0000 0.60550  0.89720  0.24820  Biso   1.000  C
  C923     1.0000 0.39450  0.74820  0.39720  Biso   1.000  C
  C924     1.0000 0.39720  0.89450  0.24820  Biso   1.000  C
  C925     1.0000 0.60280  0.10550  0.24820  Biso   1.000  C
  C926     1.0000 0.39450  0.25180  0.60280  Biso   1.000  C
  C927     1.0000 0.60280  0.89450  0.75180  Biso   1.000  C
  C928     1.0000 0.60550  0.25180  0.39720  Biso   1.000  C
  C929     1.0000 0.60550  0.74820  0.60280  Biso   1.000  C
  C930     1.0000 0.39720  0.10550  0.75180  Biso   1.000  C
  C931     1.0000 0.39720  0.74820  0.60550  Biso   1.000  C
  C932     1.0000 0.60280  0.25180  0.60550  Biso   1.000  C
  C933     1.0000 0.75180  0.89450  0.39720  Biso   1.000  C
  C934     1.0000 0.75180  0.10550  0.60280  Biso   1.000  C
  C935     1.0000 0.39450  0.10280  0.24820  Biso   1.000  C
  C936     1.0000 0.60550  0.10280  0.75180  Biso   1.000  C
  C937     1.0000 0.24820  0.39720  0.89450  Biso   1.000  C
  C938     1.0000 0.60280  0.24820  0.89450  Biso   1.000  C
  C939     1.0000 0.75180  0.60280  0.89450  Biso   1.000  C
  C940     1.0000 0.39720  0.75180  0.89450  Biso   1.000  C
  C941     1.0000 0.24820  0.60550  0.89720  Biso   1.000  C
  C942     1.0000 0.24820  0.60280  0.10550  Biso   1.000  C
  C943     1.0000 0.24820  0.39450  0.10280  Biso   1.000  C
  C944     1.0000 0.39450  0.39720  0.25180  Biso   1.000  C
  C945     1.0000 0.75180  0.39720  0.10550  Biso   1.000  C
  C946     1.0000 0.60550  0.39720  0.74820  Biso   1.000  C
  C947     1.0000 0.39450  0.24820  0.89720  Biso   1.000  C
  C948     1.0000 0.39720  0.39450  0.74820  Biso   1.000  C
  C949     1.0000 0.60280  0.60550  0.74820  Biso   1.000  C
  C950     1.0000 0.39450  0.75180  0.10280  Biso   1.000  C
  C951     1.0000 0.60280  0.39450  0.25180  Biso   1.000  C
  C952     1.0000 0.60550  0.75180  0.89720  Biso   1.000  C
  C953     1.0000 0.60550  0.24820  0.10280  Biso   1.000  C
  C954     1.0000 0.39720  0.60550  0.25180  Biso   1.000  C
  C955     1.0000 0.39720  0.24820  0.10550  Biso   1.000  C
  C956     1.0000 0.60280  0.75180  0.10550  Biso   1.000  C
  C957     1.0000 0.75180  0.39450  0.89720  Biso   1.000  C
  C958     1.0000 0.75180  0.60550  0.10280  Biso   1.000  C
  C959     1.0000 0.39450  0.60280  0.74820  Biso   1.000  C
  C960     1.0000 0.60550  0.60280  0.25180  Biso   1.000  C
  C961     1.0000 0.22670  0.09700  0.09050  Biso   1.000  C
  C962     1.0000 0.90300  0.22670  0.09050  Biso   1.000  C
  C963     1.0000 0.77330  0.90300  0.09050  Biso   1.000  C
  C964     1.0000 0.09700  0.77330  0.09050  Biso   1.000  C
  C965     1.0000 0.22670  0.90950  0.09700  Biso   1.000  C
  C966     1.0000 0.22670  0.90300  0.90950  Biso   1.000  C
  C967     1.0000 0.22670  0.09050  0.90300  Biso   1.000  C
  C968     1.0000 0.09050  0.09700  0.77330  Biso   1.000  C
  C969     1.0000 0.77330  0.09700  0.90950  Biso   1.000  C
  C970     1.0000 0.90950  0.09700  0.22670  Biso   1.000  C
  C971     1.0000 0.09050  0.22670  0.09700  Biso   1.000  C
  C972     1.0000 0.09700  0.09050  0.22670  Biso   1.000  C
  C973     1.0000 0.90300  0.90950  0.22670  Biso   1.000  C
  C974     1.0000 0.09050  0.77330  0.90300  Biso   1.000  C
  C975     1.0000 0.90300  0.09050  0.77330  Biso   1.000  C
  C976     1.0000 0.90950  0.77330  0.09700  Biso   1.000  C
  C977     1.0000 0.90950  0.22670  0.90300  Biso   1.000  C
  C978     1.0000 0.09700  0.90950  0.77330  Biso   1.000  C
  C979     1.0000 0.09700  0.22670  0.90950  Biso   1.000  C
  C980     1.0000 0.90300  0.77330  0.90950  Biso   1.000  C
  C981     1.0000 0.77330  0.09050  0.09700  Biso   1.000  C
  C982     1.0000 0.77330  0.90950  0.90300  Biso   1.000  C
  C983     1.0000 0.09050  0.90300  0.22670  Biso   1.000  C
  C984     1.0000 0.90950  0.90300  0.77330  Biso   1.000  C
  C985     1.0000 0.22670  0.59700  0.59050  Biso   1.000  C
  C986     1.0000 0.90300  0.72670  0.59050  Biso   1.000  C
  C987     1.0000 0.77330  0.40300  0.59050  Biso   1.000  C
  C988     1.0000 0.09700  0.27330  0.59050  Biso   1.000  C
  C989     1.0000 0.22670  0.40950  0.59700  Biso   1.000  C
  C990     1.0000 0.22670  0.40300  0.40950  Biso   1.000  C
  C991     1.0000 0.22670  0.59050  0.40300  Biso   1.000  C
  C992     1.0000 0.09050  0.59700  0.27330  Biso   1.000  C
  C993     1.0000 0.77330  0.59700  0.40950  Biso   1.000  C
  C994     1.0000 0.90950  0.59700  0.72670  Biso   1.000  C
  C995     1.0000 0.09050  0.72670  0.59700  Biso   1.000  C
  C996     1.0000 0.09700  0.59050  0.72670  Biso   1.000  C
  C997     1.0000 0.90300  0.40950  0.72670  Biso   1.000  C
  C998     1.0000 0.09050  0.27330  0.40300  Biso   1.000  C
  C999     1.0000 0.90300  0.59050  0.27330  Biso   1.000  C
  C1000    1.0000 0.90950  0.27330  0.59700  Biso   1.000  C
  C1001    1.0000 0.90950  0.72670  0.40300  Biso   1.000  C
  C1002    1.0000 0.09700  0.40950  0.27330  Biso   1.000  C
  C1003    1.0000 0.09700  0.72670  0.40950  Biso   1.000  C
  C1004    1.0000 0.90300  0.27330  0.40950  Biso   1.000  C
  C1005    1.0000 0.77330  0.59050  0.59700  Biso   1.000  C
  C1006    1.0000 0.77330  0.40950  0.40300  Biso   1.000  C
  C1007    1.0000 0.09050  0.40300  0.72670  Biso   1.000  C
  C1008    1.0000 0.90950  0.40300  0.27330  Biso   1.000  C
  C1009    1.0000 0.72670  0.09700  0.59050  Biso   1.000  C
  C1010    1.0000 0.40300  0.22670  0.59050  Biso   1.000  C
  C1011    1.0000 0.27330  0.90300  0.59050  Biso   1.000  C
  C1012    1.0000 0.59700  0.77330  0.59050  Biso   1.000  C
  C1013    1.0000 0.72670  0.90950  0.59700  Biso   1.000  C
  C1014    1.0000 0.72670  0.90300  0.40950  Biso   1.000  C
  C1015    1.0000 0.72670  0.09050  0.40300  Biso   1.000  C
  C1016    1.0000 0.59050  0.09700  0.27330  Biso   1.000  C
  C1017    1.0000 0.27330  0.09700  0.40950  Biso   1.000  C
  C1018    1.0000 0.40950  0.09700  0.72670  Biso   1.000  C
  C1019    1.0000 0.59050  0.22670  0.59700  Biso   1.000  C
  C1020    1.0000 0.59700  0.09050  0.72670  Biso   1.000  C
  C1021    1.0000 0.40300  0.90950  0.72670  Biso   1.000  C
  C1022    1.0000 0.59050  0.77330  0.40300  Biso   1.000  C
  C1023    1.0000 0.40300  0.09050  0.27330  Biso   1.000  C
  C1024    1.0000 0.40950  0.77330  0.59700  Biso   1.000  C
  C1025    1.0000 0.40950  0.22670  0.40300  Biso   1.000  C
  C1026    1.0000 0.59700  0.90950  0.27330  Biso   1.000  C
  C1027    1.0000 0.59700  0.22670  0.40950  Biso   1.000  C
  C1028    1.0000 0.40300  0.77330  0.40950  Biso   1.000  C
  C1029    1.0000 0.27330  0.09050  0.59700  Biso   1.000  C
  C1030    1.0000 0.27330  0.90950  0.40300  Biso   1.000  C
  C1031    1.0000 0.59050  0.90300  0.72670  Biso   1.000  C
  C1032    1.0000 0.40950  0.90300  0.27330  Biso   1.000  C
  C1033    1.0000 0.72670  0.59700  0.09050  Biso   1.000  C
  C1034    1.0000 0.40300  0.72670  0.09050  Biso   1.000  C
  C1035    1.0000 0.27330  0.40300  0.09050  Biso   1.000  C
  C1036    1.0000 0.59700  0.27330  0.09050  Biso   1.000  C
  C1037    1.0000 0.72670  0.40950  0.09700  Biso   1.000  C
  C1038    1.0000 0.72670  0.40300  0.90950  Biso   1.000  C
  C1039    1.0000 0.72670  0.59050  0.90300  Biso   1.000  C
  C1040    1.0000 0.59050  0.59700  0.77330  Biso   1.000  C
  C1041    1.0000 0.27330  0.59700  0.90950  Biso   1.000  C
  C1042    1.0000 0.40950  0.59700  0.22670  Biso   1.000  C
  C1043    1.0000 0.59050  0.72670  0.09700  Biso   1.000  C
  C1044    1.0000 0.59700  0.59050  0.22670  Biso   1.000  C
  C1045    1.0000 0.40300  0.40950  0.22670  Biso   1.000  C
  C1046    1.0000 0.59050  0.27330  0.90300  Biso   1.000  C
  C1047    1.0000 0.40300  0.59050  0.77330  Biso   1.000  C
  C1048    1.0000 0.40950  0.27330  0.09700  Biso   1.000  C
  C1049    1.0000 0.40950  0.72670  0.90300  Biso   1.000  C
  C1050    1.0000 0.59700  0.40950  0.77330  Biso   1.000  C
  C1051    1.0000 0.59700  0.72670  0.90950  Biso   1.000  C
  C1052    1.0000 0.40300  0.27330  0.90950  Biso   1.000  C
  C1053    1.0000 0.27330  0.59050  0.09700  Biso   1.000  C
  C1054    1.0000 0.27330  0.40950  0.90300  Biso   1.000  C
  C1055    1.0000 0.59050  0.40300  0.22670  Biso   1.000  C
  C1056    1.0000 0.40950  0.40300  0.77330  Biso   1.000  C
  C1057    1.0000 0.77330  0.90300  0.90950  Biso   1.000  C
  C1058    1.0000 0.09700  0.77330  0.90950  Biso   1.000  C
  C1059    1.0000 0.22670  0.09700  0.90950  Biso   1.000  C
  C1060    1.0000 0.90300  0.22670  0.90950  Biso   1.000  C
  C1061    1.0000 0.77330  0.09050  0.90300  Biso   1.000  C
  C1062    1.0000 0.77330  0.09700  0.09050  Biso   1.000  C
  C1063    1.0000 0.77330  0.90950  0.09700  Biso   1.000  C
  C1064    1.0000 0.90950  0.90300  0.22670  Biso   1.000  C
  C1065    1.0000 0.22670  0.90300  0.09050  Biso   1.000  C
  C1066    1.0000 0.09050  0.90300  0.77330  Biso   1.000  C
  C1067    1.0000 0.90950  0.77330  0.90300  Biso   1.000  C
  C1068    1.0000 0.90300  0.90950  0.77330  Biso   1.000  C
  C1069    1.0000 0.09700  0.09050  0.77330  Biso   1.000  C
  C1070    1.0000 0.90950  0.22670  0.09700  Biso   1.000  C
  C1071    1.0000 0.09700  0.90950  0.22670  Biso   1.000  C
  C1072    1.0000 0.09050  0.22670  0.90300  Biso   1.000  C
  C1073    1.0000 0.09050  0.77330  0.09700  Biso   1.000  C
  C1074    1.0000 0.90300  0.09050  0.22670  Biso   1.000  C
  C1075    1.0000 0.90300  0.77330  0.09050  Biso   1.000  C
  C1076    1.0000 0.09700  0.22670  0.09050  Biso   1.000  C
  C1077    1.0000 0.22670  0.90950  0.90300  Biso   1.000  C
  C1078    1.0000 0.22670  0.09050  0.09700  Biso   1.000  C
  C1079    1.0000 0.90950  0.09700  0.77330  Biso   1.000  C
  C1080    1.0000 0.09050  0.09700  0.22670  Biso   1.000  C
  C1081    1.0000 0.77330  0.40300  0.40950  Biso   1.000  C
  C1082    1.0000 0.09700  0.27330  0.40950  Biso   1.000  C
  C1083    1.0000 0.22670  0.59700  0.40950  Biso   1.000  C
  C1084    1.0000 0.90300  0.72670  0.40950  Biso   1.000  C
  C1085    1.0000 0.77330  0.59050  0.40300  Biso   1.000  C
  C1086    1.0000 0.77330  0.59700  0.59050  Biso   1.000  C
  C1087    1.0000 0.77330  0.40950  0.59700  Biso   1.000  C
  C1088    1.0000 0.90950  0.40300  0.72670  Biso   1.000  C
  C1089    1.0000 0.22670  0.40300  0.59050  Biso   1.000  C
  C1090    1.0000 0.09050  0.40300  0.27330  Biso   1.000  C
  C1091    1.0000 0.90950  0.27330  0.40300  Biso   1.000  C
  C1092    1.0000 0.90300  0.40950  0.27330  Biso   1.000  C
  C1093    1.0000 0.09700  0.59050  0.27330  Biso   1.000  C
  C1094    1.0000 0.90950  0.72670  0.59700  Biso   1.000  C
  C1095    1.0000 0.09700  0.40950  0.72670  Biso   1.000  C
  C1096    1.0000 0.09050  0.72670  0.40300  Biso   1.000  C
  C1097    1.0000 0.09050  0.27330  0.59700  Biso   1.000  C
  C1098    1.0000 0.90300  0.59050  0.72670  Biso   1.000  C
  C1099    1.0000 0.90300  0.27330  0.59050  Biso   1.000  C
  C1100    1.0000 0.09700  0.72670  0.59050  Biso   1.000  C
  C1101    1.0000 0.22670  0.40950  0.40300  Biso   1.000  C
  C1102    1.0000 0.22670  0.59050  0.59700  Biso   1.000  C
  C1103    1.0000 0.90950  0.59700  0.27330  Biso   1.000  C
  C1104    1.0000 0.09050  0.59700  0.72670  Biso   1.000  C
  C1105    1.0000 0.27330  0.90300  0.40950  Biso   1.000  C
  C1106    1.0000 0.59700  0.77330  0.40950  Biso   1.000  C
  C1107    1.0000 0.72670  0.09700  0.40950  Biso   1.000  C
  C1108    1.0000 0.40300  0.22670  0.40950  Biso   1.000  C
  C1109    1.0000 0.27330  0.09050  0.40300  Biso   1.000  C
  C1110    1.0000 0.27330  0.09700  0.59050  Biso   1.000  C
  C1111    1.0000 0.27330  0.90950  0.59700  Biso   1.000  C
  C1112    1.0000 0.40950  0.90300  0.72670  Biso   1.000  C
  C1113    1.0000 0.72670  0.90300  0.59050  Biso   1.000  C
  C1114    1.0000 0.59050  0.90300  0.27330  Biso   1.000  C
  C1115    1.0000 0.40950  0.77330  0.40300  Biso   1.000  C
  C1116    1.0000 0.40300  0.90950  0.27330  Biso   1.000  C
  C1117    1.0000 0.59700  0.09050  0.27330  Biso   1.000  C
  C1118    1.0000 0.40950  0.22670  0.59700  Biso   1.000  C
  C1119    1.0000 0.59700  0.90950  0.72670  Biso   1.000  C
  C1120    1.0000 0.59050  0.22670  0.40300  Biso   1.000  C
  C1121    1.0000 0.59050  0.77330  0.59700  Biso   1.000  C
  C1122    1.0000 0.40300  0.09050  0.72670  Biso   1.000  C
  C1123    1.0000 0.40300  0.77330  0.59050  Biso   1.000  C
  C1124    1.0000 0.59700  0.22670  0.59050  Biso   1.000  C
  C1125    1.0000 0.72670  0.90950  0.40300  Biso   1.000  C
  C1126    1.0000 0.72670  0.09050  0.59700  Biso   1.000  C
  C1127    1.0000 0.40950  0.09700  0.27330  Biso   1.000  C
  C1128    1.0000 0.59050  0.09700  0.72670  Biso   1.000  C
  C1129    1.0000 0.27330  0.40300  0.90950  Biso   1.000  C
  C1130    1.0000 0.59700  0.27330  0.90950  Biso   1.000  C
  C1131    1.0000 0.72670  0.59700  0.90950  Biso   1.000  C
  C1132    1.0000 0.40300  0.72670  0.90950  Biso   1.000  C
  C1133    1.0000 0.27330  0.59050  0.90300  Biso   1.000  C
  C1134    1.0000 0.27330  0.59700  0.09050  Biso   1.000  C
  C1135    1.0000 0.27330  0.40950  0.09700  Biso   1.000  C
  C1136    1.0000 0.40950  0.40300  0.22670  Biso   1.000  C
  C1137    1.0000 0.72670  0.40300  0.09050  Biso   1.000  C
  C1138    1.0000 0.59050  0.40300  0.77330  Biso   1.000  C
  C1139    1.0000 0.40950  0.27330  0.90300  Biso   1.000  C
  C1140    1.0000 0.40300  0.40950  0.77330  Biso   1.000  C
  C1141    1.0000 0.59700  0.59050  0.77330  Biso   1.000  C
  C1142    1.0000 0.40950  0.72670  0.09700  Biso   1.000  C
  C1143    1.0000 0.59700  0.40950  0.22670  Biso   1.000  C
  C1144    1.0000 0.59050  0.72670  0.90300  Biso   1.000  C
  C1145    1.0000 0.59050  0.27330  0.09700  Biso   1.000  C
  C1146    1.0000 0.40300  0.59050  0.22670  Biso   1.000  C
  C1147    1.0000 0.40300  0.27330  0.09050  Biso   1.000  C
  C1148    1.0000 0.59700  0.72670  0.09050  Biso   1.000  C
  C1149    1.0000 0.72670  0.40950  0.90300  Biso   1.000  C
  C1150    1.0000 0.72670  0.59050  0.09700  Biso   1.000  C
  C1151    1.0000 0.40950  0.59700  0.77330  Biso   1.000  C
  C1152    1.0000 0.59050  0.59700  0.22670  Biso   1.000  C
  C1153    1.0000 0.22780  0.07860  0.06630  Biso   1.000  C
  C1154    1.0000 0.92140  0.22780  0.06630  Biso   1.000  C
  C1155    1.0000 0.77220  0.92140  0.06630  Biso   1.000  C
  C1156    1.0000 0.07860  0.77220  0.06630  Biso   1.000  C
  C1157    1.0000 0.22780  0.93370  0.07860  Biso   1.000  C
  C1158    1.0000 0.22780  0.92140  0.93370  Biso   1.000  C
  C1159    1.0000 0.22780  0.06630  0.92140  Biso   1.000  C
  C1160    1.0000 0.06630  0.07860  0.77220  Biso   1.000  C
  C1161    1.0000 0.77220  0.07860  0.93370  Biso   1.000  C
  C1162    1.0000 0.93370  0.07860  0.22780  Biso   1.000  C
  C1163    1.0000 0.06630  0.22780  0.07860  Biso   1.000  C
  C1164    1.0000 0.07860  0.06630  0.22780  Biso   1.000  C
  C1165    1.0000 0.92140  0.93370  0.22780  Biso   1.000  C
  C1166    1.0000 0.06630  0.77220  0.92140  Biso   1.000  C
  C1167    1.0000 0.92140  0.06630  0.77220  Biso   1.000  C
  C1168    1.0000 0.93370  0.77220  0.07860  Biso   1.000  C
  C1169    1.0000 0.93370  0.22780  0.92140  Biso   1.000  C
  C1170    1.0000 0.07860  0.93370  0.77220  Biso   1.000  C
  C1171    1.0000 0.07860  0.22780  0.93370  Biso   1.000  C
  C1172    1.0000 0.92140  0.77220  0.93370  Biso   1.000  C
  C1173    1.0000 0.77220  0.06630  0.07860  Biso   1.000  C
  C1174    1.0000 0.77220  0.93370  0.92140  Biso   1.000  C
  C1175    1.0000 0.06630  0.92140  0.22780  Biso   1.000  C
  C1176    1.0000 0.93370  0.92140  0.77220  Biso   1.000  C
  C1177    1.0000 0.22780  0.57860  0.56630  Biso   1.000  C
  C1178    1.0000 0.92140  0.72780  0.56630  Biso   1.000  C
  C1179    1.0000 0.77220  0.42140  0.56630  Biso   1.000  C
  C1180    1.0000 0.07860  0.27220  0.56630  Biso   1.000  C
  C1181    1.0000 0.22780  0.43370  0.57860  Biso   1.000  C
  C1182    1.0000 0.22780  0.42140  0.43370  Biso   1.000  C
  C1183    1.0000 0.22780  0.56630  0.42140  Biso   1.000  C
  C1184    1.0000 0.06630  0.57860  0.27220  Biso   1.000  C
  C1185    1.0000 0.77220  0.57860  0.43370  Biso   1.000  C
  C1186    1.0000 0.93370  0.57860  0.72780  Biso   1.000  C
  C1187    1.0000 0.06630  0.72780  0.57860  Biso   1.000  C
  C1188    1.0000 0.07860  0.56630  0.72780  Biso   1.000  C
  C1189    1.0000 0.92140  0.43370  0.72780  Biso   1.000  C
  C1190    1.0000 0.06630  0.27220  0.42140  Biso   1.000  C
  C1191    1.0000 0.92140  0.56630  0.27220  Biso   1.000  C
  C1192    1.0000 0.93370  0.27220  0.57860  Biso   1.000  C
  C1193    1.0000 0.93370  0.72780  0.42140  Biso   1.000  C
  C1194    1.0000 0.07860  0.43370  0.27220  Biso   1.000  C
  C1195    1.0000 0.07860  0.72780  0.43370  Biso   1.000  C
  C1196    1.0000 0.92140  0.27220  0.43370  Biso   1.000  C
  C1197    1.0000 0.77220  0.56630  0.57860  Biso   1.000  C
  C1198    1.0000 0.77220  0.43370  0.42140  Biso   1.000  C
  C1199    1.0000 0.06630  0.42140  0.72780  Biso   1.000  C
  C1200    1.0000 0.93370  0.42140  0.27220  Biso   1.000  C
  C1201    1.0000 0.72780  0.07860  0.56630  Biso   1.000  C
  C1202    1.0000 0.42140  0.22780  0.56630  Biso   1.000  C
  C1203    1.0000 0.27220  0.92140  0.56630  Biso   1.000  C
  C1204    1.0000 0.57860  0.77220  0.56630  Biso   1.000  C
  C1205    1.0000 0.72780  0.93370  0.57860  Biso   1.000  C
  C1206    1.0000 0.72780  0.92140  0.43370  Biso   1.000  C
  C1207    1.0000 0.72780  0.06630  0.42140  Biso   1.000  C
  C1208    1.0000 0.56630  0.07860  0.27220  Biso   1.000  C
  C1209    1.0000 0.27220  0.07860  0.43370  Biso   1.000  C
  C1210    1.0000 0.43370  0.07860  0.72780  Biso   1.000  C
  C1211    1.0000 0.56630  0.22780  0.57860  Biso   1.000  C
  C1212    1.0000 0.57860  0.06630  0.72780  Biso   1.000  C
  C1213    1.0000 0.42140  0.93370  0.72780  Biso   1.000  C
  C1214    1.0000 0.56630  0.77220  0.42140  Biso   1.000  C
  C1215    1.0000 0.42140  0.06630  0.27220  Biso   1.000  C
  C1216    1.0000 0.43370  0.77220  0.57860  Biso   1.000  C
  C1217    1.0000 0.43370  0.22780  0.42140  Biso   1.000  C
  C1218    1.0000 0.57860  0.93370  0.27220  Biso   1.000  C
  C1219    1.0000 0.57860  0.22780  0.43370  Biso   1.000  C
  C1220    1.0000 0.42140  0.77220  0.43370  Biso   1.000  C
  C1221    1.0000 0.27220  0.06630  0.57860  Biso   1.000  C
  C1222    1.0000 0.27220  0.93370  0.42140  Biso   1.000  C
  C1223    1.0000 0.56630  0.92140  0.72780  Biso   1.000  C
  C1224    1.0000 0.43370  0.92140  0.27220  Biso   1.000  C
  C1225    1.0000 0.72780  0.57860  0.06630  Biso   1.000  C
  C1226    1.0000 0.42140  0.72780  0.06630  Biso   1.000  C
  C1227    1.0000 0.27220  0.42140  0.06630  Biso   1.000  C
  C1228    1.0000 0.57860  0.27220  0.06630  Biso   1.000  C
  C1229    1.0000 0.72780  0.43370  0.07860  Biso   1.000  C
  C1230    1.0000 0.72780  0.42140  0.93370  Biso   1.000  C
  C1231    1.0000 0.72780  0.56630  0.92140  Biso   1.000  C
  C1232    1.0000 0.56630  0.57860  0.77220  Biso   1.000  C
  C1233    1.0000 0.27220  0.57860  0.93370  Biso   1.000  C
  C1234    1.0000 0.43370  0.57860  0.22780  Biso   1.000  C
  C1235    1.0000 0.56630  0.72780  0.07860  Biso   1.000  C
  C1236    1.0000 0.57860  0.56630  0.22780  Biso   1.000  C
  C1237    1.0000 0.42140  0.43370  0.22780  Biso   1.000  C
  C1238    1.0000 0.56630  0.27220  0.92140  Biso   1.000  C
  C1239    1.0000 0.42140  0.56630  0.77220  Biso   1.000  C
  C1240    1.0000 0.43370  0.27220  0.07860  Biso   1.000  C
  C1241    1.0000 0.43370  0.72780  0.92140  Biso   1.000  C
  C1242    1.0000 0.57860  0.43370  0.77220  Biso   1.000  C
  C1243    1.0000 0.57860  0.72780  0.93370  Biso   1.000  C
  C1244    1.0000 0.42140  0.27220  0.93370  Biso   1.000  C
  C1245    1.0000 0.27220  0.56630  0.07860  Biso   1.000  C
  C1246    1.0000 0.27220  0.43370  0.92140  Biso   1.000  C
  C1247    1.0000 0.56630  0.42140  0.22780  Biso   1.000  C
  C1248    1.0000 0.43370  0.42140  0.77220  Biso   1.000  C
  C1249    1.0000 0.77220  0.92140  0.93370  Biso   1.000  C
  C1250    1.0000 0.07860  0.77220  0.93370  Biso   1.000  C
  C1251    1.0000 0.22780  0.07860  0.93370  Biso   1.000  C
  C1252    1.0000 0.92140  0.22780  0.93370  Biso   1.000  C
  C1253    1.0000 0.77220  0.06630  0.92140  Biso   1.000  C
  C1254    1.0000 0.77220  0.07860  0.06630  Biso   1.000  C
  C1255    1.0000 0.77220  0.93370  0.07860  Biso   1.000  C
  C1256    1.0000 0.93370  0.92140  0.22780  Biso   1.000  C
  C1257    1.0000 0.22780  0.92140  0.06630  Biso   1.000  C
  C1258    1.0000 0.06630  0.92140  0.77220  Biso   1.000  C
  C1259    1.0000 0.93370  0.77220  0.92140  Biso   1.000  C
  C1260    1.0000 0.92140  0.93370  0.77220  Biso   1.000  C
  C1261    1.0000 0.07860  0.06630  0.77220  Biso   1.000  C
  C1262    1.0000 0.93370  0.22780  0.07860  Biso   1.000  C
  C1263    1.0000 0.07860  0.93370  0.22780  Biso   1.000  C
  C1264    1.0000 0.06630  0.22780  0.92140  Biso   1.000  C
  C1265    1.0000 0.06630  0.77220  0.07860  Biso   1.000  C
  C1266    1.0000 0.92140  0.06630  0.22780  Biso   1.000  C
  C1267    1.0000 0.92140  0.77220  0.06630  Biso   1.000  C
  C1268    1.0000 0.07860  0.22780  0.06630  Biso   1.000  C
  C1269    1.0000 0.22780  0.93370  0.92140  Biso   1.000  C
  C1270    1.0000 0.22780  0.06630  0.07860  Biso   1.000  C
  C1271    1.0000 0.93370  0.07860  0.77220  Biso   1.000  C
  C1272    1.0000 0.06630  0.07860  0.22780  Biso   1.000  C
  C1273    1.0000 0.77220  0.42140  0.43370  Biso   1.000  C
  C1274    1.0000 0.07860  0.27220  0.43370  Biso   1.000  C
  C1275    1.0000 0.22780  0.57860  0.43370  Biso   1.000  C
  C1276    1.0000 0.92140  0.72780  0.43370  Biso   1.000  C
  C1277    1.0000 0.77220  0.56630  0.42140  Biso   1.000  C
  C1278    1.0000 0.77220  0.57860  0.56630  Biso   1.000  C
  C1279    1.0000 0.77220  0.43370  0.57860  Biso   1.000  C
  C1280    1.0000 0.93370  0.42140  0.72780  Biso   1.000  C
  C1281    1.0000 0.22780  0.42140  0.56630  Biso   1.000  C
  C1282    1.0000 0.06630  0.42140  0.27220  Biso   1.000  C
  C1283    1.0000 0.93370  0.27220  0.42140  Biso   1.000  C
  C1284    1.0000 0.92140  0.43370  0.27220  Biso   1.000  C
  C1285    1.0000 0.07860  0.56630  0.27220  Biso   1.000  C
  C1286    1.0000 0.93370  0.72780  0.57860  Biso   1.000  C
  C1287    1.0000 0.07860  0.43370  0.72780  Biso   1.000  C
  C1288    1.0000 0.06630  0.72780  0.42140  Biso   1.000  C
  C1289    1.0000 0.06630  0.27220  0.57860  Biso   1.000  C
  C1290    1.0000 0.92140  0.56630  0.72780  Biso   1.000  C
  C1291    1.0000 0.92140  0.27220  0.56630  Biso   1.000  C
  C1292    1.0000 0.07860  0.72780  0.56630  Biso   1.000  C
  C1293    1.0000 0.22780  0.43370  0.42140  Biso   1.000  C
  C1294    1.0000 0.22780  0.56630  0.57860  Biso   1.000  C
  C1295    1.0000 0.93370  0.57860  0.27220  Biso   1.000  C
  C1296    1.0000 0.06630  0.57860  0.72780  Biso   1.000  C
  C1297    1.0000 0.27220  0.92140  0.43370  Biso   1.000  C
  C1298    1.0000 0.57860  0.77220  0.43370  Biso   1.000  C
  C1299    1.0000 0.72780  0.07860  0.43370  Biso   1.000  C
  C1300    1.0000 0.42140  0.22780  0.43370  Biso   1.000  C
  C1301    1.0000 0.27220  0.06630  0.42140  Biso   1.000  C
  C1302    1.0000 0.27220  0.07860  0.56630  Biso   1.000  C
  C1303    1.0000 0.27220  0.93370  0.57860  Biso   1.000  C
  C1304    1.0000 0.43370  0.92140  0.72780  Biso   1.000  C
  C1305    1.0000 0.72780  0.92140  0.56630  Biso   1.000  C
  C1306    1.0000 0.56630  0.92140  0.27220  Biso   1.000  C
  C1307    1.0000 0.43370  0.77220  0.42140  Biso   1.000  C
  C1308    1.0000 0.42140  0.93370  0.27220  Biso   1.000  C
  C1309    1.0000 0.57860  0.06630  0.27220  Biso   1.000  C
  C1310    1.0000 0.43370  0.22780  0.57860  Biso   1.000  C
  C1311    1.0000 0.57860  0.93370  0.72780  Biso   1.000  C
  C1312    1.0000 0.56630  0.22780  0.42140  Biso   1.000  C
  C1313    1.0000 0.56630  0.77220  0.57860  Biso   1.000  C
  C1314    1.0000 0.42140  0.06630  0.72780  Biso   1.000  C
  C1315    1.0000 0.42140  0.77220  0.56630  Biso   1.000  C
  C1316    1.0000 0.57860  0.22780  0.56630  Biso   1.000  C
  C1317    1.0000 0.72780  0.93370  0.42140  Biso   1.000  C
  C1318    1.0000 0.72780  0.06630  0.57860  Biso   1.000  C
  C1319    1.0000 0.43370  0.07860  0.27220  Biso   1.000  C
  C1320    1.0000 0.56630  0.07860  0.72780  Biso   1.000  C
  C1321    1.0000 0.27220  0.42140  0.93370  Biso   1.000  C
  C1322    1.0000 0.57860  0.27220  0.93370  Biso   1.000  C
  C1323    1.0000 0.72780  0.57860  0.93370  Biso   1.000  C
  C1324    1.0000 0.42140  0.72780  0.93370  Biso   1.000  C
  C1325    1.0000 0.27220  0.56630  0.92140  Biso   1.000  C
  C1326    1.0000 0.27220  0.57860  0.06630  Biso   1.000  C
  C1327    1.0000 0.27220  0.43370  0.07860  Biso   1.000  C
  C1328    1.0000 0.43370  0.42140  0.22780  Biso   1.000  C
  C1329    1.0000 0.72780  0.42140  0.06630  Biso   1.000  C
  C1330    1.0000 0.56630  0.42140  0.77220  Biso   1.000  C
  C1331    1.0000 0.43370  0.27220  0.92140  Biso   1.000  C
  C1332    1.0000 0.42140  0.43370  0.77220  Biso   1.000  C
  C1333    1.0000 0.57860  0.56630  0.77220  Biso   1.000  C
  C1334    1.0000 0.43370  0.72780  0.07860  Biso   1.000  C
  C1335    1.0000 0.57860  0.43370  0.22780  Biso   1.000  C
  C1336    1.0000 0.56630  0.72780  0.92140  Biso   1.000  C
  C1337    1.0000 0.56630  0.27220  0.07860  Biso   1.000  C
  C1338    1.0000 0.42140  0.56630  0.22780  Biso   1.000  C
  C1339    1.0000 0.42140  0.27220  0.06630  Biso   1.000  C
  C1340    1.0000 0.57860  0.72780  0.06630  Biso   1.000  C
  C1341    1.0000 0.72780  0.43370  0.92140  Biso   1.000  C
  C1342    1.0000 0.72780  0.56630  0.07860  Biso   1.000  C
  C1343    1.0000 0.43370  0.57860  0.77220  Biso   1.000  C
  C1344    1.0000 0.56630  0.57860  0.22780  Biso   1.000  C
  C1345    1.0000 0.20260  0.07160  0.04980  Biso   1.000  C
  C1346    1.0000 0.92840  0.20260  0.04980  Biso   1.000  C
  C1347    1.0000 0.79740  0.92840  0.04980  Biso   1.000  C
  C1348    1.0000 0.07160  0.79740  0.04980  Biso   1.000  C
  C1349    1.0000 0.20260  0.95020  0.07160  Biso   1.000  C
  C1350    1.0000 0.20260  0.92840  0.95020  Biso   1.000  C
  C1351    1.0000 0.20260  0.04980  0.92840  Biso   1.000  C
  C1352    1.0000 0.04980  0.07160  0.79740  Biso   1.000  C
  C1353    1.0000 0.79740  0.07160  0.95020  Biso   1.000  C
  C1354    1.0000 0.95020  0.07160  0.20260  Biso   1.000  C
  C1355    1.0000 0.04980  0.20260  0.07160  Biso   1.000  C
  C1356    1.0000 0.07160  0.04980  0.20260  Biso   1.000  C
  C1357    1.0000 0.92840  0.95020  0.20260  Biso   1.000  C
  C1358    1.0000 0.04980  0.79740  0.92840  Biso   1.000  C
  C1359    1.0000 0.92840  0.04980  0.79740  Biso   1.000  C
  C1360    1.0000 0.95020  0.79740  0.07160  Biso   1.000  C
  C1361    1.0000 0.95020  0.20260  0.92840  Biso   1.000  C
  C1362    1.0000 0.07160  0.95020  0.79740  Biso   1.000  C
  C1363    1.0000 0.07160  0.20260  0.95020  Biso   1.000  C
  C1364    1.0000 0.92840  0.79740  0.95020  Biso   1.000  C
  C1365    1.0000 0.79740  0.04980  0.07160  Biso   1.000  C
  C1366    1.0000 0.79740  0.95020  0.92840  Biso   1.000  C
  C1367    1.0000 0.04980  0.92840  0.20260  Biso   1.000  C
  C1368    1.0000 0.95020  0.92840  0.79740  Biso   1.000  C
  C1369    1.0000 0.20260  0.57160  0.54980  Biso   1.000  C
  C1370    1.0000 0.92840  0.70260  0.54980  Biso   1.000  C
  C1371    1.0000 0.79740  0.42840  0.54980  Biso   1.000  C
  C1372    1.0000 0.07160  0.29740  0.54980  Biso   1.000  C
  C1373    1.0000 0.20260  0.45020  0.57160  Biso   1.000  C
  C1374    1.0000 0.20260  0.42840  0.45020  Biso   1.000  C
  C1375    1.0000 0.20260  0.54980  0.42840  Biso   1.000  C
  C1376    1.0000 0.04980  0.57160  0.29740  Biso   1.000  C
  C1377    1.0000 0.79740  0.57160  0.45020  Biso   1.000  C
  C1378    1.0000 0.95020  0.57160  0.70260  Biso   1.000  C
  C1379    1.0000 0.04980  0.70260  0.57160  Biso   1.000  C
  C1380    1.0000 0.07160  0.54980  0.70260  Biso   1.000  C
  C1381    1.0000 0.92840  0.45020  0.70260  Biso   1.000  C
  C1382    1.0000 0.04980  0.29740  0.42840  Biso   1.000  C
  C1383    1.0000 0.92840  0.54980  0.29740  Biso   1.000  C
  C1384    1.0000 0.95020  0.29740  0.57160  Biso   1.000  C
  C1385    1.0000 0.95020  0.70260  0.42840  Biso   1.000  C
  C1386    1.0000 0.07160  0.45020  0.29740  Biso   1.000  C
  C1387    1.0000 0.07160  0.70260  0.45020  Biso   1.000  C
  C1388    1.0000 0.92840  0.29740  0.45020  Biso   1.000  C
  C1389    1.0000 0.79740  0.54980  0.57160  Biso   1.000  C
  C1390    1.0000 0.79740  0.45020  0.42840  Biso   1.000  C
  C1391    1.0000 0.04980  0.42840  0.70260  Biso   1.000  C
  C1392    1.0000 0.95020  0.42840  0.29740  Biso   1.000  C
  C1393    1.0000 0.70260  0.07160  0.54980  Biso   1.000  C
  C1394    1.0000 0.42840  0.20260  0.54980  Biso   1.000  C
  C1395    1.0000 0.29740  0.92840  0.54980  Biso   1.000  C
  C1396    1.0000 0.57160  0.79740  0.54980  Biso   1.000  C
  C1397    1.0000 0.70260  0.95020  0.57160  Biso   1.000  C
  C1398    1.0000 0.70260  0.92840  0.45020  Biso   1.000  C
  C1399    1.0000 0.70260  0.04980  0.42840  Biso   1.000  C
  C1400    1.0000 0.54980  0.07160  0.29740  Biso   1.000  C
  C1401    1.0000 0.29740  0.07160  0.45020  Biso   1.000  C
  C1402    1.0000 0.45020  0.07160  0.70260  Biso   1.000  C
  C1403    1.0000 0.54980  0.20260  0.57160  Biso   1.000  C
  C1404    1.0000 0.57160  0.04980  0.70260  Biso   1.000  C
  C1405    1.0000 0.42840  0.95020  0.70260  Biso   1.000  C
  C1406    1.0000 0.54980  0.79740  0.42840  Biso   1.000  C
  C1407    1.0000 0.42840  0.04980  0.29740  Biso   1.000  C
  C1408    1.0000 0.45020  0.79740  0.57160  Biso   1.000  C
  C1409    1.0000 0.45020  0.20260  0.42840  Biso   1.000  C
  C1410    1.0000 0.57160  0.95020  0.29740  Biso   1.000  C
  C1411    1.0000 0.57160  0.20260  0.45020  Biso   1.000  C
  C1412    1.0000 0.42840  0.79740  0.45020  Biso   1.000  C
  C1413    1.0000 0.29740  0.04980  0.57160  Biso   1.000  C
  C1414    1.0000 0.29740  0.95020  0.42840  Biso   1.000  C
  C1415    1.0000 0.54980  0.92840  0.70260  Biso   1.000  C
  C1416    1.0000 0.45020  0.92840  0.29740  Biso   1.000  C
  C1417    1.0000 0.70260  0.57160  0.04980  Biso   1.000  C
  C1418    1.0000 0.42840  0.70260  0.04980  Biso   1.000  C
  C1419    1.0000 0.29740  0.42840  0.04980  Biso   1.000  C
  C1420    1.0000 0.57160  0.29740  0.04980  Biso   1.000  C
  C1421    1.0000 0.70260  0.45020  0.07160  Biso   1.000  C
  C1422    1.0000 0.70260  0.42840  0.95020  Biso   1.000  C
  C1423    1.0000 0.70260  0.54980  0.92840  Biso   1.000  C
  C1424    1.0000 0.54980  0.57160  0.79740  Biso   1.000  C
  C1425    1.0000 0.29740  0.57160  0.95020  Biso   1.000  C
  C1426    1.0000 0.45020  0.57160  0.20260  Biso   1.000  C
  C1427    1.0000 0.54980  0.70260  0.07160  Biso   1.000  C
  C1428    1.0000 0.57160  0.54980  0.20260  Biso   1.000  C
  C1429    1.0000 0.42840  0.45020  0.20260  Biso   1.000  C
  C1430    1.0000 0.54980  0.29740  0.92840  Biso   1.000  C
  C1431    1.0000 0.42840  0.54980  0.79740  Biso   1.000  C
  C1432    1.0000 0.45020  0.29740  0.07160  Biso   1.000  C
  C1433    1.0000 0.45020  0.70260  0.92840  Biso   1.000  C
  C1434    1.0000 0.57160  0.45020  0.79740  Biso   1.000  C
  C1435    1.0000 0.57160  0.70260  0.95020  Biso   1.000  C
  C1436    1.0000 0.42840  0.29740  0.95020  Biso   1.000  C
  C1437    1.0000 0.29740  0.54980  0.07160  Biso   1.000  C
  C1438    1.0000 0.29740  0.45020  0.92840  Biso   1.000  C
  C1439    1.0000 0.54980  0.42840  0.20260  Biso   1.000  C
  C1440    1.0000 0.45020  0.42840  0.79740  Biso   1.000  C
  C1441    1.0000 0.79740  0.92840  0.95020  Biso   1.000  C
  C1442    1.0000 0.07160  0.79740  0.95020  Biso   1.000  C
  C1443    1.0000 0.20260  0.07160  0.95020  Biso   1.000  C
  C1444    1.0000 0.92840  0.20260  0.95020  Biso   1.000  C
  C1445    1.0000 0.79740  0.04980  0.92840  Biso   1.000  C
  C1446    1.0000 0.79740  0.07160  0.04980  Biso   1.000  C
  C1447    1.0000 0.79740  0.95020  0.07160  Biso   1.000  C
  C1448    1.0000 0.95020  0.92840  0.20260  Biso   1.000  C
  C1449    1.0000 0.20260  0.92840  0.04980  Biso   1.000  C
  C1450    1.0000 0.04980  0.92840  0.79740  Biso   1.000  C
  C1451    1.0000 0.95020  0.79740  0.92840  Biso   1.000  C
  C1452    1.0000 0.92840  0.95020  0.79740  Biso   1.000  C
  C1453    1.0000 0.07160  0.04980  0.79740  Biso   1.000  C
  C1454    1.0000 0.95020  0.20260  0.07160  Biso   1.000  C
  C1455    1.0000 0.07160  0.95020  0.20260  Biso   1.000  C
  C1456    1.0000 0.04980  0.20260  0.92840  Biso   1.000  C
  C1457    1.0000 0.04980  0.79740  0.07160  Biso   1.000  C
  C1458    1.0000 0.92840  0.04980  0.20260  Biso   1.000  C
  C1459    1.0000 0.92840  0.79740  0.04980  Biso   1.000  C
  C1460    1.0000 0.07160  0.20260  0.04980  Biso   1.000  C
  C1461    1.0000 0.20260  0.95020  0.92840  Biso   1.000  C
  C1462    1.0000 0.20260  0.04980  0.07160  Biso   1.000  C
  C1463    1.0000 0.95020  0.07160  0.79740  Biso   1.000  C
  C1464    1.0000 0.04980  0.07160  0.20260  Biso   1.000  C
  C1465    1.0000 0.79740  0.42840  0.45020  Biso   1.000  C
  C1466    1.0000 0.07160  0.29740  0.45020  Biso   1.000  C
  C1467    1.0000 0.20260  0.57160  0.45020  Biso   1.000  C
  C1468    1.0000 0.92840  0.70260  0.45020  Biso   1.000  C
  C1469    1.0000 0.79740  0.54980  0.42840  Biso   1.000  C
  C1470    1.0000 0.79740  0.57160  0.54980  Biso   1.000  C
  C1471    1.0000 0.79740  0.45020  0.57160  Biso   1.000  C
  C1472    1.0000 0.95020  0.42840  0.70260  Biso   1.000  C
  C1473    1.0000 0.20260  0.42840  0.54980  Biso   1.000  C
  C1474    1.0000 0.04980  0.42840  0.29740  Biso   1.000  C
  C1475    1.0000 0.95020  0.29740  0.42840  Biso   1.000  C
  C1476    1.0000 0.92840  0.45020  0.29740  Biso   1.000  C
  C1477    1.0000 0.07160  0.54980  0.29740  Biso   1.000  C
  C1478    1.0000 0.95020  0.70260  0.57160  Biso   1.000  C
  C1479    1.0000 0.07160  0.45020  0.70260  Biso   1.000  C
  C1480    1.0000 0.04980  0.70260  0.42840  Biso   1.000  C
  C1481    1.0000 0.04980  0.29740  0.57160  Biso   1.000  C
  C1482    1.0000 0.92840  0.54980  0.70260  Biso   1.000  C
  C1483    1.0000 0.92840  0.29740  0.54980  Biso   1.000  C
  C1484    1.0000 0.07160  0.70260  0.54980  Biso   1.000  C
  C1485    1.0000 0.20260  0.45020  0.42840  Biso   1.000  C
  C1486    1.0000 0.20260  0.54980  0.57160  Biso   1.000  C
  C1487    1.0000 0.95020  0.57160  0.29740  Biso   1.000  C
  C1488    1.0000 0.04980  0.57160  0.70260  Biso   1.000  C
  C1489    1.0000 0.29740  0.92840  0.45020  Biso   1.000  C
  C1490    1.0000 0.57160  0.79740  0.45020  Biso   1.000  C
  C1491    1.0000 0.70260  0.07160  0.45020  Biso   1.000  C
  C1492    1.0000 0.42840  0.20260  0.45020  Biso   1.000  C
  C1493    1.0000 0.29740  0.04980  0.42840  Biso   1.000  C
  C1494    1.0000 0.29740  0.07160  0.54980  Biso   1.000  C
  C1495    1.0000 0.29740  0.95020  0.57160  Biso   1.000  C
  C1496    1.0000 0.45020  0.92840  0.70260  Biso   1.000  C
  C1497    1.0000 0.70260  0.92840  0.54980  Biso   1.000  C
  C1498    1.0000 0.54980  0.92840  0.29740  Biso   1.000  C
  C1499    1.0000 0.45020  0.79740  0.42840  Biso   1.000  C
  C1500    1.0000 0.42840  0.95020  0.29740  Biso   1.000  C
  C1501    1.0000 0.57160  0.04980  0.29740  Biso   1.000  C
  C1502    1.0000 0.45020  0.20260  0.57160  Biso   1.000  C
  C1503    1.0000 0.57160  0.95020  0.70260  Biso   1.000  C
  C1504    1.0000 0.54980  0.20260  0.42840  Biso   1.000  C
  C1505    1.0000 0.54980  0.79740  0.57160  Biso   1.000  C
  C1506    1.0000 0.42840  0.04980  0.70260  Biso   1.000  C
  C1507    1.0000 0.42840  0.79740  0.54980  Biso   1.000  C
  C1508    1.0000 0.57160  0.20260  0.54980  Biso   1.000  C
  C1509    1.0000 0.70260  0.95020  0.42840  Biso   1.000  C
  C1510    1.0000 0.70260  0.04980  0.57160  Biso   1.000  C
  C1511    1.0000 0.45020  0.07160  0.29740  Biso   1.000  C
  C1512    1.0000 0.54980  0.07160  0.70260  Biso   1.000  C
  C1513    1.0000 0.29740  0.42840  0.95020  Biso   1.000  C
  C1514    1.0000 0.57160  0.29740  0.95020  Biso   1.000  C
  C1515    1.0000 0.70260  0.57160  0.95020  Biso   1.000  C
  C1516    1.0000 0.42840  0.70260  0.95020  Biso   1.000  C
  C1517    1.0000 0.29740  0.54980  0.92840  Biso   1.000  C
  C1518    1.0000 0.29740  0.57160  0.04980  Biso   1.000  C
  C1519    1.0000 0.29740  0.45020  0.07160  Biso   1.000  C
  C1520    1.0000 0.45020  0.42840  0.20260  Biso   1.000  C
  C1521    1.0000 0.70260  0.42840  0.04980  Biso   1.000  C
  C1522    1.0000 0.54980  0.42840  0.79740  Biso   1.000  C
  C1523    1.0000 0.45020  0.29740  0.92840  Biso   1.000  C
  C1524    1.0000 0.42840  0.45020  0.79740  Biso   1.000  C
  C1525    1.0000 0.57160  0.54980  0.79740  Biso   1.000  C
  C1526    1.0000 0.45020  0.70260  0.07160  Biso   1.000  C
  C1527    1.0000 0.57160  0.45020  0.20260  Biso   1.000  C
  C1528    1.0000 0.54980  0.70260  0.92840  Biso   1.000  C
  C1529    1.0000 0.54980  0.29740  0.07160  Biso   1.000  C
  C1530    1.0000 0.42840  0.54980  0.20260  Biso   1.000  C
  C1531    1.0000 0.42840  0.29740  0.04980  Biso   1.000  C
  C1532    1.0000 0.57160  0.70260  0.04980  Biso   1.000  C
  C1533    1.0000 0.70260  0.45020  0.92840  Biso   1.000  C
  C1534    1.0000 0.70260  0.54980  0.07160  Biso   1.000  C
  C1535    1.0000 0.45020  0.57160  0.79740  Biso   1.000  C
  C1536    1.0000 0.54980  0.57160  0.20260  Biso   1.000  C
  H289     1.0000 0.20350  0.05960  0.03410  Biso   1.000  H
  H290     1.0000 0.94040  0.20350  0.03410  Biso   1.000  H
  H291     1.0000 0.79650  0.94040  0.03410  Biso   1.000  H
  H292     1.0000 0.05960  0.79650  0.03410  Biso   1.000  H
  H293     1.0000 0.20350  0.96590  0.05960  Biso   1.000  H
  H294     1.0000 0.20350  0.94040  0.96590  Biso   1.000  H
  H295     1.0000 0.20350  0.03410  0.94040  Biso   1.000  H
  H296     1.0000 0.03410  0.05960  0.79650  Biso   1.000  H
  H297     1.0000 0.79650  0.05960  0.96590  Biso   1.000  H
  H298     1.0000 0.96590  0.05960  0.20350  Biso   1.000  H
  H299     1.0000 0.03410  0.20350  0.05960  Biso   1.000  H
  H300     1.0000 0.05960  0.03410  0.20350  Biso   1.000  H
  H301     1.0000 0.94040  0.96590  0.20350  Biso   1.000  H
  H302     1.0000 0.03410  0.79650  0.94040  Biso   1.000  H
  H303     1.0000 0.94040  0.03410  0.79650  Biso   1.000  H
  H304     1.0000 0.96590  0.79650  0.05960  Biso   1.000  H
  H305     1.0000 0.96590  0.20350  0.94040  Biso   1.000  H
  H306     1.0000 0.05960  0.96590  0.79650  Biso   1.000  H
  H307     1.0000 0.05960  0.20350  0.96590  Biso   1.000  H
  H308     1.0000 0.94040  0.79650  0.96590  Biso   1.000  H
  H309     1.0000 0.79650  0.03410  0.05960  Biso   1.000  H
  H310     1.0000 0.79650  0.96590  0.94040  Biso   1.000  H
  H311     1.0000 0.03410  0.94040  0.20350  Biso   1.000  H
  H312     1.0000 0.96590  0.94040  0.79650  Biso   1.000  H
  H313     1.0000 0.20350  0.55960  0.53410  Biso   1.000  H
  H314     1.0000 0.94040  0.70350  0.53410  Biso   1.000  H
  H315     1.0000 0.79650  0.44040  0.53410  Biso   1.000  H
  H316     1.0000 0.05960  0.29650  0.53410  Biso   1.000  H
  H317     1.0000 0.20350  0.46590  0.55960  Biso   1.000  H
  H318     1.0000 0.20350  0.44040  0.46590  Biso   1.000  H
  H319     1.0000 0.20350  0.53410  0.44040  Biso   1.000  H
  H320     1.0000 0.03410  0.55960  0.29650  Biso   1.000  H
  H321     1.0000 0.79650  0.55960  0.46590  Biso   1.000  H
  H322     1.0000 0.96590  0.55960  0.70350  Biso   1.000  H
  H323     1.0000 0.03410  0.70350  0.55960  Biso   1.000  H
  H324     1.0000 0.05960  0.53410  0.70350  Biso   1.000  H
  H325     1.0000 0.94040  0.46590  0.70350  Biso   1.000  H
  H326     1.0000 0.03410  0.29650  0.44040  Biso   1.000  H
  H327     1.0000 0.94040  0.53410  0.29650  Biso   1.000  H
  H328     1.0000 0.96590  0.29650  0.55960  Biso   1.000  H
  H329     1.0000 0.96590  0.70350  0.44040  Biso   1.000  H
  H330     1.0000 0.05960  0.46590  0.29650  Biso   1.000  H
  H331     1.0000 0.05960  0.70350  0.46590  Biso   1.000  H
  H332     1.0000 0.94040  0.29650  0.46590  Biso   1.000  H
  H333     1.0000 0.79650  0.53410  0.55960  Biso   1.000  H
  H334     1.0000 0.79650  0.46590  0.44040  Biso   1.000  H
  H335     1.0000 0.03410  0.44040  0.70350  Biso   1.000  H
  H336     1.0000 0.96590  0.44040  0.29650  Biso   1.000  H
  H337     1.0000 0.70350  0.05960  0.53410  Biso   1.000  H
  H338     1.0000 0.44040  0.20350  0.53410  Biso   1.000  H
  H339     1.0000 0.29650  0.94040  0.53410  Biso   1.000  H
  H340     1.0000 0.55960  0.79650  0.53410  Biso   1.000  H
  H341     1.0000 0.70350  0.96590  0.55960  Biso   1.000  H
  H342     1.0000 0.70350  0.94040  0.46590  Biso   1.000  H
  H343     1.0000 0.70350  0.03410  0.44040  Biso   1.000  H
  H344     1.0000 0.53410  0.05960  0.29650  Biso   1.000  H
  H345     1.0000 0.29650  0.05960  0.46590  Biso   1.000  H
  H346     1.0000 0.46590  0.05960  0.70350  Biso   1.000  H
  H347     1.0000 0.53410  0.20350  0.55960  Biso   1.000  H
  H348     1.0000 0.55960  0.03410  0.70350  Biso   1.000  H
  H349     1.0000 0.44040  0.96590  0.70350  Biso   1.000  H
  H350     1.0000 0.53410  0.79650  0.44040  Biso   1.000  H
  H351     1.0000 0.44040  0.03410  0.29650  Biso   1.000  H
  H352     1.0000 0.46590  0.79650  0.55960  Biso   1.000  H
  H353     1.0000 0.46590  0.20350  0.44040  Biso   1.000  H
  H354     1.0000 0.55960  0.96590  0.29650  Biso   1.000  H
  H355     1.0000 0.55960  0.20350  0.46590  Biso   1.000  H
  H356     1.0000 0.44040  0.79650  0.46590  Biso   1.000  H
  H357     1.0000 0.29650  0.03410  0.55960  Biso   1.000  H
  H358     1.0000 0.29650  0.96590  0.44040  Biso   1.000  H
  H359     1.0000 0.53410  0.94040  0.70350  Biso   1.000  H
  H360     1.0000 0.46590  0.94040  0.29650  Biso   1.000  H
  H361     1.0000 0.70350  0.55960  0.03410  Biso   1.000  H
  H362     1.0000 0.44040  0.70350  0.03410  Biso   1.000  H
  H363     1.0000 0.29650  0.44040  0.03410  Biso   1.000  H
  H364     1.0000 0.55960  0.29650  0.03410  Biso   1.000  H
  H365     1.0000 0.70350  0.46590  0.05960  Biso   1.000  H
  H366     1.0000 0.70350  0.44040  0.96590  Biso   1.000  H
  H367     1.0000 0.70350  0.53410  0.94040  Biso   1.000  H
  H368     1.0000 0.53410  0.55960  0.79650  Biso   1.000  H
  H369     1.0000 0.29650  0.55960  0.96590  Biso   1.000  H
  H370     1.0000 0.46590  0.55960  0.20350  Biso   1.000  H
  H371     1.0000 0.53410  0.70350  0.05960  Biso   1.000  H
  H372     1.0000 0.55960  0.53410  0.20350  Biso   1.000  H
  H373     1.0000 0.44040  0.46590  0.20350  Biso   1.000  H
  H374     1.0000 0.53410  0.29650  0.94040  Biso   1.000  H
  H375     1.0000 0.44040  0.53410  0.79650  Biso   1.000  H
  H376     1.0000 0.46590  0.29650  0.05960  Biso   1.000  H
  H377     1.0000 0.46590  0.70350  0.94040  Biso   1.000  H
  H378     1.0000 0.55960  0.46590  0.79650  Biso   1.000  H
  H379     1.0000 0.55960  0.70350  0.96590  Biso   1.000  H
  H380     1.0000 0.44040  0.29650  0.96590  Biso   1.000  H
  H381     1.0000 0.29650  0.53410  0.05960  Biso   1.000  H
  H382     1.0000 0.29650  0.46590  0.94040  Biso   1.000  H
  H383     1.0000 0.53410  0.44040  0.20350  Biso   1.000  H
  H384     1.0000 0.46590  0.44040  0.79650  Biso   1.000  H
  H385     1.0000 0.79650  0.94040  0.96590  Biso   1.000  H
  H386     1.0000 0.05960  0.79650  0.96590  Biso   1.000  H
  H387     1.0000 0.20350  0.05960  0.96590  Biso   1.000  H
  H388     1.0000 0.94040  0.20350  0.96590  Biso   1.000  H
  H389     1.0000 0.79650  0.03410  0.94040  Biso   1.000  H
  H390     1.0000 0.79650  0.05960  0.03410  Biso   1.000  H
  H391     1.0000 0.79650  0.96590  0.05960  Biso   1.000  H
  H392     1.0000 0.96590  0.94040  0.20350  Biso   1.000  H
  H393     1.0000 0.20350  0.94040  0.03410  Biso   1.000  H
  H394     1.0000 0.03410  0.94040  0.79650  Biso   1.000  H
  H395     1.0000 0.96590  0.79650  0.94040  Biso   1.000  H
  H396     1.0000 0.94040  0.96590  0.79650  Biso   1.000  H
  H397     1.0000 0.05960  0.03410  0.79650  Biso   1.000  H
  H398     1.0000 0.96590  0.20350  0.05960  Biso   1.000  H
  H399     1.0000 0.05960  0.96590  0.20350  Biso   1.000  H
  H400     1.0000 0.03410  0.20350  0.94040  Biso   1.000  H
  H401     1.0000 0.03410  0.79650  0.05960  Biso   1.000  H
  H402     1.0000 0.94040  0.03410  0.20350  Biso   1.000  H
  H403     1.0000 0.94040  0.79650  0.03410  Biso   1.000  H
  H404     1.0000 0.05960  0.20350  0.03410  Biso   1.000  H
  H405     1.0000 0.20350  0.96590  0.94040  Biso   1.000  H
  H406     1.0000 0.20350  0.03410  0.05960  Biso   1.000  H
  H407     1.0000 0.96590  0.05960  0.79650  Biso   1.000  H
  H408     1.0000 0.03410  0.05960  0.20350  Biso   1.000  H
  H409     1.0000 0.79650  0.44040  0.46590  Biso   1.000  H
  H410     1.0000 0.05960  0.29650  0.46590  Biso   1.000  H
  H411     1.0000 0.20350  0.55960  0.46590  Biso   1.000  H
  H412     1.0000 0.94040  0.70350  0.46590  Biso   1.000  H
  H413     1.0000 0.79650  0.53410  0.44040  Biso   1.000  H
  H414     1.0000 0.79650  0.55960  0.53410  Biso   1.000  H
  H415     1.0000 0.79650  0.46590  0.55960  Biso   1.000  H
  H416     1.0000 0.96590  0.44040  0.70350  Biso   1.000  H
  H417     1.0000 0.20350  0.44040  0.53410  Biso   1.000  H
  H418     1.0000 0.03410  0.44040  0.29650  Biso   1.000  H
  H419     1.0000 0.96590  0.29650  0.44040  Biso   1.000  H
  H420     1.0000 0.94040  0.46590  0.29650  Biso   1.000  H
  H421     1.0000 0.05960  0.53410  0.29650  Biso   1.000  H
  H422     1.0000 0.96590  0.70350  0.55960  Biso   1.000  H
  H423     1.0000 0.05960  0.46590  0.70350  Biso   1.000  H
  H424     1.0000 0.03410  0.70350  0.44040  Biso   1.000  H
  H425     1.0000 0.03410  0.29650  0.55960  Biso   1.000  H
  H426     1.0000 0.94040  0.53410  0.70350  Biso   1.000  H
  H427     1.0000 0.94040  0.29650  0.53410  Biso   1.000  H
  H428     1.0000 0.05960  0.70350  0.53410  Biso   1.000  H
  H429     1.0000 0.20350  0.46590  0.44040  Biso   1.000  H
  H430     1.0000 0.20350  0.53410  0.55960  Biso   1.000  H
  H431     1.0000 0.96590  0.55960  0.29650  Biso   1.000  H
  H432     1.0000 0.03410  0.55960  0.70350  Biso   1.000  H
  H433     1.0000 0.29650  0.94040  0.46590  Biso   1.000  H
  H434     1.0000 0.55960  0.79650  0.46590  Biso   1.000  H
  H435     1.0000 0.70350  0.05960  0.46590  Biso   1.000  H
  H436     1.0000 0.44040  0.20350  0.46590  Biso   1.000  H
  H437     1.0000 0.29650  0.03410  0.44040  Biso   1.000  H
  H438     1.0000 0.29650  0.05960  0.53410  Biso   1.000  H
  H439     1.0000 0.29650  0.96590  0.55960  Biso   1.000  H
  H440     1.0000 0.46590  0.94040  0.70350  Biso   1.000  H
  H441     1.0000 0.70350  0.94040  0.53410  Biso   1.000  H
  H442     1.0000 0.53410  0.94040  0.29650  Biso   1.000  H
  H443     1.0000 0.46590  0.79650  0.44040  Biso   1.000  H
  H444     1.0000 0.44040  0.96590  0.29650  Biso   1.000  H
  H445     1.0000 0.55960  0.03410  0.29650  Biso   1.000  H
  H446     1.0000 0.46590  0.20350  0.55960  Biso   1.000  H
  H447     1.0000 0.55960  0.96590  0.70350  Biso   1.000  H
  H448     1.0000 0.53410  0.20350  0.44040  Biso   1.000  H
  H449     1.0000 0.53410  0.79650  0.55960  Biso   1.000  H
  H450     1.0000 0.44040  0.03410  0.70350  Biso   1.000  H
  H451     1.0000 0.44040  0.79650  0.53410  Biso   1.000  H
  H452     1.0000 0.55960  0.20350  0.53410  Biso   1.000  H
  H453     1.0000 0.70350  0.96590  0.44040  Biso   1.000  H
  H454     1.0000 0.70350  0.03410  0.55960  Biso   1.000  H
  H455     1.0000 0.46590  0.05960  0.29650  Biso   1.000  H
  H456     1.0000 0.53410  0.05960  0.70350  Biso   1.000  H
  H457     1.0000 0.29650  0.44040  0.96590  Biso   1.000  H
  H458     1.0000 0.55960  0.29650  0.96590  Biso   1.000  H
  H459     1.0000 0.70350  0.55960  0.96590  Biso   1.000  H
  H460     1.0000 0.44040  0.70350  0.96590  Biso   1.000  H
  H461     1.0000 0.29650  0.53410  0.94040  Biso   1.000  H
  H462     1.0000 0.29650  0.55960  0.03410  Biso   1.000  H
  H463     1.0000 0.29650  0.46590  0.05960  Biso   1.000  H
  H464     1.0000 0.46590  0.44040  0.20350  Biso   1.000  H
  H465     1.0000 0.70350  0.44040  0.03410  Biso   1.000  H
  H466     1.0000 0.53410  0.44040  0.79650  Biso   1.000  H
  H467     1.0000 0.46590  0.29650  0.94040  Biso   1.000  H
  H468     1.0000 0.44040  0.46590  0.79650  Biso   1.000  H
  H469     1.0000 0.55960  0.53410  0.79650  Biso   1.000  H
  H470     1.0000 0.46590  0.70350  0.05960  Biso   1.000  H
  H471     1.0000 0.55960  0.46590  0.20350  Biso   1.000  H
  H472     1.0000 0.53410  0.70350  0.94040  Biso   1.000  H
  H473     1.0000 0.53410  0.29650  0.05960  Biso   1.000  H
  H474     1.0000 0.44040  0.53410  0.20350  Biso   1.000  H
  H475     1.0000 0.44040  0.29650  0.03410  Biso   1.000  H
  H476     1.0000 0.55960  0.70350  0.03410  Biso   1.000  H
  H477     1.0000 0.70350  0.46590  0.94040  Biso   1.000  H
  H478     1.0000 0.70350  0.53410  0.05960  Biso   1.000  H
  H479     1.0000 0.46590  0.55960  0.79650  Biso   1.000  H
  H480     1.0000 0.53410  0.55960  0.20350  Biso   1.000  H
  C1537    1.0000 0.17540  0.08440  0.05900  Biso   1.000  C
  C1538    1.0000 0.91560  0.17540  0.05900  Biso   1.000  C
  C1539    1.0000 0.82460  0.91560  0.05900  Biso   1.000  C
  C1540    1.0000 0.08440  0.82460  0.05900  Biso   1.000  C
  C1541    1.0000 0.17540  0.94100  0.08440  Biso   1.000  C
  C1542    1.0000 0.17540  0.91560  0.94100  Biso   1.000  C
  C1543    1.0000 0.17540  0.05900  0.91560  Biso   1.000  C
  C1544    1.0000 0.05900  0.08440  0.82460  Biso   1.000  C
  C1545    1.0000 0.82460  0.08440  0.94100  Biso   1.000  C
  C1546    1.0000 0.94100  0.08440  0.17540  Biso   1.000  C
  C1547    1.0000 0.05900  0.17540  0.08440  Biso   1.000  C
  C1548    1.0000 0.08440  0.05900  0.17540  Biso   1.000  C
  C1549    1.0000 0.91560  0.94100  0.17540  Biso   1.000  C
  C1550    1.0000 0.05900  0.82460  0.91560  Biso   1.000  C
  C1551    1.0000 0.91560  0.05900  0.82460  Biso   1.000  C
  C1552    1.0000 0.94100  0.82460  0.08440  Biso   1.000  C
  C1553    1.0000 0.94100  0.17540  0.91560  Biso   1.000  C
  C1554    1.0000 0.08440  0.94100  0.82460  Biso   1.000  C
  C1555    1.0000 0.08440  0.17540  0.94100  Biso   1.000  C
  C1556    1.0000 0.91560  0.82460  0.94100  Biso   1.000  C
  C1557    1.0000 0.82460  0.05900  0.08440  Biso   1.000  C
  C1558    1.0000 0.82460  0.94100  0.91560  Biso   1.000  C
  C1559    1.0000 0.05900  0.91560  0.17540  Biso   1.000  C
  C1560    1.0000 0.94100  0.91560  0.82460  Biso   1.000  C
  C1561    1.0000 0.17540  0.58440  0.55900  Biso   1.000  C
  C1562    1.0000 0.91560  0.67540  0.55900  Biso   1.000  C
  C1563    1.0000 0.82460  0.41560  0.55900  Biso   1.000  C
  C1564    1.0000 0.08440  0.32460  0.55900  Biso   1.000  C
  C1565    1.0000 0.17540  0.44100  0.58440  Biso   1.000  C
  C1566    1.0000 0.17540  0.41560  0.44100  Biso   1.000  C
  C1567    1.0000 0.17540  0.55900  0.41560  Biso   1.000  C
  C1568    1.0000 0.05900  0.58440  0.32460  Biso   1.000  C
  C1569    1.0000 0.82460  0.58440  0.44100  Biso   1.000  C
  C1570    1.0000 0.94100  0.58440  0.67540  Biso   1.000  C
  C1571    1.0000 0.05900  0.67540  0.58440  Biso   1.000  C
  C1572    1.0000 0.08440  0.55900  0.67540  Biso   1.000  C
  C1573    1.0000 0.91560  0.44100  0.67540  Biso   1.000  C
  C1574    1.0000 0.05900  0.32460  0.41560  Biso   1.000  C
  C1575    1.0000 0.91560  0.55900  0.32460  Biso   1.000  C
  C1576    1.0000 0.94100  0.32460  0.58440  Biso   1.000  C
  C1577    1.0000 0.94100  0.67540  0.41560  Biso   1.000  C
  C1578    1.0000 0.08440  0.44100  0.32460  Biso   1.000  C
  C1579    1.0000 0.08440  0.67540  0.44100  Biso   1.000  C
  C1580    1.0000 0.91560  0.32460  0.44100  Biso   1.000  C
  C1581    1.0000 0.82460  0.55900  0.58440  Biso   1.000  C
  C1582    1.0000 0.82460  0.44100  0.41560  Biso   1.000  C
  C1583    1.0000 0.05900  0.41560  0.67540  Biso   1.000  C
  C1584    1.0000 0.94100  0.41560  0.32460  Biso   1.000  C
  C1585    1.0000 0.67540  0.08440  0.55900  Biso   1.000  C
  C1586    1.0000 0.41560  0.17540  0.55900  Biso   1.000  C
  C1587    1.0000 0.32460  0.91560  0.55900  Biso   1.000  C
  C1588    1.0000 0.58440  0.82460  0.55900  Biso   1.000  C
  C1589    1.0000 0.67540  0.94100  0.58440  Biso   1.000  C
  C1590    1.0000 0.67540  0.91560  0.44100  Biso   1.000  C
  C1591    1.0000 0.67540  0.05900  0.41560  Biso   1.000  C
  C1592    1.0000 0.55900  0.08440  0.32460  Biso   1.000  C
  C1593    1.0000 0.32460  0.08440  0.44100  Biso   1.000  C
  C1594    1.0000 0.44100  0.08440  0.67540  Biso   1.000  C
  C1595    1.0000 0.55900  0.17540  0.58440  Biso   1.000  C
  C1596    1.0000 0.58440  0.05900  0.67540  Biso   1.000  C
  C1597    1.0000 0.41560  0.94100  0.67540  Biso   1.000  C
  C1598    1.0000 0.55900  0.82460  0.41560  Biso   1.000  C
  C1599    1.0000 0.41560  0.05900  0.32460  Biso   1.000  C
  C1600    1.0000 0.44100  0.82460  0.58440  Biso   1.000  C
  C1601    1.0000 0.44100  0.17540  0.41560  Biso   1.000  C
  C1602    1.0000 0.58440  0.94100  0.32460  Biso   1.000  C
  C1603    1.0000 0.58440  0.17540  0.44100  Biso   1.000  C
  C1604    1.0000 0.41560  0.82460  0.44100  Biso   1.000  C
  C1605    1.0000 0.32460  0.05900  0.58440  Biso   1.000  C
  C1606    1.0000 0.32460  0.94100  0.41560  Biso   1.000  C
  C1607    1.0000 0.55900  0.91560  0.67540  Biso   1.000  C
  C1608    1.0000 0.44100  0.91560  0.32460  Biso   1.000  C
  C1609    1.0000 0.67540  0.58440  0.05900  Biso   1.000  C
  C1610    1.0000 0.41560  0.67540  0.05900  Biso   1.000  C
  C1611    1.0000 0.32460  0.41560  0.05900  Biso   1.000  C
  C1612    1.0000 0.58440  0.32460  0.05900  Biso   1.000  C
  C1613    1.0000 0.67540  0.44100  0.08440  Biso   1.000  C
  C1614    1.0000 0.67540  0.41560  0.94100  Biso   1.000  C
  C1615    1.0000 0.67540  0.55900  0.91560  Biso   1.000  C
  C1616    1.0000 0.55900  0.58440  0.82460  Biso   1.000  C
  C1617    1.0000 0.32460  0.58440  0.94100  Biso   1.000  C
  C1618    1.0000 0.44100  0.58440  0.17540  Biso   1.000  C
  C1619    1.0000 0.55900  0.67540  0.08440  Biso   1.000  C
  C1620    1.0000 0.58440  0.55900  0.17540  Biso   1.000  C
  C1621    1.0000 0.41560  0.44100  0.17540  Biso   1.000  C
  C1622    1.0000 0.55900  0.32460  0.91560  Biso   1.000  C
  C1623    1.0000 0.41560  0.55900  0.82460  Biso   1.000  C
  C1624    1.0000 0.44100  0.32460  0.08440  Biso   1.000  C
  C1625    1.0000 0.44100  0.67540  0.91560  Biso   1.000  C
  C1626    1.0000 0.58440  0.44100  0.82460  Biso   1.000  C
  C1627    1.0000 0.58440  0.67540  0.94100  Biso   1.000  C
  C1628    1.0000 0.41560  0.32460  0.94100  Biso   1.000  C
  C1629    1.0000 0.32460  0.55900  0.08440  Biso   1.000  C
  C1630    1.0000 0.32460  0.44100  0.91560  Biso   1.000  C
  C1631    1.0000 0.55900  0.41560  0.17540  Biso   1.000  C
  C1632    1.0000 0.44100  0.41560  0.82460  Biso   1.000  C
  C1633    1.0000 0.82460  0.91560  0.94100  Biso   1.000  C
  C1634    1.0000 0.08440  0.82460  0.94100  Biso   1.000  C
  C1635    1.0000 0.17540  0.08440  0.94100  Biso   1.000  C
  C1636    1.0000 0.91560  0.17540  0.94100  Biso   1.000  C
  C1637    1.0000 0.82460  0.05900  0.91560  Biso   1.000  C
  C1638    1.0000 0.82460  0.08440  0.05900  Biso   1.000  C
  C1639    1.0000 0.82460  0.94100  0.08440  Biso   1.000  C
  C1640    1.0000 0.94100  0.91560  0.17540  Biso   1.000  C
  C1641    1.0000 0.17540  0.91560  0.05900  Biso   1.000  C
  C1642    1.0000 0.05900  0.91560  0.82460  Biso   1.000  C
  C1643    1.0000 0.94100  0.82460  0.91560  Biso   1.000  C
  C1644    1.0000 0.91560  0.94100  0.82460  Biso   1.000  C
  C1645    1.0000 0.08440  0.05900  0.82460  Biso   1.000  C
  C1646    1.0000 0.94100  0.17540  0.08440  Biso   1.000  C
  C1647    1.0000 0.08440  0.94100  0.17540  Biso   1.000  C
  C1648    1.0000 0.05900  0.17540  0.91560  Biso   1.000  C
  C1649    1.0000 0.05900  0.82460  0.08440  Biso   1.000  C
  C1650    1.0000 0.91560  0.05900  0.17540  Biso   1.000  C
  C1651    1.0000 0.91560  0.82460  0.05900  Biso   1.000  C
  C1652    1.0000 0.08440  0.17540  0.05900  Biso   1.000  C
  C1653    1.0000 0.17540  0.94100  0.91560  Biso   1.000  C
  C1654    1.0000 0.17540  0.05900  0.08440  Biso   1.000  C
  C1655    1.0000 0.94100  0.08440  0.82460  Biso   1.000  C
  C1656    1.0000 0.05900  0.08440  0.17540  Biso   1.000  C
  C1657    1.0000 0.82460  0.41560  0.44100  Biso   1.000  C
  C1658    1.0000 0.08440  0.32460  0.44100  Biso   1.000  C
  C1659    1.0000 0.17540  0.58440  0.44100  Biso   1.000  C
  C1660    1.0000 0.91560  0.67540  0.44100  Biso   1.000  C
  C1661    1.0000 0.82460  0.55900  0.41560  Biso   1.000  C
  C1662    1.0000 0.82460  0.58440  0.55900  Biso   1.000  C
  C1663    1.0000 0.82460  0.44100  0.58440  Biso   1.000  C
  C1664    1.0000 0.94100  0.41560  0.67540  Biso   1.000  C
  C1665    1.0000 0.17540  0.41560  0.55900  Biso   1.000  C
  C1666    1.0000 0.05900  0.41560  0.32460  Biso   1.000  C
  C1667    1.0000 0.94100  0.32460  0.41560  Biso   1.000  C
  C1668    1.0000 0.91560  0.44100  0.32460  Biso   1.000  C
  C1669    1.0000 0.08440  0.55900  0.32460  Biso   1.000  C
  C1670    1.0000 0.94100  0.67540  0.58440  Biso   1.000  C
  C1671    1.0000 0.08440  0.44100  0.67540  Biso   1.000  C
  C1672    1.0000 0.05900  0.67540  0.41560  Biso   1.000  C
  C1673    1.0000 0.05900  0.32460  0.58440  Biso   1.000  C
  C1674    1.0000 0.91560  0.55900  0.67540  Biso   1.000  C
  C1675    1.0000 0.91560  0.32460  0.55900  Biso   1.000  C
  C1676    1.0000 0.08440  0.67540  0.55900  Biso   1.000  C
  C1677    1.0000 0.17540  0.44100  0.41560  Biso   1.000  C
  C1678    1.0000 0.17540  0.55900  0.58440  Biso   1.000  C
  C1679    1.0000 0.94100  0.58440  0.32460  Biso   1.000  C
  C1680    1.0000 0.05900  0.58440  0.67540  Biso   1.000  C
  C1681    1.0000 0.32460  0.91560  0.44100  Biso   1.000  C
  C1682    1.0000 0.58440  0.82460  0.44100  Biso   1.000  C
  C1683    1.0000 0.67540  0.08440  0.44100  Biso   1.000  C
  C1684    1.0000 0.41560  0.17540  0.44100  Biso   1.000  C
  C1685    1.0000 0.32460  0.05900  0.41560  Biso   1.000  C
  C1686    1.0000 0.32460  0.08440  0.55900  Biso   1.000  C
  C1687    1.0000 0.32460  0.94100  0.58440  Biso   1.000  C
  C1688    1.0000 0.44100  0.91560  0.67540  Biso   1.000  C
  C1689    1.0000 0.67540  0.91560  0.55900  Biso   1.000  C
  C1690    1.0000 0.55900  0.91560  0.32460  Biso   1.000  C
  C1691    1.0000 0.44100  0.82460  0.41560  Biso   1.000  C
  C1692    1.0000 0.41560  0.94100  0.32460  Biso   1.000  C
  C1693    1.0000 0.58440  0.05900  0.32460  Biso   1.000  C
  C1694    1.0000 0.44100  0.17540  0.58440  Biso   1.000  C
  C1695    1.0000 0.58440  0.94100  0.67540  Biso   1.000  C
  C1696    1.0000 0.55900  0.17540  0.41560  Biso   1.000  C
  C1697    1.0000 0.55900  0.82460  0.58440  Biso   1.000  C
  C1698    1.0000 0.41560  0.05900  0.67540  Biso   1.000  C
  C1699    1.0000 0.41560  0.82460  0.55900  Biso   1.000  C
  C1700    1.0000 0.58440  0.17540  0.55900  Biso   1.000  C
  C1701    1.0000 0.67540  0.94100  0.41560  Biso   1.000  C
  C1702    1.0000 0.67540  0.05900  0.58440  Biso   1.000  C
  C1703    1.0000 0.44100  0.08440  0.32460  Biso   1.000  C
  C1704    1.0000 0.55900  0.08440  0.67540  Biso   1.000  C
  C1705    1.0000 0.32460  0.41560  0.94100  Biso   1.000  C
  C1706    1.0000 0.58440  0.32460  0.94100  Biso   1.000  C
  C1707    1.0000 0.67540  0.58440  0.94100  Biso   1.000  C
  C1708    1.0000 0.41560  0.67540  0.94100  Biso   1.000  C
  C1709    1.0000 0.32460  0.55900  0.91560  Biso   1.000  C
  C1710    1.0000 0.32460  0.58440  0.05900  Biso   1.000  C
  C1711    1.0000 0.32460  0.44100  0.08440  Biso   1.000  C
  C1712    1.0000 0.44100  0.41560  0.17540  Biso   1.000  C
  C1713    1.0000 0.67540  0.41560  0.05900  Biso   1.000  C
  C1714    1.0000 0.55900  0.41560  0.82460  Biso   1.000  C
  C1715    1.0000 0.44100  0.32460  0.91560  Biso   1.000  C
  C1716    1.0000 0.41560  0.44100  0.82460  Biso   1.000  C
  C1717    1.0000 0.58440  0.55900  0.82460  Biso   1.000  C
  C1718    1.0000 0.44100  0.67540  0.08440  Biso   1.000  C
  C1719    1.0000 0.58440  0.44100  0.17540  Biso   1.000  C
  C1720    1.0000 0.55900  0.67540  0.91560  Biso   1.000  C
  C1721    1.0000 0.55900  0.32460  0.08440  Biso   1.000  C
  C1722    1.0000 0.41560  0.55900  0.17540  Biso   1.000  C
  C1723    1.0000 0.41560  0.32460  0.05900  Biso   1.000  C
  C1724    1.0000 0.58440  0.67540  0.05900  Biso   1.000  C
  C1725    1.0000 0.67540  0.44100  0.91560  Biso   1.000  C
  C1726    1.0000 0.67540  0.55900  0.08440  Biso   1.000  C
  C1727    1.0000 0.44100  0.58440  0.82460  Biso   1.000  C
  C1728    1.0000 0.55900  0.58440  0.17540  Biso   1.000  C
  H481     1.0000 0.15880  0.08030  0.04900  Biso   1.000  H
  H482     1.0000 0.91970  0.15880  0.04900  Biso   1.000  H
  H483     1.0000 0.84120  0.91970  0.04900  Biso   1.000  H
  H484     1.0000 0.08030  0.84120  0.04900  Biso   1.000  H
  H485     1.0000 0.15880  0.95100  0.08030  Biso   1.000  H
  H486     1.0000 0.15880  0.91970  0.95100  Biso   1.000  H
  H487     1.0000 0.15880  0.04900  0.91970  Biso   1.000  H
  H488     1.0000 0.04900  0.08030  0.84120  Biso   1.000  H
  H489     1.0000 0.84120  0.08030  0.95100  Biso   1.000  H
  H490     1.0000 0.95100  0.08030  0.15880  Biso   1.000  H
  H491     1.0000 0.04900  0.15880  0.08030  Biso   1.000  H
  H492     1.0000 0.08030  0.04900  0.15880  Biso   1.000  H
  H493     1.0000 0.91970  0.95100  0.15880  Biso   1.000  H
  H494     1.0000 0.04900  0.84120  0.91970  Biso   1.000  H
  H495     1.0000 0.91970  0.04900  0.84120  Biso   1.000  H
  H496     1.0000 0.95100  0.84120  0.08030  Biso   1.000  H
  H497     1.0000 0.95100  0.15880  0.91970  Biso   1.000  H
  H498     1.0000 0.08030  0.95100  0.84120  Biso   1.000  H
  H499     1.0000 0.08030  0.15880  0.95100  Biso   1.000  H
  H500     1.0000 0.91970  0.84120  0.95100  Biso   1.000  H
  H501     1.0000 0.84120  0.04900  0.08030  Biso   1.000  H
  H502     1.0000 0.84120  0.95100  0.91970  Biso   1.000  H
  H503     1.0000 0.04900  0.91970  0.15880  Biso   1.000  H
  H504     1.0000 0.95100  0.91970  0.84120  Biso   1.000  H
  H505     1.0000 0.15880  0.58030  0.54900  Biso   1.000  H
  H506     1.0000 0.91970  0.65880  0.54900  Biso   1.000  H
  H507     1.0000 0.84120  0.41970  0.54900  Biso   1.000  H
  H508     1.0000 0.08030  0.34120  0.54900  Biso   1.000  H
  H509     1.0000 0.15880  0.45100  0.58030  Biso   1.000  H
  H510     1.0000 0.15880  0.41970  0.45100  Biso   1.000  H
  H511     1.0000 0.15880  0.54900  0.41970  Biso   1.000  H
  H512     1.0000 0.04900  0.58030  0.34120  Biso   1.000  H
  H513     1.0000 0.84120  0.58030  0.45100  Biso   1.000  H
  H514     1.0000 0.95100  0.58030  0.65880  Biso   1.000  H
  H515     1.0000 0.04900  0.65880  0.58030  Biso   1.000  H
  H516     1.0000 0.08030  0.54900  0.65880  Biso   1.000  H
  H517     1.0000 0.91970  0.45100  0.65880  Biso   1.000  H
  H518     1.0000 0.04900  0.34120  0.41970  Biso   1.000  H
  H519     1.0000 0.91970  0.54900  0.34120  Biso   1.000  H
  H520     1.0000 0.95100  0.34120  0.58030  Biso   1.000  H
  H521     1.0000 0.95100  0.65880  0.41970  Biso   1.000  H
  H522     1.0000 0.08030  0.45100  0.34120  Biso   1.000  H
  H523     1.0000 0.08030  0.65880  0.45100  Biso   1.000  H
  H524     1.0000 0.91970  0.34120  0.45100  Biso   1.000  H
  H525     1.0000 0.84120  0.54900  0.58030  Biso   1.000  H
  H526     1.0000 0.84120  0.45100  0.41970  Biso   1.000  H
  H527     1.0000 0.04900  0.41970  0.65880  Biso   1.000  H
  H528     1.0000 0.95100  0.41970  0.34120  Biso   1.000  H
  H529     1.0000 0.65880  0.08030  0.54900  Biso   1.000  H
  H530     1.0000 0.41970  0.15880  0.54900  Biso   1.000  H
  H531     1.0000 0.34120  0.91970  0.54900  Biso   1.000  H
  H532     1.0000 0.58030  0.84120  0.54900  Biso   1.000  H
  H533     1.0000 0.65880  0.95100  0.58030  Biso   1.000  H
  H534     1.0000 0.65880  0.91970  0.45100  Biso   1.000  H
  H535     1.0000 0.65880  0.04900  0.41970  Biso   1.000  H
  H536     1.0000 0.54900  0.08030  0.34120  Biso   1.000  H
  H537     1.0000 0.34120  0.08030  0.45100  Biso   1.000  H
  H538     1.0000 0.45100  0.08030  0.65880  Biso   1.000  H
  H539     1.0000 0.54900  0.15880  0.58030  Biso   1.000  H
  H540     1.0000 0.58030  0.04900  0.65880  Biso   1.000  H
  H541     1.0000 0.41970  0.95100  0.65880  Biso   1.000  H
  H542     1.0000 0.54900  0.84120  0.41970  Biso   1.000  H
  H543     1.0000 0.41970  0.04900  0.34120  Biso   1.000  H
  H544     1.0000 0.45100  0.84120  0.58030  Biso   1.000  H
  H545     1.0000 0.45100  0.15880  0.41970  Biso   1.000  H
  H546     1.0000 0.58030  0.95100  0.34120  Biso   1.000  H
  H547     1.0000 0.58030  0.15880  0.45100  Biso   1.000  H
  H548     1.0000 0.41970  0.84120  0.45100  Biso   1.000  H
  H549     1.0000 0.34120  0.04900  0.58030  Biso   1.000  H
  H550     1.0000 0.34120  0.95100  0.41970  Biso   1.000  H
  H551     1.0000 0.54900  0.91970  0.65880  Biso   1.000  H
  H552     1.0000 0.45100  0.91970  0.34120  Biso   1.000  H
  H553     1.0000 0.65880  0.58030  0.04900  Biso   1.000  H
  H554     1.0000 0.41970  0.65880  0.04900  Biso   1.000  H
  H555     1.0000 0.34120  0.41970  0.04900  Biso   1.000  H
  H556     1.0000 0.58030  0.34120  0.04900  Biso   1.000  H
  H557     1.0000 0.65880  0.45100  0.08030  Biso   1.000  H
  H558     1.0000 0.65880  0.41970  0.95100  Biso   1.000  H
  H559     1.0000 0.65880  0.54900  0.91970  Biso   1.000  H
  H560     1.0000 0.54900  0.58030  0.84120  Biso   1.000  H
  H561     1.0000 0.34120  0.58030  0.95100  Biso   1.000  H
  H562     1.0000 0.45100  0.58030  0.15880  Biso   1.000  H
  H563     1.0000 0.54900  0.65880  0.08030  Biso   1.000  H
  H564     1.0000 0.58030  0.54900  0.15880  Biso   1.000  H
  H565     1.0000 0.41970  0.45100  0.15880  Biso   1.000  H
  H566     1.0000 0.54900  0.34120  0.91970  Biso   1.000  H
  H567     1.0000 0.41970  0.54900  0.84120  Biso   1.000  H
  H568     1.0000 0.45100  0.34120  0.08030  Biso   1.000  H
  H569     1.0000 0.45100  0.65880  0.91970  Biso   1.000  H
  H570     1.0000 0.58030  0.45100  0.84120  Biso   1.000  H
  H571     1.0000 0.58030  0.65880  0.95100  Biso   1.000  H
  H572     1.0000 0.41970  0.34120  0.95100  Biso   1.000  H
  H573     1.0000 0.34120  0.54900  0.08030  Biso   1.000  H
  H574     1.0000 0.34120  0.45100  0.91970  Biso   1.000  H
  H575     1.0000 0.54900  0.41970  0.15880  Biso   1.000  H
  H576     1.0000 0.45100  0.41970  0.84120  Biso   1.000  H
  H577     1.0000 0.84120  0.91970  0.95100  Biso   1.000  H
  H578     1.0000 0.08030  0.84120  0.95100  Biso   1.000  H
  H579     1.0000 0.15880  0.08030  0.95100  Biso   1.000  H
  H580     1.0000 0.91970  0.15880  0.95100  Biso   1.000  H
  H581     1.0000 0.84120  0.04900  0.91970  Biso   1.000  H
  H582     1.0000 0.84120  0.08030  0.04900  Biso   1.000  H
  H583     1.0000 0.84120  0.95100  0.08030  Biso   1.000  H
  H584     1.0000 0.95100  0.91970  0.15880  Biso   1.000  H
  H585     1.0000 0.15880  0.91970  0.04900  Biso   1.000  H
  H586     1.0000 0.04900  0.91970  0.84120  Biso   1.000  H
  H587     1.0000 0.95100  0.84120  0.91970  Biso   1.000  H
  H588     1.0000 0.91970  0.95100  0.84120  Biso   1.000  H
  H589     1.0000 0.08030  0.04900  0.84120  Biso   1.000  H
  H590     1.0000 0.95100  0.15880  0.08030  Biso   1.000  H
  H591     1.0000 0.08030  0.95100  0.15880  Biso   1.000  H
  H592     1.0000 0.04900  0.15880  0.91970  Biso   1.000  H
  H593     1.0000 0.04900  0.84120  0.08030  Biso   1.000  H
  H594     1.0000 0.91970  0.04900  0.15880  Biso   1.000  H
  H595     1.0000 0.91970  0.84120  0.04900  Biso   1.000  H
  H596     1.0000 0.08030  0.15880  0.04900  Biso   1.000  H
  H597     1.0000 0.15880  0.95100  0.91970  Biso   1.000  H
  H598     1.0000 0.15880  0.04900  0.08030  Biso   1.000  H
  H599     1.0000 0.95100  0.08030  0.84120  Biso   1.000  H
  H600     1.0000 0.04900  0.08030  0.15880  Biso   1.000  H
  H601     1.0000 0.84120  0.41970  0.45100  Biso   1.000  H
  H602     1.0000 0.08030  0.34120  0.45100  Biso   1.000  H
  H603     1.0000 0.15880  0.58030  0.45100  Biso   1.000  H
  H604     1.0000 0.91970  0.65880  0.45100  Biso   1.000  H
  H605     1.0000 0.84120  0.54900  0.41970  Biso   1.000  H
  H606     1.0000 0.84120  0.58030  0.54900  Biso   1.000  H
  H607     1.0000 0.84120  0.45100  0.58030  Biso   1.000  H
  H608     1.0000 0.95100  0.41970  0.65880  Biso   1.000  H
  H609     1.0000 0.15880  0.41970  0.54900  Biso   1.000  H
  H610     1.0000 0.04900  0.41970  0.34120  Biso   1.000  H
  H611     1.0000 0.95100  0.34120  0.41970  Biso   1.000  H
  H612     1.0000 0.91970  0.45100  0.34120  Biso   1.000  H
  H613     1.0000 0.08030  0.54900  0.34120  Biso   1.000  H
  H614     1.0000 0.95100  0.65880  0.58030  Biso   1.000  H
  H615     1.0000 0.08030  0.45100  0.65880  Biso   1.000  H
  H616     1.0000 0.04900  0.65880  0.41970  Biso   1.000  H
  H617     1.0000 0.04900  0.34120  0.58030  Biso   1.000  H
  H618     1.0000 0.91970  0.54900  0.65880  Biso   1.000  H
  H619     1.0000 0.91970  0.34120  0.54900  Biso   1.000  H
  H620     1.0000 0.08030  0.65880  0.54900  Biso   1.000  H
  H621     1.0000 0.15880  0.45100  0.41970  Biso   1.000  H
  H622     1.0000 0.15880  0.54900  0.58030  Biso   1.000  H
  H623     1.0000 0.95100  0.58030  0.34120  Biso   1.000  H
  H624     1.0000 0.04900  0.58030  0.65880  Biso   1.000  H
  H625     1.0000 0.34120  0.91970  0.45100  Biso   1.000  H
  H626     1.0000 0.58030  0.84120  0.45100  Biso   1.000  H
  H627     1.0000 0.65880  0.08030  0.45100  Biso   1.000  H
  H628     1.0000 0.41970  0.15880  0.45100  Biso   1.000  H
  H629     1.0000 0.34120  0.04900  0.41970  Biso   1.000  H
  H630     1.0000 0.34120  0.08030  0.54900  Biso   1.000  H
  H631     1.0000 0.34120  0.95100  0.58030  Biso   1.000  H
  H632     1.0000 0.45100  0.91970  0.65880  Biso   1.000  H
  H633     1.0000 0.65880  0.91970  0.54900  Biso   1.000  H
  H634     1.0000 0.54900  0.91970  0.34120  Biso   1.000  H
  H635     1.0000 0.45100  0.84120  0.41970  Biso   1.000  H
  H636     1.0000 0.41970  0.95100  0.34120  Biso   1.000  H
  H637     1.0000 0.58030  0.04900  0.34120  Biso   1.000  H
  H638     1.0000 0.45100  0.15880  0.58030  Biso   1.000  H
  H639     1.0000 0.58030  0.95100  0.65880  Biso   1.000  H
  H640     1.0000 0.54900  0.15880  0.41970  Biso   1.000  H
  H641     1.0000 0.54900  0.84120  0.58030  Biso   1.000  H
  H642     1.0000 0.41970  0.04900  0.65880  Biso   1.000  H
  H643     1.0000 0.41970  0.84120  0.54900  Biso   1.000  H
  H644     1.0000 0.58030  0.15880  0.54900  Biso   1.000  H
  H645     1.0000 0.65880  0.95100  0.41970  Biso   1.000  H
  H646     1.0000 0.65880  0.04900  0.58030  Biso   1.000  H
  H647     1.0000 0.45100  0.08030  0.34120  Biso   1.000  H
  H648     1.0000 0.54900  0.08030  0.65880  Biso   1.000  H
  H649     1.0000 0.34120  0.41970  0.95100  Biso   1.000  H
  H650     1.0000 0.58030  0.34120  0.95100  Biso   1.000  H
  H651     1.0000 0.65880  0.58030  0.95100  Biso   1.000  H
  H652     1.0000 0.41970  0.65880  0.95100  Biso   1.000  H
  H653     1.0000 0.34120  0.54900  0.91970  Biso   1.000  H
  H654     1.0000 0.34120  0.58030  0.04900  Biso   1.000  H
  H655     1.0000 0.34120  0.45100  0.08030  Biso   1.000  H
  H656     1.0000 0.45100  0.41970  0.15880  Biso   1.000  H
  H657     1.0000 0.65880  0.41970  0.04900  Biso   1.000  H
  H658     1.0000 0.54900  0.41970  0.84120  Biso   1.000  H
  H659     1.0000 0.45100  0.34120  0.91970  Biso   1.000  H
  H660     1.0000 0.41970  0.45100  0.84120  Biso   1.000  H
  H661     1.0000 0.58030  0.54900  0.84120  Biso   1.000  H
  H662     1.0000 0.45100  0.65880  0.08030  Biso   1.000  H
  H663     1.0000 0.58030  0.45100  0.15880  Biso   1.000  H
  H664     1.0000 0.54900  0.65880  0.91970  Biso   1.000  H
  H665     1.0000 0.54900  0.34120  0.08030  Biso   1.000  H
  H666     1.0000 0.41970  0.54900  0.15880  Biso   1.000  H
  H667     1.0000 0.41970  0.34120  0.04900  Biso   1.000  H
  H668     1.0000 0.58030  0.65880  0.04900  Biso   1.000  H
  H669     1.0000 0.65880  0.45100  0.91970  Biso   1.000  H
  H670     1.0000 0.65880  0.54900  0.08030  Biso   1.000  H
  H671     1.0000 0.45100  0.58030  0.84120  Biso   1.000  H
  H672     1.0000 0.54900  0.58030  0.15880  Biso   1.000  H
  C1729    1.0000 0.17430  0.10310  0.08330  Biso   1.000  C
  C1730    1.0000 0.89690  0.17430  0.08330  Biso   1.000  C
  C1731    1.0000 0.82570  0.89690  0.08330  Biso   1.000  C
  C1732    1.0000 0.10310  0.82570  0.08330  Biso   1.000  C
  C1733    1.0000 0.17430  0.91670  0.10310  Biso   1.000  C
  C1734    1.0000 0.17430  0.89690  0.91670  Biso   1.000  C
  C1735    1.0000 0.17430  0.08330  0.89690  Biso   1.000  C
  C1736    1.0000 0.08330  0.10310  0.82570  Biso   1.000  C
  C1737    1.0000 0.82570  0.10310  0.91670  Biso   1.000  C
  C1738    1.0000 0.91670  0.10310  0.17430  Biso   1.000  C
  C1739    1.0000 0.08330  0.17430  0.10310  Biso   1.000  C
  C1740    1.0000 0.10310  0.08330  0.17430  Biso   1.000  C
  C1741    1.0000 0.89690  0.91670  0.17430  Biso   1.000  C
  C1742    1.0000 0.08330  0.82570  0.89690  Biso   1.000  C
  C1743    1.0000 0.89690  0.08330  0.82570  Biso   1.000  C
  C1744    1.0000 0.91670  0.82570  0.10310  Biso   1.000  C
  C1745    1.0000 0.91670  0.17430  0.89690  Biso   1.000  C
  C1746    1.0000 0.10310  0.91670  0.82570  Biso   1.000  C
  C1747    1.0000 0.10310  0.17430  0.91670  Biso   1.000  C
  C1748    1.0000 0.89690  0.82570  0.91670  Biso   1.000  C
  C1749    1.0000 0.82570  0.08330  0.10310  Biso   1.000  C
  C1750    1.0000 0.82570  0.91670  0.89690  Biso   1.000  C
  C1751    1.0000 0.08330  0.89690  0.17430  Biso   1.000  C
  C1752    1.0000 0.91670  0.89690  0.82570  Biso   1.000  C
  C1753    1.0000 0.17430  0.60310  0.58330  Biso   1.000  C
  C1754    1.0000 0.89690  0.67430  0.58330  Biso   1.000  C
  C1755    1.0000 0.82570  0.39690  0.58330  Biso   1.000  C
  C1756    1.0000 0.10310  0.32570  0.58330  Biso   1.000  C
  C1757    1.0000 0.17430  0.41670  0.60310  Biso   1.000  C
  C1758    1.0000 0.17430  0.39690  0.41670  Biso   1.000  C
  C1759    1.0000 0.17430  0.58330  0.39690  Biso   1.000  C
  C1760    1.0000 0.08330  0.60310  0.32570  Biso   1.000  C
  C1761    1.0000 0.82570  0.60310  0.41670  Biso   1.000  C
  C1762    1.0000 0.91670  0.60310  0.67430  Biso   1.000  C
  C1763    1.0000 0.08330  0.67430  0.60310  Biso   1.000  C
  C1764    1.0000 0.10310  0.58330  0.67430  Biso   1.000  C
  C1765    1.0000 0.89690  0.41670  0.67430  Biso   1.000  C
  C1766    1.0000 0.08330  0.32570  0.39690  Biso   1.000  C
  C1767    1.0000 0.89690  0.58330  0.32570  Biso   1.000  C
  C1768    1.0000 0.91670  0.32570  0.60310  Biso   1.000  C
  C1769    1.0000 0.91670  0.67430  0.39690  Biso   1.000  C
  C1770    1.0000 0.10310  0.41670  0.32570  Biso   1.000  C
  C1771    1.0000 0.10310  0.67430  0.41670  Biso   1.000  C
  C1772    1.0000 0.89690  0.32570  0.41670  Biso   1.000  C
  C1773    1.0000 0.82570  0.58330  0.60310  Biso   1.000  C
  C1774    1.0000 0.82570  0.41670  0.39690  Biso   1.000  C
  C1775    1.0000 0.08330  0.39690  0.67430  Biso   1.000  C
  C1776    1.0000 0.91670  0.39690  0.32570  Biso   1.000  C
  C1777    1.0000 0.67430  0.10310  0.58330  Biso   1.000  C
  C1778    1.0000 0.39690  0.17430  0.58330  Biso   1.000  C
  C1779    1.0000 0.32570  0.89690  0.58330  Biso   1.000  C
  C1780    1.0000 0.60310  0.82570  0.58330  Biso   1.000  C
  C1781    1.0000 0.67430  0.91670  0.60310  Biso   1.000  C
  C1782    1.0000 0.67430  0.89690  0.41670  Biso   1.000  C
  C1783    1.0000 0.67430  0.08330  0.39690  Biso   1.000  C
  C1784    1.0000 0.58330  0.10310  0.32570  Biso   1.000  C
  C1785    1.0000 0.32570  0.10310  0.41670  Biso   1.000  C
  C1786    1.0000 0.41670  0.10310  0.67430  Biso   1.000  C
  C1787    1.0000 0.58330  0.17430  0.60310  Biso   1.000  C
  C1788    1.0000 0.60310  0.08330  0.67430  Biso   1.000  C
  C1789    1.0000 0.39690  0.91670  0.67430  Biso   1.000  C
  C1790    1.0000 0.58330  0.82570  0.39690  Biso   1.000  C
  C1791    1.0000 0.39690  0.08330  0.32570  Biso   1.000  C
  C1792    1.0000 0.41670  0.82570  0.60310  Biso   1.000  C
  C1793    1.0000 0.41670  0.17430  0.39690  Biso   1.000  C
  C1794    1.0000 0.60310  0.91670  0.32570  Biso   1.000  C
  C1795    1.0000 0.60310  0.17430  0.41670  Biso   1.000  C
  C1796    1.0000 0.39690  0.82570  0.41670  Biso   1.000  C
  C1797    1.0000 0.32570  0.08330  0.60310  Biso   1.000  C
  C1798    1.0000 0.32570  0.91670  0.39690  Biso   1.000  C
  C1799    1.0000 0.58330  0.89690  0.67430  Biso   1.000  C
  C1800    1.0000 0.41670  0.89690  0.32570  Biso   1.000  C
  C1801    1.0000 0.67430  0.60310  0.08330  Biso   1.000  C
  C1802    1.0000 0.39690  0.67430  0.08330  Biso   1.000  C
  C1803    1.0000 0.32570  0.39690  0.08330  Biso   1.000  C
  C1804    1.0000 0.60310  0.32570  0.08330  Biso   1.000  C
  C1805    1.0000 0.67430  0.41670  0.10310  Biso   1.000  C
  C1806    1.0000 0.67430  0.39690  0.91670  Biso   1.000  C
  C1807    1.0000 0.67430  0.58330  0.89690  Biso   1.000  C
  C1808    1.0000 0.58330  0.60310  0.82570  Biso   1.000  C
  C1809    1.0000 0.32570  0.60310  0.91670  Biso   1.000  C
  C1810    1.0000 0.41670  0.60310  0.17430  Biso   1.000  C
  C1811    1.0000 0.58330  0.67430  0.10310  Biso   1.000  C
  C1812    1.0000 0.60310  0.58330  0.17430  Biso   1.000  C
  C1813    1.0000 0.39690  0.41670  0.17430  Biso   1.000  C
  C1814    1.0000 0.58330  0.32570  0.89690  Biso   1.000  C
  C1815    1.0000 0.39690  0.58330  0.82570  Biso   1.000  C
  C1816    1.0000 0.41670  0.32570  0.10310  Biso   1.000  C
  C1817    1.0000 0.41670  0.67430  0.89690  Biso   1.000  C
  C1818    1.0000 0.60310  0.41670  0.82570  Biso   1.000  C
  C1819    1.0000 0.60310  0.67430  0.91670  Biso   1.000  C
  C1820    1.0000 0.39690  0.32570  0.91670  Biso   1.000  C
  C1821    1.0000 0.32570  0.58330  0.10310  Biso   1.000  C
  C1822    1.0000 0.32570  0.41670  0.89690  Biso   1.000  C
  C1823    1.0000 0.58330  0.39690  0.17430  Biso   1.000  C
  C1824    1.0000 0.41670  0.39690  0.82570  Biso   1.000  C
  C1825    1.0000 0.82570  0.89690  0.91670  Biso   1.000  C
  C1826    1.0000 0.10310  0.82570  0.91670  Biso   1.000  C
  C1827    1.0000 0.17430  0.10310  0.91670  Biso   1.000  C
  C1828    1.0000 0.89690  0.17430  0.91670  Biso   1.000  C
  C1829    1.0000 0.82570  0.08330  0.89690  Biso   1.000  C
  C1830    1.0000 0.82570  0.10310  0.08330  Biso   1.000  C
  C1831    1.0000 0.82570  0.91670  0.10310  Biso   1.000  C
  C1832    1.0000 0.91670  0.89690  0.17430  Biso   1.000  C
  C1833    1.0000 0.17430  0.89690  0.08330  Biso   1.000  C
  C1834    1.0000 0.08330  0.89690  0.82570  Biso   1.000  C
  C1835    1.0000 0.91670  0.82570  0.89690  Biso   1.000  C
  C1836    1.0000 0.89690  0.91670  0.82570  Biso   1.000  C
  C1837    1.0000 0.10310  0.08330  0.82570  Biso   1.000  C
  C1838    1.0000 0.91670  0.17430  0.10310  Biso   1.000  C
  C1839    1.0000 0.10310  0.91670  0.17430  Biso   1.000  C
  C1840    1.0000 0.08330  0.17430  0.89690  Biso   1.000  C
  C1841    1.0000 0.08330  0.82570  0.10310  Biso   1.000  C
  C1842    1.0000 0.89690  0.08330  0.17430  Biso   1.000  C
  C1843    1.0000 0.89690  0.82570  0.08330  Biso   1.000  C
  C1844    1.0000 0.10310  0.17430  0.08330  Biso   1.000  C
  C1845    1.0000 0.17430  0.91670  0.89690  Biso   1.000  C
  C1846    1.0000 0.17430  0.08330  0.10310  Biso   1.000  C
  C1847    1.0000 0.91670  0.10310  0.82570  Biso   1.000  C
  C1848    1.0000 0.08330  0.10310  0.17430  Biso   1.000  C
  C1849    1.0000 0.82570  0.39690  0.41670  Biso   1.000  C
  C1850    1.0000 0.10310  0.32570  0.41670  Biso   1.000  C
  C1851    1.0000 0.17430  0.60310  0.41670  Biso   1.000  C
  C1852    1.0000 0.89690  0.67430  0.41670  Biso   1.000  C
  C1853    1.0000 0.82570  0.58330  0.39690  Biso   1.000  C
  C1854    1.0000 0.82570  0.60310  0.58330  Biso   1.000  C
  C1855    1.0000 0.82570  0.41670  0.60310  Biso   1.000  C
  C1856    1.0000 0.91670  0.39690  0.67430  Biso   1.000  C
  C1857    1.0000 0.17430  0.39690  0.58330  Biso   1.000  C
  C1858    1.0000 0.08330  0.39690  0.32570  Biso   1.000  C
  C1859    1.0000 0.91670  0.32570  0.39690  Biso   1.000  C
  C1860    1.0000 0.89690  0.41670  0.32570  Biso   1.000  C
  C1861    1.0000 0.10310  0.58330  0.32570  Biso   1.000  C
  C1862    1.0000 0.91670  0.67430  0.60310  Biso   1.000  C
  C1863    1.0000 0.10310  0.41670  0.67430  Biso   1.000  C
  C1864    1.0000 0.08330  0.67430  0.39690  Biso   1.000  C
  C1865    1.0000 0.08330  0.32570  0.60310  Biso   1.000  C
  C1866    1.0000 0.89690  0.58330  0.67430  Biso   1.000  C
  C1867    1.0000 0.89690  0.32570  0.58330  Biso   1.000  C
  C1868    1.0000 0.10310  0.67430  0.58330  Biso   1.000  C
  C1869    1.0000 0.17430  0.41670  0.39690  Biso   1.000  C
  C1870    1.0000 0.17430  0.58330  0.60310  Biso   1.000  C
  C1871    1.0000 0.91670  0.60310  0.32570  Biso   1.000  C
  C1872    1.0000 0.08330  0.60310  0.67430  Biso   1.000  C
  C1873    1.0000 0.32570  0.89690  0.41670  Biso   1.000  C
  C1874    1.0000 0.60310  0.82570  0.41670  Biso   1.000  C
  C1875    1.0000 0.67430  0.10310  0.41670  Biso   1.000  C
  C1876    1.0000 0.39690  0.17430  0.41670  Biso   1.000  C
  C1877    1.0000 0.32570  0.08330  0.39690  Biso   1.000  C
  C1878    1.0000 0.32570  0.10310  0.58330  Biso   1.000  C
  C1879    1.0000 0.32570  0.91670  0.60310  Biso   1.000  C
  C1880    1.0000 0.41670  0.89690  0.67430  Biso   1.000  C
  C1881    1.0000 0.67430  0.89690  0.58330  Biso   1.000  C
  C1882    1.0000 0.58330  0.89690  0.32570  Biso   1.000  C
  C1883    1.0000 0.41670  0.82570  0.39690  Biso   1.000  C
  C1884    1.0000 0.39690  0.91670  0.32570  Biso   1.000  C
  C1885    1.0000 0.60310  0.08330  0.32570  Biso   1.000  C
  C1886    1.0000 0.41670  0.17430  0.60310  Biso   1.000  C
  C1887    1.0000 0.60310  0.91670  0.67430  Biso   1.000  C
  C1888    1.0000 0.58330  0.17430  0.39690  Biso   1.000  C
  C1889    1.0000 0.58330  0.82570  0.60310  Biso   1.000  C
  C1890    1.0000 0.39690  0.08330  0.67430  Biso   1.000  C
  C1891    1.0000 0.39690  0.82570  0.58330  Biso   1.000  C
  C1892    1.0000 0.60310  0.17430  0.58330  Biso   1.000  C
  C1893    1.0000 0.67430  0.91670  0.39690  Biso   1.000  C
  C1894    1.0000 0.67430  0.08330  0.60310  Biso   1.000  C
  C1895    1.0000 0.41670  0.10310  0.32570  Biso   1.000  C
  C1896    1.0000 0.58330  0.10310  0.67430  Biso   1.000  C
  C1897    1.0000 0.32570  0.39690  0.91670  Biso   1.000  C
  C1898    1.0000 0.60310  0.32570  0.91670  Biso   1.000  C
  C1899    1.0000 0.67430  0.60310  0.91670  Biso   1.000  C
  C1900    1.0000 0.39690  0.67430  0.91670  Biso   1.000  C
  C1901    1.0000 0.32570  0.58330  0.89690  Biso   1.000  C
  C1902    1.0000 0.32570  0.60310  0.08330  Biso   1.000  C
  C1903    1.0000 0.32570  0.41670  0.10310  Biso   1.000  C
  C1904    1.0000 0.41670  0.39690  0.17430  Biso   1.000  C
  C1905    1.0000 0.67430  0.39690  0.08330  Biso   1.000  C
  C1906    1.0000 0.58330  0.39690  0.82570  Biso   1.000  C
  C1907    1.0000 0.41670  0.32570  0.89690  Biso   1.000  C
  C1908    1.0000 0.39690  0.41670  0.82570  Biso   1.000  C
  C1909    1.0000 0.60310  0.58330  0.82570  Biso   1.000  C
  C1910    1.0000 0.41670  0.67430  0.10310  Biso   1.000  C
  C1911    1.0000 0.60310  0.41670  0.17430  Biso   1.000  C
  C1912    1.0000 0.58330  0.67430  0.89690  Biso   1.000  C
  C1913    1.0000 0.58330  0.32570  0.10310  Biso   1.000  C
  C1914    1.0000 0.39690  0.58330  0.17430  Biso   1.000  C
  C1915    1.0000 0.39690  0.32570  0.08330  Biso   1.000  C
  C1916    1.0000 0.60310  0.67430  0.08330  Biso   1.000  C
  C1917    1.0000 0.67430  0.41670  0.89690  Biso   1.000  C
  C1918    1.0000 0.67430  0.58330  0.10310  Biso   1.000  C
  C1919    1.0000 0.41670  0.60310  0.82570  Biso   1.000  C
  C1920    1.0000 0.58330  0.60310  0.17430  Biso   1.000  C
  H673     1.0000 0.15690  0.11110  0.08850  Biso   1.000  H
  H674     1.0000 0.88890  0.15690  0.08850  Biso   1.000  H
  H675     1.0000 0.84310  0.88890  0.08850  Biso   1.000  H
  H676     1.0000 0.11110  0.84310  0.08850  Biso   1.000  H
  H677     1.0000 0.15690  0.91150  0.11110  Biso   1.000  H
  H678     1.0000 0.15690  0.88890  0.91150  Biso   1.000  H
  H679     1.0000 0.15690  0.08850  0.88890  Biso   1.000  H
  H680     1.0000 0.08850  0.11110  0.84310  Biso   1.000  H
  H681     1.0000 0.84310  0.11110  0.91150  Biso   1.000  H
  H682     1.0000 0.91150  0.11110  0.15690  Biso   1.000  H
  H683     1.0000 0.08850  0.15690  0.11110  Biso   1.000  H
  H684     1.0000 0.11110  0.08850  0.15690  Biso   1.000  H
  H685     1.0000 0.88890  0.91150  0.15690  Biso   1.000  H
  H686     1.0000 0.08850  0.84310  0.88890  Biso   1.000  H
  H687     1.0000 0.88890  0.08850  0.84310  Biso   1.000  H
  H688     1.0000 0.91150  0.84310  0.11110  Biso   1.000  H
  H689     1.0000 0.91150  0.15690  0.88890  Biso   1.000  H
  H690     1.0000 0.11110  0.91150  0.84310  Biso   1.000  H
  H691     1.0000 0.11110  0.15690  0.91150  Biso   1.000  H
  H692     1.0000 0.88890  0.84310  0.91150  Biso   1.000  H
  H693     1.0000 0.84310  0.08850  0.11110  Biso   1.000  H
  H694     1.0000 0.84310  0.91150  0.88890  Biso   1.000  H
  H695     1.0000 0.08850  0.88890  0.15690  Biso   1.000  H
  H696     1.0000 0.91150  0.88890  0.84310  Biso   1.000  H
  H697     1.0000 0.15690  0.61110  0.58850  Biso   1.000  H
  H698     1.0000 0.88890  0.65690  0.58850  Biso   1.000  H
  H699     1.0000 0.84310  0.38890  0.58850  Biso   1.000  H
  H700     1.0000 0.11110  0.34310  0.58850  Biso   1.000  H
  H701     1.0000 0.15690  0.41150  0.61110  Biso   1.000  H
  H702     1.0000 0.15690  0.38890  0.41150  Biso   1.000  H
  H703     1.0000 0.15690  0.58850  0.38890  Biso   1.000  H
  H704     1.0000 0.08850  0.61110  0.34310  Biso   1.000  H
  H705     1.0000 0.84310  0.61110  0.41150  Biso   1.000  H
  H706     1.0000 0.91150  0.61110  0.65690  Biso   1.000  H
  H707     1.0000 0.08850  0.65690  0.61110  Biso   1.000  H
  H708     1.0000 0.11110  0.58850  0.65690  Biso   1.000  H
  H709     1.0000 0.88890  0.41150  0.65690  Biso   1.000  H
  H710     1.0000 0.08850  0.34310  0.38890  Biso   1.000  H
  H711     1.0000 0.88890  0.58850  0.34310  Biso   1.000  H
  H712     1.0000 0.91150  0.34310  0.61110  Biso   1.000  H
  H713     1.0000 0.91150  0.65690  0.38890  Biso   1.000  H
  H714     1.0000 0.11110  0.41150  0.34310  Biso   1.000  H
  H715     1.0000 0.11110  0.65690  0.41150  Biso   1.000  H
  H716     1.0000 0.88890  0.34310  0.41150  Biso   1.000  H
  H717     1.0000 0.84310  0.58850  0.61110  Biso   1.000  H
  H718     1.0000 0.84310  0.41150  0.38890  Biso   1.000  H
  H719     1.0000 0.08850  0.38890  0.65690  Biso   1.000  H
  H720     1.0000 0.91150  0.38890  0.34310  Biso   1.000  H
  H721     1.0000 0.65690  0.11110  0.58850  Biso   1.000  H
  H722     1.0000 0.38890  0.15690  0.58850  Biso   1.000  H
  H723     1.0000 0.34310  0.88890  0.58850  Biso   1.000  H
  H724     1.0000 0.61110  0.84310  0.58850  Biso   1.000  H
  H725     1.0000 0.65690  0.91150  0.61110  Biso   1.000  H
  H726     1.0000 0.65690  0.88890  0.41150  Biso   1.000  H
  H727     1.0000 0.65690  0.08850  0.38890  Biso   1.000  H
  H728     1.0000 0.58850  0.11110  0.34310  Biso   1.000  H
  H729     1.0000 0.34310  0.11110  0.41150  Biso   1.000  H
  H730     1.0000 0.41150  0.11110  0.65690  Biso   1.000  H
  H731     1.0000 0.58850  0.15690  0.61110  Biso   1.000  H
  H732     1.0000 0.61110  0.08850  0.65690  Biso   1.000  H
  H733     1.0000 0.38890  0.91150  0.65690  Biso   1.000  H
  H734     1.0000 0.58850  0.84310  0.38890  Biso   1.000  H
  H735     1.0000 0.38890  0.08850  0.34310  Biso   1.000  H
  H736     1.0000 0.41150  0.84310  0.61110  Biso   1.000  H
  H737     1.0000 0.41150  0.15690  0.38890  Biso   1.000  H
  H738     1.0000 0.61110  0.91150  0.34310  Biso   1.000  H
  H739     1.0000 0.61110  0.15690  0.41150  Biso   1.000  H
  H740     1.0000 0.38890  0.84310  0.41150  Biso   1.000  H
  H741     1.0000 0.34310  0.08850  0.61110  Biso   1.000  H
  H742     1.0000 0.34310  0.91150  0.38890  Biso   1.000  H
  H743     1.0000 0.58850  0.88890  0.65690  Biso   1.000  H
  H744     1.0000 0.41150  0.88890  0.34310  Biso   1.000  H
  H745     1.0000 0.65690  0.61110  0.08850  Biso   1.000  H
  H746     1.0000 0.38890  0.65690  0.08850  Biso   1.000  H
  H747     1.0000 0.34310  0.38890  0.08850  Biso   1.000  H
  H748     1.0000 0.61110  0.34310  0.08850  Biso   1.000  H
  H749     1.0000 0.65690  0.41150  0.11110  Biso   1.000  H
  H750     1.0000 0.65690  0.38890  0.91150  Biso   1.000  H
  H751     1.0000 0.65690  0.58850  0.88890  Biso   1.000  H
  H752     1.0000 0.58850  0.61110  0.84310  Biso   1.000  H
  H753     1.0000 0.34310  0.61110  0.91150  Biso   1.000  H
  H754     1.0000 0.41150  0.61110  0.15690  Biso   1.000  H
  H755     1.0000 0.58850  0.65690  0.11110  Biso   1.000  H
  H756     1.0000 0.61110  0.58850  0.15690  Biso   1.000  H
  H757     1.0000 0.38890  0.41150  0.15690  Biso   1.000  H
  H758     1.0000 0.58850  0.34310  0.88890  Biso   1.000  H
  H759     1.0000 0.38890  0.58850  0.84310  Biso   1.000  H
  H760     1.0000 0.41150  0.34310  0.11110  Biso   1.000  H
  H761     1.0000 0.41150  0.65690  0.88890  Biso   1.000  H
  H762     1.0000 0.61110  0.41150  0.84310  Biso   1.000  H
  H763     1.0000 0.61110  0.65690  0.91150  Biso   1.000  H
  H764     1.0000 0.38890  0.34310  0.91150  Biso   1.000  H
  H765     1.0000 0.34310  0.58850  0.11110  Biso   1.000  H
  H766     1.0000 0.34310  0.41150  0.88890  Biso   1.000  H
  H767     1.0000 0.58850  0.38890  0.15690  Biso   1.000  H
  H768     1.0000 0.41150  0.38890  0.84310  Biso   1.000  H
  H769     1.0000 0.84310  0.88890  0.91150  Biso   1.000  H
  H770     1.0000 0.11110  0.84310  0.91150  Biso   1.000  H
  H771     1.0000 0.15690  0.11110  0.91150  Biso   1.000  H
  H772     1.0000 0.88890  0.15690  0.91150  Biso   1.000  H
  H773     1.0000 0.84310  0.08850  0.88890  Biso   1.000  H
  H774     1.0000 0.84310  0.11110  0.08850  Biso   1.000  H
  H775     1.0000 0.84310  0.91150  0.11110  Biso   1.000  H
  H776     1.0000 0.91150  0.88890  0.15690  Biso   1.000  H
  H777     1.0000 0.15690  0.88890  0.08850  Biso   1.000  H
  H778     1.0000 0.08850  0.88890  0.84310  Biso   1.000  H
  H779     1.0000 0.91150  0.84310  0.88890  Biso   1.000  H
  H780     1.0000 0.88890  0.91150  0.84310  Biso   1.000  H
  H781     1.0000 0.11110  0.08850  0.84310  Biso   1.000  H
  H782     1.0000 0.91150  0.15690  0.11110  Biso   1.000  H
  H783     1.0000 0.11110  0.91150  0.15690  Biso   1.000  H
  H784     1.0000 0.08850  0.15690  0.88890  Biso   1.000  H
  H785     1.0000 0.08850  0.84310  0.11110  Biso   1.000  H
  H786     1.0000 0.88890  0.08850  0.15690  Biso   1.000  H
  H787     1.0000 0.88890  0.84310  0.08850  Biso   1.000  H
  H788     1.0000 0.11110  0.15690  0.08850  Biso   1.000  H
  H789     1.0000 0.15690  0.91150  0.88890  Biso   1.000  H
  H790     1.0000 0.15690  0.08850  0.11110  Biso   1.000  H
  H791     1.0000 0.91150  0.11110  0.84310  Biso   1.000  H
  H792     1.0000 0.08850  0.11110  0.15690  Biso   1.000  H
  H793     1.0000 0.84310  0.38890  0.41150  Biso   1.000  H
  H794     1.0000 0.11110  0.34310  0.41150  Biso   1.000  H
  H795     1.0000 0.15690  0.61110  0.41150  Biso   1.000  H
  H796     1.0000 0.88890  0.65690  0.41150  Biso   1.000  H
  H797     1.0000 0.84310  0.58850  0.38890  Biso   1.000  H
  H798     1.0000 0.84310  0.61110  0.58850  Biso   1.000  H
  H799     1.0000 0.84310  0.41150  0.61110  Biso   1.000  H
  H800     1.0000 0.91150  0.38890  0.65690  Biso   1.000  H
  H801     1.0000 0.15690  0.38890  0.58850  Biso   1.000  H
  H802     1.0000 0.08850  0.38890  0.34310  Biso   1.000  H
  H803     1.0000 0.91150  0.34310  0.38890  Biso   1.000  H
  H804     1.0000 0.88890  0.41150  0.34310  Biso   1.000  H
  H805     1.0000 0.11110  0.58850  0.34310  Biso   1.000  H
  H806     1.0000 0.91150  0.65690  0.61110  Biso   1.000  H
  H807     1.0000 0.11110  0.41150  0.65690  Biso   1.000  H
  H808     1.0000 0.08850  0.65690  0.38890  Biso   1.000  H
  H809     1.0000 0.08850  0.34310  0.61110  Biso   1.000  H
  H810     1.0000 0.88890  0.58850  0.65690  Biso   1.000  H
  H811     1.0000 0.88890  0.34310  0.58850  Biso   1.000  H
  H812     1.0000 0.11110  0.65690  0.58850  Biso   1.000  H
  H813     1.0000 0.15690  0.41150  0.38890  Biso   1.000  H
  H814     1.0000 0.15690  0.58850  0.61110  Biso   1.000  H
  H815     1.0000 0.91150  0.61110  0.34310  Biso   1.000  H
  H816     1.0000 0.08850  0.61110  0.65690  Biso   1.000  H
  H817     1.0000 0.34310  0.88890  0.41150  Biso   1.000  H
  H818     1.0000 0.61110  0.84310  0.41150  Biso   1.000  H
  H819     1.0000 0.65690  0.11110  0.41150  Biso   1.000  H
  H820     1.0000 0.38890  0.15690  0.41150  Biso   1.000  H
  H821     1.0000 0.34310  0.08850  0.38890  Biso   1.000  H
  H822     1.0000 0.34310  0.11110  0.58850  Biso   1.000  H
  H823     1.0000 0.34310  0.91150  0.61110  Biso   1.000  H
  H824     1.0000 0.41150  0.88890  0.65690  Biso   1.000  H
  H825     1.0000 0.65690  0.88890  0.58850  Biso   1.000  H
  H826     1.0000 0.58850  0.88890  0.34310  Biso   1.000  H
  H827     1.0000 0.41150  0.84310  0.38890  Biso   1.000  H
  H828     1.0000 0.38890  0.91150  0.34310  Biso   1.000  H
  H829     1.0000 0.61110  0.08850  0.34310  Biso   1.000  H
  H830     1.0000 0.41150  0.15690  0.61110  Biso   1.000  H
  H831     1.0000 0.61110  0.91150  0.65690  Biso   1.000  H
  H832     1.0000 0.58850  0.15690  0.38890  Biso   1.000  H
  H833     1.0000 0.58850  0.84310  0.61110  Biso   1.000  H
  H834     1.0000 0.38890  0.08850  0.65690  Biso   1.000  H
  H835     1.0000 0.38890  0.84310  0.58850  Biso   1.000  H
  H836     1.0000 0.61110  0.15690  0.58850  Biso   1.000  H
  H837     1.0000 0.65690  0.91150  0.38890  Biso   1.000  H
  H838     1.0000 0.65690  0.08850  0.61110  Biso   1.000  H
  H839     1.0000 0.41150  0.11110  0.34310  Biso   1.000  H
  H840     1.0000 0.58850  0.11110  0.65690  Biso   1.000  H
  H841     1.0000 0.34310  0.38890  0.91150  Biso   1.000  H
  H842     1.0000 0.61110  0.34310  0.91150  Biso   1.000  H
  H843     1.0000 0.65690  0.61110  0.91150  Biso   1.000  H
  H844     1.0000 0.38890  0.65690  0.91150  Biso   1.000  H
  H845     1.0000 0.34310  0.58850  0.88890  Biso   1.000  H
  H846     1.0000 0.34310  0.61110  0.08850  Biso   1.000  H
  H847     1.0000 0.34310  0.41150  0.11110  Biso   1.000  H
  H848     1.0000 0.41150  0.38890  0.15690  Biso   1.000  H
  H849     1.0000 0.65690  0.38890  0.08850  Biso   1.000  H
  H850     1.0000 0.58850  0.38890  0.84310  Biso   1.000  H
  H851     1.0000 0.41150  0.34310  0.88890  Biso   1.000  H
  H852     1.0000 0.38890  0.41150  0.84310  Biso   1.000  H
  H853     1.0000 0.61110  0.58850  0.84310  Biso   1.000  H
  H854     1.0000 0.41150  0.65690  0.11110  Biso   1.000  H
  H855     1.0000 0.61110  0.41150  0.15690  Biso   1.000  H
  H856     1.0000 0.58850  0.65690  0.88890  Biso   1.000  H
  H857     1.0000 0.58850  0.34310  0.11110  Biso   1.000  H
  H858     1.0000 0.38890  0.58850  0.15690  Biso   1.000  H
  H859     1.0000 0.38890  0.34310  0.08850  Biso   1.000  H
  H860     1.0000 0.61110  0.65690  0.08850  Biso   1.000  H
  H861     1.0000 0.65690  0.41150  0.88890  Biso   1.000  H
  H862     1.0000 0.65690  0.58850  0.11110  Biso   1.000  H
  H863     1.0000 0.41150  0.61110  0.84310  Biso   1.000  H
  H864     1.0000 0.58850  0.61110  0.15690  Biso   1.000  H
  C1921    1.0000 0.19970  0.10970  0.09970  Biso   1.000  C
  C1922    1.0000 0.89030  0.19970  0.09970  Biso   1.000  C
  C1923    1.0000 0.80030  0.89030  0.09970  Biso   1.000  C
  C1924    1.0000 0.10970  0.80030  0.09970  Biso   1.000  C
  C1925    1.0000 0.19970  0.90030  0.10970  Biso   1.000  C
  C1926    1.0000 0.19970  0.89030  0.90030  Biso   1.000  C
  C1927    1.0000 0.19970  0.09970  0.89030  Biso   1.000  C
  C1928    1.0000 0.09970  0.10970  0.80030  Biso   1.000  C
  C1929    1.0000 0.80030  0.10970  0.90030  Biso   1.000  C
  C1930    1.0000 0.90030  0.10970  0.19970  Biso   1.000  C
  C1931    1.0000 0.09970  0.19970  0.10970  Biso   1.000  C
  C1932    1.0000 0.10970  0.09970  0.19970  Biso   1.000  C
  C1933    1.0000 0.89030  0.90030  0.19970  Biso   1.000  C
  C1934    1.0000 0.09970  0.80030  0.89030  Biso   1.000  C
  C1935    1.0000 0.89030  0.09970  0.80030  Biso   1.000  C
  C1936    1.0000 0.90030  0.80030  0.10970  Biso   1.000  C
  C1937    1.0000 0.90030  0.19970  0.89030  Biso   1.000  C
  C1938    1.0000 0.10970  0.90030  0.80030  Biso   1.000  C
  C1939    1.0000 0.10970  0.19970  0.90030  Biso   1.000  C
  C1940    1.0000 0.89030  0.80030  0.90030  Biso   1.000  C
  C1941    1.0000 0.80030  0.09970  0.10970  Biso   1.000  C
  C1942    1.0000 0.80030  0.90030  0.89030  Biso   1.000  C
  C1943    1.0000 0.09970  0.89030  0.19970  Biso   1.000  C
  C1944    1.0000 0.90030  0.89030  0.80030  Biso   1.000  C
  C1945    1.0000 0.19970  0.60970  0.59970  Biso   1.000  C
  C1946    1.0000 0.89030  0.69970  0.59970  Biso   1.000  C
  C1947    1.0000 0.80030  0.39030  0.59970  Biso   1.000  C
  C1948    1.0000 0.10970  0.30030  0.59970  Biso   1.000  C
  C1949    1.0000 0.19970  0.40030  0.60970  Biso   1.000  C
  C1950    1.0000 0.19970  0.39030  0.40030  Biso   1.000  C
  C1951    1.0000 0.19970  0.59970  0.39030  Biso   1.000  C
  C1952    1.0000 0.09970  0.60970  0.30030  Biso   1.000  C
  C1953    1.0000 0.80030  0.60970  0.40030  Biso   1.000  C
  C1954    1.0000 0.90030  0.60970  0.69970  Biso   1.000  C
  C1955    1.0000 0.09970  0.69970  0.60970  Biso   1.000  C
  C1956    1.0000 0.10970  0.59970  0.69970  Biso   1.000  C
  C1957    1.0000 0.89030  0.40030  0.69970  Biso   1.000  C
  C1958    1.0000 0.09970  0.30030  0.39030  Biso   1.000  C
  C1959    1.0000 0.89030  0.59970  0.30030  Biso   1.000  C
  C1960    1.0000 0.90030  0.30030  0.60970  Biso   1.000  C
  C1961    1.0000 0.90030  0.69970  0.39030  Biso   1.000  C
  C1962    1.0000 0.10970  0.40030  0.30030  Biso   1.000  C
  C1963    1.0000 0.10970  0.69970  0.40030  Biso   1.000  C
  C1964    1.0000 0.89030  0.30030  0.40030  Biso   1.000  C
  C1965    1.0000 0.80030  0.59970  0.60970  Biso   1.000  C
  C1966    1.0000 0.80030  0.40030  0.39030  Biso   1.000  C
  C1967    1.0000 0.09970  0.39030  0.69970  Biso   1.000  C
  C1968    1.0000 0.90030  0.39030  0.30030  Biso   1.000  C
  C1969    1.0000 0.69970  0.10970  0.59970  Biso   1.000  C
  C1970    1.0000 0.39030  0.19970  0.59970  Biso   1.000  C
  C1971    1.0000 0.30030  0.89030  0.59970  Biso   1.000  C
  C1972    1.0000 0.60970  0.80030  0.59970  Biso   1.000  C
  C1973    1.0000 0.69970  0.90030  0.60970  Biso   1.000  C
  C1974    1.0000 0.69970  0.89030  0.40030  Biso   1.000  C
  C1975    1.0000 0.69970  0.09970  0.39030  Biso   1.000  C
  C1976    1.0000 0.59970  0.10970  0.30030  Biso   1.000  C
  C1977    1.0000 0.30030  0.10970  0.40030  Biso   1.000  C
  C1978    1.0000 0.40030  0.10970  0.69970  Biso   1.000  C
  C1979    1.0000 0.59970  0.19970  0.60970  Biso   1.000  C
  C1980    1.0000 0.60970  0.09970  0.69970  Biso   1.000  C
  C1981    1.0000 0.39030  0.90030  0.69970  Biso   1.000  C
  C1982    1.0000 0.59970  0.80030  0.39030  Biso   1.000  C
  C1983    1.0000 0.39030  0.09970  0.30030  Biso   1.000  C
  C1984    1.0000 0.40030  0.80030  0.60970  Biso   1.000  C
  C1985    1.0000 0.40030  0.19970  0.39030  Biso   1.000  C
  C1986    1.0000 0.60970  0.90030  0.30030  Biso   1.000  C
  C1987    1.0000 0.60970  0.19970  0.40030  Biso   1.000  C
  C1988    1.0000 0.39030  0.80030  0.40030  Biso   1.000  C
  C1989    1.0000 0.30030  0.09970  0.60970  Biso   1.000  C
  C1990    1.0000 0.30030  0.90030  0.39030  Biso   1.000  C
  C1991    1.0000 0.59970  0.89030  0.69970  Biso   1.000  C
  C1992    1.0000 0.40030  0.89030  0.30030  Biso   1.000  C
  C1993    1.0000 0.69970  0.60970  0.09970  Biso   1.000  C
  C1994    1.0000 0.39030  0.69970  0.09970  Biso   1.000  C
  C1995    1.0000 0.30030  0.39030  0.09970  Biso   1.000  C
  C1996    1.0000 0.60970  0.30030  0.09970  Biso   1.000  C
  C1997    1.0000 0.69970  0.40030  0.10970  Biso   1.000  C
  C1998    1.0000 0.69970  0.39030  0.90030  Biso   1.000  C
  C1999    1.0000 0.69970  0.59970  0.89030  Biso   1.000  C
  C2000    1.0000 0.59970  0.60970  0.80030  Biso   1.000  C
  C2001    1.0000 0.30030  0.60970  0.90030  Biso   1.000  C
  C2002    1.0000 0.40030  0.60970  0.19970  Biso   1.000  C
  C2003    1.0000 0.59970  0.69970  0.10970  Biso   1.000  C
  C2004    1.0000 0.60970  0.59970  0.19970  Biso   1.000  C
  C2005    1.0000 0.39030  0.40030  0.19970  Biso   1.000  C
  C2006    1.0000 0.59970  0.30030  0.89030  Biso   1.000  C
  C2007    1.0000 0.39030  0.59970  0.80030  Biso   1.000  C
  C2008    1.0000 0.40030  0.30030  0.10970  Biso   1.000  C
  C2009    1.0000 0.40030  0.69970  0.89030  Biso   1.000  C
  C2010    1.0000 0.60970  0.40030  0.80030  Biso   1.000  C
  C2011    1.0000 0.60970  0.69970  0.90030  Biso   1.000  C
  C2012    1.0000 0.39030  0.30030  0.90030  Biso   1.000  C
  C2013    1.0000 0.30030  0.59970  0.10970  Biso   1.000  C
  C2014    1.0000 0.30030  0.40030  0.89030  Biso   1.000  C
  C2015    1.0000 0.59970  0.39030  0.19970  Biso   1.000  C
  C2016    1.0000 0.40030  0.39030  0.80030  Biso   1.000  C
  C2017    1.0000 0.80030  0.89030  0.90030  Biso   1.000  C
  C2018    1.0000 0.10970  0.80030  0.90030  Biso   1.000  C
  C2019    1.0000 0.19970  0.10970  0.90030  Biso   1.000  C
  C2020    1.0000 0.89030  0.19970  0.90030  Biso   1.000  C
  C2021    1.0000 0.80030  0.09970  0.89030  Biso   1.000  C
  C2022    1.0000 0.80030  0.10970  0.09970  Biso   1.000  C
  C2023    1.0000 0.80030  0.90030  0.10970  Biso   1.000  C
  C2024    1.0000 0.90030  0.89030  0.19970  Biso   1.000  C
  C2025    1.0000 0.19970  0.89030  0.09970  Biso   1.000  C
  C2026    1.0000 0.09970  0.89030  0.80030  Biso   1.000  C
  C2027    1.0000 0.90030  0.80030  0.89030  Biso   1.000  C
  C2028    1.0000 0.89030  0.90030  0.80030  Biso   1.000  C
  C2029    1.0000 0.10970  0.09970  0.80030  Biso   1.000  C
  C2030    1.0000 0.90030  0.19970  0.10970  Biso   1.000  C
  C2031    1.0000 0.10970  0.90030  0.19970  Biso   1.000  C
  C2032    1.0000 0.09970  0.19970  0.89030  Biso   1.000  C
  C2033    1.0000 0.09970  0.80030  0.10970  Biso   1.000  C
  C2034    1.0000 0.89030  0.09970  0.19970  Biso   1.000  C
  C2035    1.0000 0.89030  0.80030  0.09970  Biso   1.000  C
  C2036    1.0000 0.10970  0.19970  0.09970  Biso   1.000  C
  C2037    1.0000 0.19970  0.90030  0.89030  Biso   1.000  C
  C2038    1.0000 0.19970  0.09970  0.10970  Biso   1.000  C
  C2039    1.0000 0.90030  0.10970  0.80030  Biso   1.000  C
  C2040    1.0000 0.09970  0.10970  0.19970  Biso   1.000  C
  C2041    1.0000 0.80030  0.39030  0.40030  Biso   1.000  C
  C2042    1.0000 0.10970  0.30030  0.40030  Biso   1.000  C
  C2043    1.0000 0.19970  0.60970  0.40030  Biso   1.000  C
  C2044    1.0000 0.89030  0.69970  0.40030  Biso   1.000  C
  C2045    1.0000 0.80030  0.59970  0.39030  Biso   1.000  C
  C2046    1.0000 0.80030  0.60970  0.59970  Biso   1.000  C
  C2047    1.0000 0.80030  0.40030  0.60970  Biso   1.000  C
  C2048    1.0000 0.90030  0.39030  0.69970  Biso   1.000  C
  C2049    1.0000 0.19970  0.39030  0.59970  Biso   1.000  C
  C2050    1.0000 0.09970  0.39030  0.30030  Biso   1.000  C
  C2051    1.0000 0.90030  0.30030  0.39030  Biso   1.000  C
  C2052    1.0000 0.89030  0.40030  0.30030  Biso   1.000  C
  C2053    1.0000 0.10970  0.59970  0.30030  Biso   1.000  C
  C2054    1.0000 0.90030  0.69970  0.60970  Biso   1.000  C
  C2055    1.0000 0.10970  0.40030  0.69970  Biso   1.000  C
  C2056    1.0000 0.09970  0.69970  0.39030  Biso   1.000  C
  C2057    1.0000 0.09970  0.30030  0.60970  Biso   1.000  C
  C2058    1.0000 0.89030  0.59970  0.69970  Biso   1.000  C
  C2059    1.0000 0.89030  0.30030  0.59970  Biso   1.000  C
  C2060    1.0000 0.10970  0.69970  0.59970  Biso   1.000  C
  C2061    1.0000 0.19970  0.40030  0.39030  Biso   1.000  C
  C2062    1.0000 0.19970  0.59970  0.60970  Biso   1.000  C
  C2063    1.0000 0.90030  0.60970  0.30030  Biso   1.000  C
  C2064    1.0000 0.09970  0.60970  0.69970  Biso   1.000  C
  C2065    1.0000 0.30030  0.89030  0.40030  Biso   1.000  C
  C2066    1.0000 0.60970  0.80030  0.40030  Biso   1.000  C
  C2067    1.0000 0.69970  0.10970  0.40030  Biso   1.000  C
  C2068    1.0000 0.39030  0.19970  0.40030  Biso   1.000  C
  C2069    1.0000 0.30030  0.09970  0.39030  Biso   1.000  C
  C2070    1.0000 0.30030  0.10970  0.59970  Biso   1.000  C
  C2071    1.0000 0.30030  0.90030  0.60970  Biso   1.000  C
  C2072    1.0000 0.40030  0.89030  0.69970  Biso   1.000  C
  C2073    1.0000 0.69970  0.89030  0.59970  Biso   1.000  C
  C2074    1.0000 0.59970  0.89030  0.30030  Biso   1.000  C
  C2075    1.0000 0.40030  0.80030  0.39030  Biso   1.000  C
  C2076    1.0000 0.39030  0.90030  0.30030  Biso   1.000  C
  C2077    1.0000 0.60970  0.09970  0.30030  Biso   1.000  C
  C2078    1.0000 0.40030  0.19970  0.60970  Biso   1.000  C
  C2079    1.0000 0.60970  0.90030  0.69970  Biso   1.000  C
  C2080    1.0000 0.59970  0.19970  0.39030  Biso   1.000  C
  C2081    1.0000 0.59970  0.80030  0.60970  Biso   1.000  C
  C2082    1.0000 0.39030  0.09970  0.69970  Biso   1.000  C
  C2083    1.0000 0.39030  0.80030  0.59970  Biso   1.000  C
  C2084    1.0000 0.60970  0.19970  0.59970  Biso   1.000  C
  C2085    1.0000 0.69970  0.90030  0.39030  Biso   1.000  C
  C2086    1.0000 0.69970  0.09970  0.60970  Biso   1.000  C
  C2087    1.0000 0.40030  0.10970  0.30030  Biso   1.000  C
  C2088    1.0000 0.59970  0.10970  0.69970  Biso   1.000  C
  C2089    1.0000 0.30030  0.39030  0.90030  Biso   1.000  C
  C2090    1.0000 0.60970  0.30030  0.90030  Biso   1.000  C
  C2091    1.0000 0.69970  0.60970  0.90030  Biso   1.000  C
  C2092    1.0000 0.39030  0.69970  0.90030  Biso   1.000  C
  C2093    1.0000 0.30030  0.59970  0.89030  Biso   1.000  C
  C2094    1.0000 0.30030  0.60970  0.09970  Biso   1.000  C
  C2095    1.0000 0.30030  0.40030  0.10970  Biso   1.000  C
  C2096    1.0000 0.40030  0.39030  0.19970  Biso   1.000  C
  C2097    1.0000 0.69970  0.39030  0.09970  Biso   1.000  C
  C2098    1.0000 0.59970  0.39030  0.80030  Biso   1.000  C
  C2099    1.0000 0.40030  0.30030  0.89030  Biso   1.000  C
  C2100    1.0000 0.39030  0.40030  0.80030  Biso   1.000  C
  C2101    1.0000 0.60970  0.59970  0.80030  Biso   1.000  C
  C2102    1.0000 0.40030  0.69970  0.10970  Biso   1.000  C
  C2103    1.0000 0.60970  0.40030  0.19970  Biso   1.000  C
  C2104    1.0000 0.59970  0.69970  0.89030  Biso   1.000  C
  C2105    1.0000 0.59970  0.30030  0.10970  Biso   1.000  C
  C2106    1.0000 0.39030  0.59970  0.19970  Biso   1.000  C
  C2107    1.0000 0.39030  0.30030  0.09970  Biso   1.000  C
  C2108    1.0000 0.60970  0.69970  0.09970  Biso   1.000  C
  C2109    1.0000 0.69970  0.40030  0.89030  Biso   1.000  C
  C2110    1.0000 0.69970  0.59970  0.10970  Biso   1.000  C
  C2111    1.0000 0.40030  0.60970  0.80030  Biso   1.000  C
  C2112    1.0000 0.59970  0.60970  0.19970  Biso   1.000  C
  C2113    1.0000 0.20020  0.12810  0.12420  Biso   1.000  C
  C2114    1.0000 0.87190  0.20020  0.12420  Biso   1.000  C
  C2115    1.0000 0.79980  0.87190  0.12420  Biso   1.000  C
  C2116    1.0000 0.12810  0.79980  0.12420  Biso   1.000  C
  C2117    1.0000 0.20020  0.87580  0.12810  Biso   1.000  C
  C2118    1.0000 0.20020  0.87190  0.87580  Biso   1.000  C
  C2119    1.0000 0.20020  0.12420  0.87190  Biso   1.000  C
  C2120    1.0000 0.12420  0.12810  0.79980  Biso   1.000  C
  C2121    1.0000 0.79980  0.12810  0.87580  Biso   1.000  C
  C2122    1.0000 0.87580  0.12810  0.20020  Biso   1.000  C
  C2123    1.0000 0.12420  0.20020  0.12810  Biso   1.000  C
  C2124    1.0000 0.12810  0.12420  0.20020  Biso   1.000  C
  C2125    1.0000 0.87190  0.87580  0.20020  Biso   1.000  C
  C2126    1.0000 0.12420  0.79980  0.87190  Biso   1.000  C
  C2127    1.0000 0.87190  0.12420  0.79980  Biso   1.000  C
  C2128    1.0000 0.87580  0.79980  0.12810  Biso   1.000  C
  C2129    1.0000 0.87580  0.20020  0.87190  Biso   1.000  C
  C2130    1.0000 0.12810  0.87580  0.79980  Biso   1.000  C
  C2131    1.0000 0.12810  0.20020  0.87580  Biso   1.000  C
  C2132    1.0000 0.87190  0.79980  0.87580  Biso   1.000  C
  C2133    1.0000 0.79980  0.12420  0.12810  Biso   1.000  C
  C2134    1.0000 0.79980  0.87580  0.87190  Biso   1.000  C
  C2135    1.0000 0.12420  0.87190  0.20020  Biso   1.000  C
  C2136    1.0000 0.87580  0.87190  0.79980  Biso   1.000  C
  C2137    1.0000 0.20020  0.62810  0.62420  Biso   1.000  C
  C2138    1.0000 0.87190  0.70020  0.62420  Biso   1.000  C
  C2139    1.0000 0.79980  0.37190  0.62420  Biso   1.000  C
  C2140    1.0000 0.12810  0.29980  0.62420  Biso   1.000  C
  C2141    1.0000 0.20020  0.37580  0.62810  Biso   1.000  C
  C2142    1.0000 0.20020  0.37190  0.37580  Biso   1.000  C
  C2143    1.0000 0.20020  0.62420  0.37190  Biso   1.000  C
  C2144    1.0000 0.12420  0.62810  0.29980  Biso   1.000  C
  C2145    1.0000 0.79980  0.62810  0.37580  Biso   1.000  C
  C2146    1.0000 0.87580  0.62810  0.70020  Biso   1.000  C
  C2147    1.0000 0.12420  0.70020  0.62810  Biso   1.000  C
  C2148    1.0000 0.12810  0.62420  0.70020  Biso   1.000  C
  C2149    1.0000 0.87190  0.37580  0.70020  Biso   1.000  C
  C2150    1.0000 0.12420  0.29980  0.37190  Biso   1.000  C
  C2151    1.0000 0.87190  0.62420  0.29980  Biso   1.000  C
  C2152    1.0000 0.87580  0.29980  0.62810  Biso   1.000  C
  C2153    1.0000 0.87580  0.70020  0.37190  Biso   1.000  C
  C2154    1.0000 0.12810  0.37580  0.29980  Biso   1.000  C
  C2155    1.0000 0.12810  0.70020  0.37580  Biso   1.000  C
  C2156    1.0000 0.87190  0.29980  0.37580  Biso   1.000  C
  C2157    1.0000 0.79980  0.62420  0.62810  Biso   1.000  C
  C2158    1.0000 0.79980  0.37580  0.37190  Biso   1.000  C
  C2159    1.0000 0.12420  0.37190  0.70020  Biso   1.000  C
  C2160    1.0000 0.87580  0.37190  0.29980  Biso   1.000  C
  C2161    1.0000 0.70020  0.12810  0.62420  Biso   1.000  C
  C2162    1.0000 0.37190  0.20020  0.62420  Biso   1.000  C
  C2163    1.0000 0.29980  0.87190  0.62420  Biso   1.000  C
  C2164    1.0000 0.62810  0.79980  0.62420  Biso   1.000  C
  C2165    1.0000 0.70020  0.87580  0.62810  Biso   1.000  C
  C2166    1.0000 0.70020  0.87190  0.37580  Biso   1.000  C
  C2167    1.0000 0.70020  0.12420  0.37190  Biso   1.000  C
  C2168    1.0000 0.62420  0.12810  0.29980  Biso   1.000  C
  C2169    1.0000 0.29980  0.12810  0.37580  Biso   1.000  C
  C2170    1.0000 0.37580  0.12810  0.70020  Biso   1.000  C
  C2171    1.0000 0.62420  0.20020  0.62810  Biso   1.000  C
  C2172    1.0000 0.62810  0.12420  0.70020  Biso   1.000  C
  C2173    1.0000 0.37190  0.87580  0.70020  Biso   1.000  C
  C2174    1.0000 0.62420  0.79980  0.37190  Biso   1.000  C
  C2175    1.0000 0.37190  0.12420  0.29980  Biso   1.000  C
  C2176    1.0000 0.37580  0.79980  0.62810  Biso   1.000  C
  C2177    1.0000 0.37580  0.20020  0.37190  Biso   1.000  C
  C2178    1.0000 0.62810  0.87580  0.29980  Biso   1.000  C
  C2179    1.0000 0.62810  0.20020  0.37580  Biso   1.000  C
  C2180    1.0000 0.37190  0.79980  0.37580  Biso   1.000  C
  C2181    1.0000 0.29980  0.12420  0.62810  Biso   1.000  C
  C2182    1.0000 0.29980  0.87580  0.37190  Biso   1.000  C
  C2183    1.0000 0.62420  0.87190  0.70020  Biso   1.000  C
  C2184    1.0000 0.37580  0.87190  0.29980  Biso   1.000  C
  C2185    1.0000 0.70020  0.62810  0.12420  Biso   1.000  C
  C2186    1.0000 0.37190  0.70020  0.12420  Biso   1.000  C
  C2187    1.0000 0.29980  0.37190  0.12420  Biso   1.000  C
  C2188    1.0000 0.62810  0.29980  0.12420  Biso   1.000  C
  C2189    1.0000 0.70020  0.37580  0.12810  Biso   1.000  C
  C2190    1.0000 0.70020  0.37190  0.87580  Biso   1.000  C
  C2191    1.0000 0.70020  0.62420  0.87190  Biso   1.000  C
  C2192    1.0000 0.62420  0.62810  0.79980  Biso   1.000  C
  C2193    1.0000 0.29980  0.62810  0.87580  Biso   1.000  C
  C2194    1.0000 0.37580  0.62810  0.20020  Biso   1.000  C
  C2195    1.0000 0.62420  0.70020  0.12810  Biso   1.000  C
  C2196    1.0000 0.62810  0.62420  0.20020  Biso   1.000  C
  C2197    1.0000 0.37190  0.37580  0.20020  Biso   1.000  C
  C2198    1.0000 0.62420  0.29980  0.87190  Biso   1.000  C
  C2199    1.0000 0.37190  0.62420  0.79980  Biso   1.000  C
  C2200    1.0000 0.37580  0.29980  0.12810  Biso   1.000  C
  C2201    1.0000 0.37580  0.70020  0.87190  Biso   1.000  C
  C2202    1.0000 0.62810  0.37580  0.79980  Biso   1.000  C
  C2203    1.0000 0.62810  0.70020  0.87580  Biso   1.000  C
  C2204    1.0000 0.37190  0.29980  0.87580  Biso   1.000  C
  C2205    1.0000 0.29980  0.62420  0.12810  Biso   1.000  C
  C2206    1.0000 0.29980  0.37580  0.87190  Biso   1.000  C
  C2207    1.0000 0.62420  0.37190  0.20020  Biso   1.000  C
  C2208    1.0000 0.37580  0.37190  0.79980  Biso   1.000  C
  C2209    1.0000 0.79980  0.87190  0.87580  Biso   1.000  C
  C2210    1.0000 0.12810  0.79980  0.87580  Biso   1.000  C
  C2211    1.0000 0.20020  0.12810  0.87580  Biso   1.000  C
  C2212    1.0000 0.87190  0.20020  0.87580  Biso   1.000  C
  C2213    1.0000 0.79980  0.12420  0.87190  Biso   1.000  C
  C2214    1.0000 0.79980  0.12810  0.12420  Biso   1.000  C
  C2215    1.0000 0.79980  0.87580  0.12810  Biso   1.000  C
  C2216    1.0000 0.87580  0.87190  0.20020  Biso   1.000  C
  C2217    1.0000 0.20020  0.87190  0.12420  Biso   1.000  C
  C2218    1.0000 0.12420  0.87190  0.79980  Biso   1.000  C
  C2219    1.0000 0.87580  0.79980  0.87190  Biso   1.000  C
  C2220    1.0000 0.87190  0.87580  0.79980  Biso   1.000  C
  C2221    1.0000 0.12810  0.12420  0.79980  Biso   1.000  C
  C2222    1.0000 0.87580  0.20020  0.12810  Biso   1.000  C
  C2223    1.0000 0.12810  0.87580  0.20020  Biso   1.000  C
  C2224    1.0000 0.12420  0.20020  0.87190  Biso   1.000  C
  C2225    1.0000 0.12420  0.79980  0.12810  Biso   1.000  C
  C2226    1.0000 0.87190  0.12420  0.20020  Biso   1.000  C
  C2227    1.0000 0.87190  0.79980  0.12420  Biso   1.000  C
  C2228    1.0000 0.12810  0.20020  0.12420  Biso   1.000  C
  C2229    1.0000 0.20020  0.87580  0.87190  Biso   1.000  C
  C2230    1.0000 0.20020  0.12420  0.12810  Biso   1.000  C
  C2231    1.0000 0.87580  0.12810  0.79980  Biso   1.000  C
  C2232    1.0000 0.12420  0.12810  0.20020  Biso   1.000  C
  C2233    1.0000 0.79980  0.37190  0.37580  Biso   1.000  C
  C2234    1.0000 0.12810  0.29980  0.37580  Biso   1.000  C
  C2235    1.0000 0.20020  0.62810  0.37580  Biso   1.000  C
  C2236    1.0000 0.87190  0.70020  0.37580  Biso   1.000  C
  C2237    1.0000 0.79980  0.62420  0.37190  Biso   1.000  C
  C2238    1.0000 0.79980  0.62810  0.62420  Biso   1.000  C
  C2239    1.0000 0.79980  0.37580  0.62810  Biso   1.000  C
  C2240    1.0000 0.87580  0.37190  0.70020  Biso   1.000  C
  C2241    1.0000 0.20020  0.37190  0.62420  Biso   1.000  C
  C2242    1.0000 0.12420  0.37190  0.29980  Biso   1.000  C
  C2243    1.0000 0.87580  0.29980  0.37190  Biso   1.000  C
  C2244    1.0000 0.87190  0.37580  0.29980  Biso   1.000  C
  C2245    1.0000 0.12810  0.62420  0.29980  Biso   1.000  C
  C2246    1.0000 0.87580  0.70020  0.62810  Biso   1.000  C
  C2247    1.0000 0.12810  0.37580  0.70020  Biso   1.000  C
  C2248    1.0000 0.12420  0.70020  0.37190  Biso   1.000  C
  C2249    1.0000 0.12420  0.29980  0.62810  Biso   1.000  C
  C2250    1.0000 0.87190  0.62420  0.70020  Biso   1.000  C
  C2251    1.0000 0.87190  0.29980  0.62420  Biso   1.000  C
  C2252    1.0000 0.12810  0.70020  0.62420  Biso   1.000  C
  C2253    1.0000 0.20020  0.37580  0.37190  Biso   1.000  C
  C2254    1.0000 0.20020  0.62420  0.62810  Biso   1.000  C
  C2255    1.0000 0.87580  0.62810  0.29980  Biso   1.000  C
  C2256    1.0000 0.12420  0.62810  0.70020  Biso   1.000  C
  C2257    1.0000 0.29980  0.87190  0.37580  Biso   1.000  C
  C2258    1.0000 0.62810  0.79980  0.37580  Biso   1.000  C
  C2259    1.0000 0.70020  0.12810  0.37580  Biso   1.000  C
  C2260    1.0000 0.37190  0.20020  0.37580  Biso   1.000  C
  C2261    1.0000 0.29980  0.12420  0.37190  Biso   1.000  C
  C2262    1.0000 0.29980  0.12810  0.62420  Biso   1.000  C
  C2263    1.0000 0.29980  0.87580  0.62810  Biso   1.000  C
  C2264    1.0000 0.37580  0.87190  0.70020  Biso   1.000  C
  C2265    1.0000 0.70020  0.87190  0.62420  Biso   1.000  C
  C2266    1.0000 0.62420  0.87190  0.29980  Biso   1.000  C
  C2267    1.0000 0.37580  0.79980  0.37190  Biso   1.000  C
  C2268    1.0000 0.37190  0.87580  0.29980  Biso   1.000  C
  C2269    1.0000 0.62810  0.12420  0.29980  Biso   1.000  C
  C2270    1.0000 0.37580  0.20020  0.62810  Biso   1.000  C
  C2271    1.0000 0.62810  0.87580  0.70020  Biso   1.000  C
  C2272    1.0000 0.62420  0.20020  0.37190  Biso   1.000  C
  C2273    1.0000 0.62420  0.79980  0.62810  Biso   1.000  C
  C2274    1.0000 0.37190  0.12420  0.70020  Biso   1.000  C
  C2275    1.0000 0.37190  0.79980  0.62420  Biso   1.000  C
  C2276    1.0000 0.62810  0.20020  0.62420  Biso   1.000  C
  C2277    1.0000 0.70020  0.87580  0.37190  Biso   1.000  C
  C2278    1.0000 0.70020  0.12420  0.62810  Biso   1.000  C
  C2279    1.0000 0.37580  0.12810  0.29980  Biso   1.000  C
  C2280    1.0000 0.62420  0.12810  0.70020  Biso   1.000  C
  C2281    1.0000 0.29980  0.37190  0.87580  Biso   1.000  C
  C2282    1.0000 0.62810  0.29980  0.87580  Biso   1.000  C
  C2283    1.0000 0.70020  0.62810  0.87580  Biso   1.000  C
  C2284    1.0000 0.37190  0.70020  0.87580  Biso   1.000  C
  C2285    1.0000 0.29980  0.62420  0.87190  Biso   1.000  C
  C2286    1.0000 0.29980  0.62810  0.12420  Biso   1.000  C
  C2287    1.0000 0.29980  0.37580  0.12810  Biso   1.000  C
  C2288    1.0000 0.37580  0.37190  0.20020  Biso   1.000  C
  C2289    1.0000 0.70020  0.37190  0.12420  Biso   1.000  C
  C2290    1.0000 0.62420  0.37190  0.79980  Biso   1.000  C
  C2291    1.0000 0.37580  0.29980  0.87190  Biso   1.000  C
  C2292    1.0000 0.37190  0.37580  0.79980  Biso   1.000  C
  C2293    1.0000 0.62810  0.62420  0.79980  Biso   1.000  C
  C2294    1.0000 0.37580  0.70020  0.12810  Biso   1.000  C
  C2295    1.0000 0.62810  0.37580  0.20020  Biso   1.000  C
  C2296    1.0000 0.62420  0.70020  0.87190  Biso   1.000  C
  C2297    1.0000 0.62420  0.29980  0.12810  Biso   1.000  C
  C2298    1.0000 0.37190  0.62420  0.20020  Biso   1.000  C
  C2299    1.0000 0.37190  0.29980  0.12420  Biso   1.000  C
  C2300    1.0000 0.62810  0.70020  0.12420  Biso   1.000  C
  C2301    1.0000 0.70020  0.37580  0.87190  Biso   1.000  C
  C2302    1.0000 0.70020  0.62420  0.12810  Biso   1.000  C
  C2303    1.0000 0.37580  0.62810  0.79980  Biso   1.000  C
  C2304    1.0000 0.62420  0.62810  0.20020  Biso   1.000  C
  C2305    1.0000 0.22570  0.13350  0.13890  Biso   1.000  C
  C2306    1.0000 0.86650  0.22570  0.13890  Biso   1.000  C
  C2307    1.0000 0.77430  0.86650  0.13890  Biso   1.000  C
  C2308    1.0000 0.13350  0.77430  0.13890  Biso   1.000  C
  C2309    1.0000 0.22570  0.86110  0.13350  Biso   1.000  C
  C2310    1.0000 0.22570  0.86650  0.86110  Biso   1.000  C
  C2311    1.0000 0.22570  0.13890  0.86650  Biso   1.000  C
  C2312    1.0000 0.13890  0.13350  0.77430  Biso   1.000  C
  C2313    1.0000 0.77430  0.13350  0.86110  Biso   1.000  C
  C2314    1.0000 0.86110  0.13350  0.22570  Biso   1.000  C
  C2315    1.0000 0.13890  0.22570  0.13350  Biso   1.000  C
  C2316    1.0000 0.13350  0.13890  0.22570  Biso   1.000  C
  C2317    1.0000 0.86650  0.86110  0.22570  Biso   1.000  C
  C2318    1.0000 0.13890  0.77430  0.86650  Biso   1.000  C
  C2319    1.0000 0.86650  0.13890  0.77430  Biso   1.000  C
  C2320    1.0000 0.86110  0.77430  0.13350  Biso   1.000  C
  C2321    1.0000 0.86110  0.22570  0.86650  Biso   1.000  C
  C2322    1.0000 0.13350  0.86110  0.77430  Biso   1.000  C
  C2323    1.0000 0.13350  0.22570  0.86110  Biso   1.000  C
  C2324    1.0000 0.86650  0.77430  0.86110  Biso   1.000  C
  C2325    1.0000 0.77430  0.13890  0.13350  Biso   1.000  C
  C2326    1.0000 0.77430  0.86110  0.86650  Biso   1.000  C
  C2327    1.0000 0.13890  0.86650  0.22570  Biso   1.000  C
  C2328    1.0000 0.86110  0.86650  0.77430  Biso   1.000  C
  C2329    1.0000 0.22570  0.63350  0.63890  Biso   1.000  C
  C2330    1.0000 0.86650  0.72570  0.63890  Biso   1.000  C
  C2331    1.0000 0.77430  0.36650  0.63890  Biso   1.000  C
  C2332    1.0000 0.13350  0.27430  0.63890  Biso   1.000  C
  C2333    1.0000 0.22570  0.36110  0.63350  Biso   1.000  C
  C2334    1.0000 0.22570  0.36650  0.36110  Biso   1.000  C
  C2335    1.0000 0.22570  0.63890  0.36650  Biso   1.000  C
  C2336    1.0000 0.13890  0.63350  0.27430  Biso   1.000  C
  C2337    1.0000 0.77430  0.63350  0.36110  Biso   1.000  C
  C2338    1.0000 0.86110  0.63350  0.72570  Biso   1.000  C
  C2339    1.0000 0.13890  0.72570  0.63350  Biso   1.000  C
  C2340    1.0000 0.13350  0.63890  0.72570  Biso   1.000  C
  C2341    1.0000 0.86650  0.36110  0.72570  Biso   1.000  C
  C2342    1.0000 0.13890  0.27430  0.36650  Biso   1.000  C
  C2343    1.0000 0.86650  0.63890  0.27430  Biso   1.000  C
  C2344    1.0000 0.86110  0.27430  0.63350  Biso   1.000  C
  C2345    1.0000 0.86110  0.72570  0.36650  Biso   1.000  C
  C2346    1.0000 0.13350  0.36110  0.27430  Biso   1.000  C
  C2347    1.0000 0.13350  0.72570  0.36110  Biso   1.000  C
  C2348    1.0000 0.86650  0.27430  0.36110  Biso   1.000  C
  C2349    1.0000 0.77430  0.63890  0.63350  Biso   1.000  C
  C2350    1.0000 0.77430  0.36110  0.36650  Biso   1.000  C
  C2351    1.0000 0.13890  0.36650  0.72570  Biso   1.000  C
  C2352    1.0000 0.86110  0.36650  0.27430  Biso   1.000  C
  C2353    1.0000 0.72570  0.13350  0.63890  Biso   1.000  C
  C2354    1.0000 0.36650  0.22570  0.63890  Biso   1.000  C
  C2355    1.0000 0.27430  0.86650  0.63890  Biso   1.000  C
  C2356    1.0000 0.63350  0.77430  0.63890  Biso   1.000  C
  C2357    1.0000 0.72570  0.86110  0.63350  Biso   1.000  C
  C2358    1.0000 0.72570  0.86650  0.36110  Biso   1.000  C
  C2359    1.0000 0.72570  0.13890  0.36650  Biso   1.000  C
  C2360    1.0000 0.63890  0.13350  0.27430  Biso   1.000  C
  C2361    1.0000 0.27430  0.13350  0.36110  Biso   1.000  C
  C2362    1.0000 0.36110  0.13350  0.72570  Biso   1.000  C
  C2363    1.0000 0.63890  0.22570  0.63350  Biso   1.000  C
  C2364    1.0000 0.63350  0.13890  0.72570  Biso   1.000  C
  C2365    1.0000 0.36650  0.86110  0.72570  Biso   1.000  C
  C2366    1.0000 0.63890  0.77430  0.36650  Biso   1.000  C
  C2367    1.0000 0.36650  0.13890  0.27430  Biso   1.000  C
  C2368    1.0000 0.36110  0.77430  0.63350  Biso   1.000  C
  C2369    1.0000 0.36110  0.22570  0.36650  Biso   1.000  C
  C2370    1.0000 0.63350  0.86110  0.27430  Biso   1.000  C
  C2371    1.0000 0.63350  0.22570  0.36110  Biso   1.000  C
  C2372    1.0000 0.36650  0.77430  0.36110  Biso   1.000  C
  C2373    1.0000 0.27430  0.13890  0.63350  Biso   1.000  C
  C2374    1.0000 0.27430  0.86110  0.36650  Biso   1.000  C
  C2375    1.0000 0.63890  0.86650  0.72570  Biso   1.000  C
  C2376    1.0000 0.36110  0.86650  0.27430  Biso   1.000  C
  C2377    1.0000 0.72570  0.63350  0.13890  Biso   1.000  C
  C2378    1.0000 0.36650  0.72570  0.13890  Biso   1.000  C
  C2379    1.0000 0.27430  0.36650  0.13890  Biso   1.000  C
  C2380    1.0000 0.63350  0.27430  0.13890  Biso   1.000  C
  C2381    1.0000 0.72570  0.36110  0.13350  Biso   1.000  C
  C2382    1.0000 0.72570  0.36650  0.86110  Biso   1.000  C
  C2383    1.0000 0.72570  0.63890  0.86650  Biso   1.000  C
  C2384    1.0000 0.63890  0.63350  0.77430  Biso   1.000  C
  C2385    1.0000 0.27430  0.63350  0.86110  Biso   1.000  C
  C2386    1.0000 0.36110  0.63350  0.22570  Biso   1.000  C
  C2387    1.0000 0.63890  0.72570  0.13350  Biso   1.000  C
  C2388    1.0000 0.63350  0.63890  0.22570  Biso   1.000  C
  C2389    1.0000 0.36650  0.36110  0.22570  Biso   1.000  C
  C2390    1.0000 0.63890  0.27430  0.86650  Biso   1.000  C
  C2391    1.0000 0.36650  0.63890  0.77430  Biso   1.000  C
  C2392    1.0000 0.36110  0.27430  0.13350  Biso   1.000  C
  C2393    1.0000 0.36110  0.72570  0.86650  Biso   1.000  C
  C2394    1.0000 0.63350  0.36110  0.77430  Biso   1.000  C
  C2395    1.0000 0.63350  0.72570  0.86110  Biso   1.000  C
  C2396    1.0000 0.36650  0.27430  0.86110  Biso   1.000  C
  C2397    1.0000 0.27430  0.63890  0.13350  Biso   1.000  C
  C2398    1.0000 0.27430  0.36110  0.86650  Biso   1.000  C
  C2399    1.0000 0.63890  0.36650  0.22570  Biso   1.000  C
  C2400    1.0000 0.36110  0.36650  0.77430  Biso   1.000  C
  C2401    1.0000 0.77430  0.86650  0.86110  Biso   1.000  C
  C2402    1.0000 0.13350  0.77430  0.86110  Biso   1.000  C
  C2403    1.0000 0.22570  0.13350  0.86110  Biso   1.000  C
  C2404    1.0000 0.86650  0.22570  0.86110  Biso   1.000  C
  C2405    1.0000 0.77430  0.13890  0.86650  Biso   1.000  C
  C2406    1.0000 0.77430  0.13350  0.13890  Biso   1.000  C
  C2407    1.0000 0.77430  0.86110  0.13350  Biso   1.000  C
  C2408    1.0000 0.86110  0.86650  0.22570  Biso   1.000  C
  C2409    1.0000 0.22570  0.86650  0.13890  Biso   1.000  C
  C2410    1.0000 0.13890  0.86650  0.77430  Biso   1.000  C
  C2411    1.0000 0.86110  0.77430  0.86650  Biso   1.000  C
  C2412    1.0000 0.86650  0.86110  0.77430  Biso   1.000  C
  C2413    1.0000 0.13350  0.13890  0.77430  Biso   1.000  C
  C2414    1.0000 0.86110  0.22570  0.13350  Biso   1.000  C
  C2415    1.0000 0.13350  0.86110  0.22570  Biso   1.000  C
  C2416    1.0000 0.13890  0.22570  0.86650  Biso   1.000  C
  C2417    1.0000 0.13890  0.77430  0.13350  Biso   1.000  C
  C2418    1.0000 0.86650  0.13890  0.22570  Biso   1.000  C
  C2419    1.0000 0.86650  0.77430  0.13890  Biso   1.000  C
  C2420    1.0000 0.13350  0.22570  0.13890  Biso   1.000  C
  C2421    1.0000 0.22570  0.86110  0.86650  Biso   1.000  C
  C2422    1.0000 0.22570  0.13890  0.13350  Biso   1.000  C
  C2423    1.0000 0.86110  0.13350  0.77430  Biso   1.000  C
  C2424    1.0000 0.13890  0.13350  0.22570  Biso   1.000  C
  C2425    1.0000 0.77430  0.36650  0.36110  Biso   1.000  C
  C2426    1.0000 0.13350  0.27430  0.36110  Biso   1.000  C
  C2427    1.0000 0.22570  0.63350  0.36110  Biso   1.000  C
  C2428    1.0000 0.86650  0.72570  0.36110  Biso   1.000  C
  C2429    1.0000 0.77430  0.63890  0.36650  Biso   1.000  C
  C2430    1.0000 0.77430  0.63350  0.63890  Biso   1.000  C
  C2431    1.0000 0.77430  0.36110  0.63350  Biso   1.000  C
  C2432    1.0000 0.86110  0.36650  0.72570  Biso   1.000  C
  C2433    1.0000 0.22570  0.36650  0.63890  Biso   1.000  C
  C2434    1.0000 0.13890  0.36650  0.27430  Biso   1.000  C
  C2435    1.0000 0.86110  0.27430  0.36650  Biso   1.000  C
  C2436    1.0000 0.86650  0.36110  0.27430  Biso   1.000  C
  C2437    1.0000 0.13350  0.63890  0.27430  Biso   1.000  C
  C2438    1.0000 0.86110  0.72570  0.63350  Biso   1.000  C
  C2439    1.0000 0.13350  0.36110  0.72570  Biso   1.000  C
  C2440    1.0000 0.13890  0.72570  0.36650  Biso   1.000  C
  C2441    1.0000 0.13890  0.27430  0.63350  Biso   1.000  C
  C2442    1.0000 0.86650  0.63890  0.72570  Biso   1.000  C
  C2443    1.0000 0.86650  0.27430  0.63890  Biso   1.000  C
  C2444    1.0000 0.13350  0.72570  0.63890  Biso   1.000  C
  C2445    1.0000 0.22570  0.36110  0.36650  Biso   1.000  C
  C2446    1.0000 0.22570  0.63890  0.63350  Biso   1.000  C
  C2447    1.0000 0.86110  0.63350  0.27430  Biso   1.000  C
  C2448    1.0000 0.13890  0.63350  0.72570  Biso   1.000  C
  C2449    1.0000 0.27430  0.86650  0.36110  Biso   1.000  C
  C2450    1.0000 0.63350  0.77430  0.36110  Biso   1.000  C
  C2451    1.0000 0.72570  0.13350  0.36110  Biso   1.000  C
  C2452    1.0000 0.36650  0.22570  0.36110  Biso   1.000  C
  C2453    1.0000 0.27430  0.13890  0.36650  Biso   1.000  C
  C2454    1.0000 0.27430  0.13350  0.63890  Biso   1.000  C
  C2455    1.0000 0.27430  0.86110  0.63350  Biso   1.000  C
  C2456    1.0000 0.36110  0.86650  0.72570  Biso   1.000  C
  C2457    1.0000 0.72570  0.86650  0.63890  Biso   1.000  C
  C2458    1.0000 0.63890  0.86650  0.27430  Biso   1.000  C
  C2459    1.0000 0.36110  0.77430  0.36650  Biso   1.000  C
  C2460    1.0000 0.36650  0.86110  0.27430  Biso   1.000  C
  C2461    1.0000 0.63350  0.13890  0.27430  Biso   1.000  C
  C2462    1.0000 0.36110  0.22570  0.63350  Biso   1.000  C
  C2463    1.0000 0.63350  0.86110  0.72570  Biso   1.000  C
  C2464    1.0000 0.63890  0.22570  0.36650  Biso   1.000  C
  C2465    1.0000 0.63890  0.77430  0.63350  Biso   1.000  C
  C2466    1.0000 0.36650  0.13890  0.72570  Biso   1.000  C
  C2467    1.0000 0.36650  0.77430  0.63890  Biso   1.000  C
  C2468    1.0000 0.63350  0.22570  0.63890  Biso   1.000  C
  C2469    1.0000 0.72570  0.86110  0.36650  Biso   1.000  C
  C2470    1.0000 0.72570  0.13890  0.63350  Biso   1.000  C
  C2471    1.0000 0.36110  0.13350  0.27430  Biso   1.000  C
  C2472    1.0000 0.63890  0.13350  0.72570  Biso   1.000  C
  C2473    1.0000 0.27430  0.36650  0.86110  Biso   1.000  C
  C2474    1.0000 0.63350  0.27430  0.86110  Biso   1.000  C
  C2475    1.0000 0.72570  0.63350  0.86110  Biso   1.000  C
  C2476    1.0000 0.36650  0.72570  0.86110  Biso   1.000  C
  C2477    1.0000 0.27430  0.63890  0.86650  Biso   1.000  C
  C2478    1.0000 0.27430  0.63350  0.13890  Biso   1.000  C
  C2479    1.0000 0.27430  0.36110  0.13350  Biso   1.000  C
  C2480    1.0000 0.36110  0.36650  0.22570  Biso   1.000  C
  C2481    1.0000 0.72570  0.36650  0.13890  Biso   1.000  C
  C2482    1.0000 0.63890  0.36650  0.77430  Biso   1.000  C
  C2483    1.0000 0.36110  0.27430  0.86650  Biso   1.000  C
  C2484    1.0000 0.36650  0.36110  0.77430  Biso   1.000  C
  C2485    1.0000 0.63350  0.63890  0.77430  Biso   1.000  C
  C2486    1.0000 0.36110  0.72570  0.13350  Biso   1.000  C
  C2487    1.0000 0.63350  0.36110  0.22570  Biso   1.000  C
  C2488    1.0000 0.63890  0.72570  0.86650  Biso   1.000  C
  C2489    1.0000 0.63890  0.27430  0.13350  Biso   1.000  C
  C2490    1.0000 0.36650  0.63890  0.22570  Biso   1.000  C
  C2491    1.0000 0.36650  0.27430  0.13890  Biso   1.000  C
  C2492    1.0000 0.63350  0.72570  0.13890  Biso   1.000  C
  C2493    1.0000 0.72570  0.36110  0.86650  Biso   1.000  C
  C2494    1.0000 0.72570  0.63890  0.13350  Biso   1.000  C
  C2495    1.0000 0.36110  0.63350  0.77430  Biso   1.000  C
  C2496    1.0000 0.63890  0.63350  0.22570  Biso   1.000  C
  C2497    1.0000 0.25260  0.12100  0.13000  Biso   1.000  C
  C2498    1.0000 0.87900  0.25260  0.13000  Biso   1.000  C
  C2499    1.0000 0.74740  0.87900  0.13000  Biso   1.000  C
  C2500    1.0000 0.12100  0.74740  0.13000  Biso   1.000  C
  C2501    1.0000 0.25260  0.87000  0.12100  Biso   1.000  C
  C2502    1.0000 0.25260  0.87900  0.87000  Biso   1.000  C
  C2503    1.0000 0.25260  0.13000  0.87900  Biso   1.000  C
  C2504    1.0000 0.13000  0.12100  0.74740  Biso   1.000  C
  C2505    1.0000 0.74740  0.12100  0.87000  Biso   1.000  C
  C2506    1.0000 0.87000  0.12100  0.25260  Biso   1.000  C
  C2507    1.0000 0.13000  0.25260  0.12100  Biso   1.000  C
  C2508    1.0000 0.12100  0.13000  0.25260  Biso   1.000  C
  C2509    1.0000 0.87900  0.87000  0.25260  Biso   1.000  C
  C2510    1.0000 0.13000  0.74740  0.87900  Biso   1.000  C
  C2511    1.0000 0.87900  0.13000  0.74740  Biso   1.000  C
  C2512    1.0000 0.87000  0.74740  0.12100  Biso   1.000  C
  C2513    1.0000 0.87000  0.25260  0.87900  Biso   1.000  C
  C2514    1.0000 0.12100  0.87000  0.74740  Biso   1.000  C
  C2515    1.0000 0.12100  0.25260  0.87000  Biso   1.000  C
  C2516    1.0000 0.87900  0.74740  0.87000  Biso   1.000  C
  C2517    1.0000 0.74740  0.13000  0.12100  Biso   1.000  C
  C2518    1.0000 0.74740  0.87000  0.87900  Biso   1.000  C
  C2519    1.0000 0.13000  0.87900  0.25260  Biso   1.000  C
  C2520    1.0000 0.87000  0.87900  0.74740  Biso   1.000  C
  C2521    1.0000 0.25260  0.62100  0.63000  Biso   1.000  C
  C2522    1.0000 0.87900  0.75260  0.63000  Biso   1.000  C
  C2523    1.0000 0.74740  0.37900  0.63000  Biso   1.000  C
  C2524    1.0000 0.12100  0.24740  0.63000  Biso   1.000  C
  C2525    1.0000 0.25260  0.37000  0.62100  Biso   1.000  C
  C2526    1.0000 0.25260  0.37900  0.37000  Biso   1.000  C
  C2527    1.0000 0.25260  0.63000  0.37900  Biso   1.000  C
  C2528    1.0000 0.13000  0.62100  0.24740  Biso   1.000  C
  C2529    1.0000 0.74740  0.62100  0.37000  Biso   1.000  C
  C2530    1.0000 0.87000  0.62100  0.75260  Biso   1.000  C
  C2531    1.0000 0.13000  0.75260  0.62100  Biso   1.000  C
  C2532    1.0000 0.12100  0.63000  0.75260  Biso   1.000  C
  C2533    1.0000 0.87900  0.37000  0.75260  Biso   1.000  C
  C2534    1.0000 0.13000  0.24740  0.37900  Biso   1.000  C
  C2535    1.0000 0.87900  0.63000  0.24740  Biso   1.000  C
  C2536    1.0000 0.87000  0.24740  0.62100  Biso   1.000  C
  C2537    1.0000 0.87000  0.75260  0.37900  Biso   1.000  C
  C2538    1.0000 0.12100  0.37000  0.24740  Biso   1.000  C
  C2539    1.0000 0.12100  0.75260  0.37000  Biso   1.000  C
  C2540    1.0000 0.87900  0.24740  0.37000  Biso   1.000  C
  C2541    1.0000 0.74740  0.63000  0.62100  Biso   1.000  C
  C2542    1.0000 0.74740  0.37000  0.37900  Biso   1.000  C
  C2543    1.0000 0.13000  0.37900  0.75260  Biso   1.000  C
  C2544    1.0000 0.87000  0.37900  0.24740  Biso   1.000  C
  C2545    1.0000 0.75260  0.12100  0.63000  Biso   1.000  C
  C2546    1.0000 0.37900  0.25260  0.63000  Biso   1.000  C
  C2547    1.0000 0.24740  0.87900  0.63000  Biso   1.000  C
  C2548    1.0000 0.62100  0.74740  0.63000  Biso   1.000  C
  C2549    1.0000 0.75260  0.87000  0.62100  Biso   1.000  C
  C2550    1.0000 0.75260  0.87900  0.37000  Biso   1.000  C
  C2551    1.0000 0.75260  0.13000  0.37900  Biso   1.000  C
  C2552    1.0000 0.63000  0.12100  0.24740  Biso   1.000  C
  C2553    1.0000 0.24740  0.12100  0.37000  Biso   1.000  C
  C2554    1.0000 0.37000  0.12100  0.75260  Biso   1.000  C
  C2555    1.0000 0.63000  0.25260  0.62100  Biso   1.000  C
  C2556    1.0000 0.62100  0.13000  0.75260  Biso   1.000  C
  C2557    1.0000 0.37900  0.87000  0.75260  Biso   1.000  C
  C2558    1.0000 0.63000  0.74740  0.37900  Biso   1.000  C
  C2559    1.0000 0.37900  0.13000  0.24740  Biso   1.000  C
  C2560    1.0000 0.37000  0.74740  0.62100  Biso   1.000  C
  C2561    1.0000 0.37000  0.25260  0.37900  Biso   1.000  C
  C2562    1.0000 0.62100  0.87000  0.24740  Biso   1.000  C
  C2563    1.0000 0.62100  0.25260  0.37000  Biso   1.000  C
  C2564    1.0000 0.37900  0.74740  0.37000  Biso   1.000  C
  C2565    1.0000 0.24740  0.13000  0.62100  Biso   1.000  C
  C2566    1.0000 0.24740  0.87000  0.37900  Biso   1.000  C
  C2567    1.0000 0.63000  0.87900  0.75260  Biso   1.000  C
  C2568    1.0000 0.37000  0.87900  0.24740  Biso   1.000  C
  C2569    1.0000 0.75260  0.62100  0.13000  Biso   1.000  C
  C2570    1.0000 0.37900  0.75260  0.13000  Biso   1.000  C
  C2571    1.0000 0.24740  0.37900  0.13000  Biso   1.000  C
  C2572    1.0000 0.62100  0.24740  0.13000  Biso   1.000  C
  C2573    1.0000 0.75260  0.37000  0.12100  Biso   1.000  C
  C2574    1.0000 0.75260  0.37900  0.87000  Biso   1.000  C
  C2575    1.0000 0.75260  0.63000  0.87900  Biso   1.000  C
  C2576    1.0000 0.63000  0.62100  0.74740  Biso   1.000  C
  C2577    1.0000 0.24740  0.62100  0.87000  Biso   1.000  C
  C2578    1.0000 0.37000  0.62100  0.25260  Biso   1.000  C
  C2579    1.0000 0.63000  0.75260  0.12100  Biso   1.000  C
  C2580    1.0000 0.62100  0.63000  0.25260  Biso   1.000  C
  C2581    1.0000 0.37900  0.37000  0.25260  Biso   1.000  C
  C2582    1.0000 0.63000  0.24740  0.87900  Biso   1.000  C
  C2583    1.0000 0.37900  0.63000  0.74740  Biso   1.000  C
  C2584    1.0000 0.37000  0.24740  0.12100  Biso   1.000  C
  C2585    1.0000 0.37000  0.75260  0.87900  Biso   1.000  C
  C2586    1.0000 0.62100  0.37000  0.74740  Biso   1.000  C
  C2587    1.0000 0.62100  0.75260  0.87000  Biso   1.000  C
  C2588    1.0000 0.37900  0.24740  0.87000  Biso   1.000  C
  C2589    1.0000 0.24740  0.63000  0.12100  Biso   1.000  C
  C2590    1.0000 0.24740  0.37000  0.87900  Biso   1.000  C
  C2591    1.0000 0.63000  0.37900  0.25260  Biso   1.000  C
  C2592    1.0000 0.37000  0.37900  0.74740  Biso   1.000  C
  C2593    1.0000 0.74740  0.87900  0.87000  Biso   1.000  C
  C2594    1.0000 0.12100  0.74740  0.87000  Biso   1.000  C
  C2595    1.0000 0.25260  0.12100  0.87000  Biso   1.000  C
  C2596    1.0000 0.87900  0.25260  0.87000  Biso   1.000  C
  C2597    1.0000 0.74740  0.13000  0.87900  Biso   1.000  C
  C2598    1.0000 0.74740  0.12100  0.13000  Biso   1.000  C
  C2599    1.0000 0.74740  0.87000  0.12100  Biso   1.000  C
  C2600    1.0000 0.87000  0.87900  0.25260  Biso   1.000  C
  C2601    1.0000 0.25260  0.87900  0.13000  Biso   1.000  C
  C2602    1.0000 0.13000  0.87900  0.74740  Biso   1.000  C
  C2603    1.0000 0.87000  0.74740  0.87900  Biso   1.000  C
  C2604    1.0000 0.87900  0.87000  0.74740  Biso   1.000  C
  C2605    1.0000 0.12100  0.13000  0.74740  Biso   1.000  C
  C2606    1.0000 0.87000  0.25260  0.12100  Biso   1.000  C
  C2607    1.0000 0.12100  0.87000  0.25260  Biso   1.000  C
  C2608    1.0000 0.13000  0.25260  0.87900  Biso   1.000  C
  C2609    1.0000 0.13000  0.74740  0.12100  Biso   1.000  C
  C2610    1.0000 0.87900  0.13000  0.25260  Biso   1.000  C
  C2611    1.0000 0.87900  0.74740  0.13000  Biso   1.000  C
  C2612    1.0000 0.12100  0.25260  0.13000  Biso   1.000  C
  C2613    1.0000 0.25260  0.87000  0.87900  Biso   1.000  C
  C2614    1.0000 0.25260  0.13000  0.12100  Biso   1.000  C
  C2615    1.0000 0.87000  0.12100  0.74740  Biso   1.000  C
  C2616    1.0000 0.13000  0.12100  0.25260  Biso   1.000  C
  C2617    1.0000 0.74740  0.37900  0.37000  Biso   1.000  C
  C2618    1.0000 0.12100  0.24740  0.37000  Biso   1.000  C
  C2619    1.0000 0.25260  0.62100  0.37000  Biso   1.000  C
  C2620    1.0000 0.87900  0.75260  0.37000  Biso   1.000  C
  C2621    1.0000 0.74740  0.63000  0.37900  Biso   1.000  C
  C2622    1.0000 0.74740  0.62100  0.63000  Biso   1.000  C
  C2623    1.0000 0.74740  0.37000  0.62100  Biso   1.000  C
  C2624    1.0000 0.87000  0.37900  0.75260  Biso   1.000  C
  C2625    1.0000 0.25260  0.37900  0.63000  Biso   1.000  C
  C2626    1.0000 0.13000  0.37900  0.24740  Biso   1.000  C
  C2627    1.0000 0.87000  0.24740  0.37900  Biso   1.000  C
  C2628    1.0000 0.87900  0.37000  0.24740  Biso   1.000  C
  C2629    1.0000 0.12100  0.63000  0.24740  Biso   1.000  C
  C2630    1.0000 0.87000  0.75260  0.62100  Biso   1.000  C
  C2631    1.0000 0.12100  0.37000  0.75260  Biso   1.000  C
  C2632    1.0000 0.13000  0.75260  0.37900  Biso   1.000  C
  C2633    1.0000 0.13000  0.24740  0.62100  Biso   1.000  C
  C2634    1.0000 0.87900  0.63000  0.75260  Biso   1.000  C
  C2635    1.0000 0.87900  0.24740  0.63000  Biso   1.000  C
  C2636    1.0000 0.12100  0.75260  0.63000  Biso   1.000  C
  C2637    1.0000 0.25260  0.37000  0.37900  Biso   1.000  C
  C2638    1.0000 0.25260  0.63000  0.62100  Biso   1.000  C
  C2639    1.0000 0.87000  0.62100  0.24740  Biso   1.000  C
  C2640    1.0000 0.13000  0.62100  0.75260  Biso   1.000  C
  C2641    1.0000 0.24740  0.87900  0.37000  Biso   1.000  C
  C2642    1.0000 0.62100  0.74740  0.37000  Biso   1.000  C
  C2643    1.0000 0.75260  0.12100  0.37000  Biso   1.000  C
  C2644    1.0000 0.37900  0.25260  0.37000  Biso   1.000  C
  C2645    1.0000 0.24740  0.13000  0.37900  Biso   1.000  C
  C2646    1.0000 0.24740  0.12100  0.63000  Biso   1.000  C
  C2647    1.0000 0.24740  0.87000  0.62100  Biso   1.000  C
  C2648    1.0000 0.37000  0.87900  0.75260  Biso   1.000  C
  C2649    1.0000 0.75260  0.87900  0.63000  Biso   1.000  C
  C2650    1.0000 0.63000  0.87900  0.24740  Biso   1.000  C
  C2651    1.0000 0.37000  0.74740  0.37900  Biso   1.000  C
  C2652    1.0000 0.37900  0.87000  0.24740  Biso   1.000  C
  C2653    1.0000 0.62100  0.13000  0.24740  Biso   1.000  C
  C2654    1.0000 0.37000  0.25260  0.62100  Biso   1.000  C
  C2655    1.0000 0.62100  0.87000  0.75260  Biso   1.000  C
  C2656    1.0000 0.63000  0.25260  0.37900  Biso   1.000  C
  C2657    1.0000 0.63000  0.74740  0.62100  Biso   1.000  C
  C2658    1.0000 0.37900  0.13000  0.75260  Biso   1.000  C
  C2659    1.0000 0.37900  0.74740  0.63000  Biso   1.000  C
  C2660    1.0000 0.62100  0.25260  0.63000  Biso   1.000  C
  C2661    1.0000 0.75260  0.87000  0.37900  Biso   1.000  C
  C2662    1.0000 0.75260  0.13000  0.62100  Biso   1.000  C
  C2663    1.0000 0.37000  0.12100  0.24740  Biso   1.000  C
  C2664    1.0000 0.63000  0.12100  0.75260  Biso   1.000  C
  C2665    1.0000 0.24740  0.37900  0.87000  Biso   1.000  C
  C2666    1.0000 0.62100  0.24740  0.87000  Biso   1.000  C
  C2667    1.0000 0.75260  0.62100  0.87000  Biso   1.000  C
  C2668    1.0000 0.37900  0.75260  0.87000  Biso   1.000  C
  C2669    1.0000 0.24740  0.63000  0.87900  Biso   1.000  C
  C2670    1.0000 0.24740  0.62100  0.13000  Biso   1.000  C
  C2671    1.0000 0.24740  0.37000  0.12100  Biso   1.000  C
  C2672    1.0000 0.37000  0.37900  0.25260  Biso   1.000  C
  C2673    1.0000 0.75260  0.37900  0.13000  Biso   1.000  C
  C2674    1.0000 0.63000  0.37900  0.74740  Biso   1.000  C
  C2675    1.0000 0.37000  0.24740  0.87900  Biso   1.000  C
  C2676    1.0000 0.37900  0.37000  0.74740  Biso   1.000  C
  C2677    1.0000 0.62100  0.63000  0.74740  Biso   1.000  C
  C2678    1.0000 0.37000  0.75260  0.12100  Biso   1.000  C
  C2679    1.0000 0.62100  0.37000  0.25260  Biso   1.000  C
  C2680    1.0000 0.63000  0.75260  0.87900  Biso   1.000  C
  C2681    1.0000 0.63000  0.24740  0.12100  Biso   1.000  C
  C2682    1.0000 0.37900  0.63000  0.25260  Biso   1.000  C
  C2683    1.0000 0.37900  0.24740  0.13000  Biso   1.000  C
  C2684    1.0000 0.62100  0.75260  0.13000  Biso   1.000  C
  C2685    1.0000 0.75260  0.37000  0.87900  Biso   1.000  C
  C2686    1.0000 0.75260  0.63000  0.12100  Biso   1.000  C
  C2687    1.0000 0.37000  0.62100  0.74740  Biso   1.000  C
  C2688    1.0000 0.63000  0.62100  0.25260  Biso   1.000  C
  C2689    1.0000 0.27800  0.12760  0.14620  Biso   1.000  C
  C2690    1.0000 0.87240  0.27800  0.14620  Biso   1.000  C
  C2691    1.0000 0.72200  0.87240  0.14620  Biso   1.000  C
  C2692    1.0000 0.12760  0.72200  0.14620  Biso   1.000  C
  C2693    1.0000 0.27800  0.85380  0.12760  Biso   1.000  C
  C2694    1.0000 0.27800  0.87240  0.85380  Biso   1.000  C
  C2695    1.0000 0.27800  0.14620  0.87240  Biso   1.000  C
  C2696    1.0000 0.14620  0.12760  0.72200  Biso   1.000  C
  C2697    1.0000 0.72200  0.12760  0.85380  Biso   1.000  C
  C2698    1.0000 0.85380  0.12760  0.27800  Biso   1.000  C
  C2699    1.0000 0.14620  0.27800  0.12760  Biso   1.000  C
  C2700    1.0000 0.12760  0.14620  0.27800  Biso   1.000  C
  C2701    1.0000 0.87240  0.85380  0.27800  Biso   1.000  C
  C2702    1.0000 0.14620  0.72200  0.87240  Biso   1.000  C
  C2703    1.0000 0.87240  0.14620  0.72200  Biso   1.000  C
  C2704    1.0000 0.85380  0.72200  0.12760  Biso   1.000  C
  C2705    1.0000 0.85380  0.27800  0.87240  Biso   1.000  C
  C2706    1.0000 0.12760  0.85380  0.72200  Biso   1.000  C
  C2707    1.0000 0.12760  0.27800  0.85380  Biso   1.000  C
  C2708    1.0000 0.87240  0.72200  0.85380  Biso   1.000  C
  C2709    1.0000 0.72200  0.14620  0.12760  Biso   1.000  C
  C2710    1.0000 0.72200  0.85380  0.87240  Biso   1.000  C
  C2711    1.0000 0.14620  0.87240  0.27800  Biso   1.000  C
  C2712    1.0000 0.85380  0.87240  0.72200  Biso   1.000  C
  C2713    1.0000 0.27800  0.62760  0.64620  Biso   1.000  C
  C2714    1.0000 0.87240  0.77800  0.64620  Biso   1.000  C
  C2715    1.0000 0.72200  0.37240  0.64620  Biso   1.000  C
  C2716    1.0000 0.12760  0.22200  0.64620  Biso   1.000  C
  C2717    1.0000 0.27800  0.35380  0.62760  Biso   1.000  C
  C2718    1.0000 0.27800  0.37240  0.35380  Biso   1.000  C
  C2719    1.0000 0.27800  0.64620  0.37240  Biso   1.000  C
  C2720    1.0000 0.14620  0.62760  0.22200  Biso   1.000  C
  C2721    1.0000 0.72200  0.62760  0.35380  Biso   1.000  C
  C2722    1.0000 0.85380  0.62760  0.77800  Biso   1.000  C
  C2723    1.0000 0.14620  0.77800  0.62760  Biso   1.000  C
  C2724    1.0000 0.12760  0.64620  0.77800  Biso   1.000  C
  C2725    1.0000 0.87240  0.35380  0.77800  Biso   1.000  C
  C2726    1.0000 0.14620  0.22200  0.37240  Biso   1.000  C
  C2727    1.0000 0.87240  0.64620  0.22200  Biso   1.000  C
  C2728    1.0000 0.85380  0.22200  0.62760  Biso   1.000  C
  C2729    1.0000 0.85380  0.77800  0.37240  Biso   1.000  C
  C2730    1.0000 0.12760  0.35380  0.22200  Biso   1.000  C
  C2731    1.0000 0.12760  0.77800  0.35380  Biso   1.000  C
  C2732    1.0000 0.87240  0.22200  0.35380  Biso   1.000  C
  C2733    1.0000 0.72200  0.64620  0.62760  Biso   1.000  C
  C2734    1.0000 0.72200  0.35380  0.37240  Biso   1.000  C
  C2735    1.0000 0.14620  0.37240  0.77800  Biso   1.000  C
  C2736    1.0000 0.85380  0.37240  0.22200  Biso   1.000  C
  C2737    1.0000 0.77800  0.12760  0.64620  Biso   1.000  C
  C2738    1.0000 0.37240  0.27800  0.64620  Biso   1.000  C
  C2739    1.0000 0.22200  0.87240  0.64620  Biso   1.000  C
  C2740    1.0000 0.62760  0.72200  0.64620  Biso   1.000  C
  C2741    1.0000 0.77800  0.85380  0.62760  Biso   1.000  C
  C2742    1.0000 0.77800  0.87240  0.35380  Biso   1.000  C
  C2743    1.0000 0.77800  0.14620  0.37240  Biso   1.000  C
  C2744    1.0000 0.64620  0.12760  0.22200  Biso   1.000  C
  C2745    1.0000 0.22200  0.12760  0.35380  Biso   1.000  C
  C2746    1.0000 0.35380  0.12760  0.77800  Biso   1.000  C
  C2747    1.0000 0.64620  0.27800  0.62760  Biso   1.000  C
  C2748    1.0000 0.62760  0.14620  0.77800  Biso   1.000  C
  C2749    1.0000 0.37240  0.85380  0.77800  Biso   1.000  C
  C2750    1.0000 0.64620  0.72200  0.37240  Biso   1.000  C
  C2751    1.0000 0.37240  0.14620  0.22200  Biso   1.000  C
  C2752    1.0000 0.35380  0.72200  0.62760  Biso   1.000  C
  C2753    1.0000 0.35380  0.27800  0.37240  Biso   1.000  C
  C2754    1.0000 0.62760  0.85380  0.22200  Biso   1.000  C
  C2755    1.0000 0.62760  0.27800  0.35380  Biso   1.000  C
  C2756    1.0000 0.37240  0.72200  0.35380  Biso   1.000  C
  C2757    1.0000 0.22200  0.14620  0.62760  Biso   1.000  C
  C2758    1.0000 0.22200  0.85380  0.37240  Biso   1.000  C
  C2759    1.0000 0.64620  0.87240  0.77800  Biso   1.000  C
  C2760    1.0000 0.35380  0.87240  0.22200  Biso   1.000  C
  C2761    1.0000 0.77800  0.62760  0.14620  Biso   1.000  C
  C2762    1.0000 0.37240  0.77800  0.14620  Biso   1.000  C
  C2763    1.0000 0.22200  0.37240  0.14620  Biso   1.000  C
  C2764    1.0000 0.62760  0.22200  0.14620  Biso   1.000  C
  C2765    1.0000 0.77800  0.35380  0.12760  Biso   1.000  C
  C2766    1.0000 0.77800  0.37240  0.85380  Biso   1.000  C
  C2767    1.0000 0.77800  0.64620  0.87240  Biso   1.000  C
  C2768    1.0000 0.64620  0.62760  0.72200  Biso   1.000  C
  C2769    1.0000 0.22200  0.62760  0.85380  Biso   1.000  C
  C2770    1.0000 0.35380  0.62760  0.27800  Biso   1.000  C
  C2771    1.0000 0.64620  0.77800  0.12760  Biso   1.000  C
  C2772    1.0000 0.62760  0.64620  0.27800  Biso   1.000  C
  C2773    1.0000 0.37240  0.35380  0.27800  Biso   1.000  C
  C2774    1.0000 0.64620  0.22200  0.87240  Biso   1.000  C
  C2775    1.0000 0.37240  0.64620  0.72200  Biso   1.000  C
  C2776    1.0000 0.35380  0.22200  0.12760  Biso   1.000  C
  C2777    1.0000 0.35380  0.77800  0.87240  Biso   1.000  C
  C2778    1.0000 0.62760  0.35380  0.72200  Biso   1.000  C
  C2779    1.0000 0.62760  0.77800  0.85380  Biso   1.000  C
  C2780    1.0000 0.37240  0.22200  0.85380  Biso   1.000  C
  C2781    1.0000 0.22200  0.64620  0.12760  Biso   1.000  C
  C2782    1.0000 0.22200  0.35380  0.87240  Biso   1.000  C
  C2783    1.0000 0.64620  0.37240  0.27800  Biso   1.000  C
  C2784    1.0000 0.35380  0.37240  0.72200  Biso   1.000  C
  C2785    1.0000 0.72200  0.87240  0.85380  Biso   1.000  C
  C2786    1.0000 0.12760  0.72200  0.85380  Biso   1.000  C
  C2787    1.0000 0.27800  0.12760  0.85380  Biso   1.000  C
  C2788    1.0000 0.87240  0.27800  0.85380  Biso   1.000  C
  C2789    1.0000 0.72200  0.14620  0.87240  Biso   1.000  C
  C2790    1.0000 0.72200  0.12760  0.14620  Biso   1.000  C
  C2791    1.0000 0.72200  0.85380  0.12760  Biso   1.000  C
  C2792    1.0000 0.85380  0.87240  0.27800  Biso   1.000  C
  C2793    1.0000 0.27800  0.87240  0.14620  Biso   1.000  C
  C2794    1.0000 0.14620  0.87240  0.72200  Biso   1.000  C
  C2795    1.0000 0.85380  0.72200  0.87240  Biso   1.000  C
  C2796    1.0000 0.87240  0.85380  0.72200  Biso   1.000  C
  C2797    1.0000 0.12760  0.14620  0.72200  Biso   1.000  C
  C2798    1.0000 0.85380  0.27800  0.12760  Biso   1.000  C
  C2799    1.0000 0.12760  0.85380  0.27800  Biso   1.000  C
  C2800    1.0000 0.14620  0.27800  0.87240  Biso   1.000  C
  C2801    1.0000 0.14620  0.72200  0.12760  Biso   1.000  C
  C2802    1.0000 0.87240  0.14620  0.27800  Biso   1.000  C
  C2803    1.0000 0.87240  0.72200  0.14620  Biso   1.000  C
  C2804    1.0000 0.12760  0.27800  0.14620  Biso   1.000  C
  C2805    1.0000 0.27800  0.85380  0.87240  Biso   1.000  C
  C2806    1.0000 0.27800  0.14620  0.12760  Biso   1.000  C
  C2807    1.0000 0.85380  0.12760  0.72200  Biso   1.000  C
  C2808    1.0000 0.14620  0.12760  0.27800  Biso   1.000  C
  C2809    1.0000 0.72200  0.37240  0.35380  Biso   1.000  C
  C2810    1.0000 0.12760  0.22200  0.35380  Biso   1.000  C
  C2811    1.0000 0.27800  0.62760  0.35380  Biso   1.000  C
  C2812    1.0000 0.87240  0.77800  0.35380  Biso   1.000  C
  C2813    1.0000 0.72200  0.64620  0.37240  Biso   1.000  C
  C2814    1.0000 0.72200  0.62760  0.64620  Biso   1.000  C
  C2815    1.0000 0.72200  0.35380  0.62760  Biso   1.000  C
  C2816    1.0000 0.85380  0.37240  0.77800  Biso   1.000  C
  C2817    1.0000 0.27800  0.37240  0.64620  Biso   1.000  C
  C2818    1.0000 0.14620  0.37240  0.22200  Biso   1.000  C
  C2819    1.0000 0.85380  0.22200  0.37240  Biso   1.000  C
  C2820    1.0000 0.87240  0.35380  0.22200  Biso   1.000  C
  C2821    1.0000 0.12760  0.64620  0.22200  Biso   1.000  C
  C2822    1.0000 0.85380  0.77800  0.62760  Biso   1.000  C
  C2823    1.0000 0.12760  0.35380  0.77800  Biso   1.000  C
  C2824    1.0000 0.14620  0.77800  0.37240  Biso   1.000  C
  C2825    1.0000 0.14620  0.22200  0.62760  Biso   1.000  C
  C2826    1.0000 0.87240  0.64620  0.77800  Biso   1.000  C
  C2827    1.0000 0.87240  0.22200  0.64620  Biso   1.000  C
  C2828    1.0000 0.12760  0.77800  0.64620  Biso   1.000  C
  C2829    1.0000 0.27800  0.35380  0.37240  Biso   1.000  C
  C2830    1.0000 0.27800  0.64620  0.62760  Biso   1.000  C
  C2831    1.0000 0.85380  0.62760  0.22200  Biso   1.000  C
  C2832    1.0000 0.14620  0.62760  0.77800  Biso   1.000  C
  C2833    1.0000 0.22200  0.87240  0.35380  Biso   1.000  C
  C2834    1.0000 0.62760  0.72200  0.35380  Biso   1.000  C
  C2835    1.0000 0.77800  0.12760  0.35380  Biso   1.000  C
  C2836    1.0000 0.37240  0.27800  0.35380  Biso   1.000  C
  C2837    1.0000 0.22200  0.14620  0.37240  Biso   1.000  C
  C2838    1.0000 0.22200  0.12760  0.64620  Biso   1.000  C
  C2839    1.0000 0.22200  0.85380  0.62760  Biso   1.000  C
  C2840    1.0000 0.35380  0.87240  0.77800  Biso   1.000  C
  C2841    1.0000 0.77800  0.87240  0.64620  Biso   1.000  C
  C2842    1.0000 0.64620  0.87240  0.22200  Biso   1.000  C
  C2843    1.0000 0.35380  0.72200  0.37240  Biso   1.000  C
  C2844    1.0000 0.37240  0.85380  0.22200  Biso   1.000  C
  C2845    1.0000 0.62760  0.14620  0.22200  Biso   1.000  C
  C2846    1.0000 0.35380  0.27800  0.62760  Biso   1.000  C
  C2847    1.0000 0.62760  0.85380  0.77800  Biso   1.000  C
  C2848    1.0000 0.64620  0.27800  0.37240  Biso   1.000  C
  C2849    1.0000 0.64620  0.72200  0.62760  Biso   1.000  C
  C2850    1.0000 0.37240  0.14620  0.77800  Biso   1.000  C
  C2851    1.0000 0.37240  0.72200  0.64620  Biso   1.000  C
  C2852    1.0000 0.62760  0.27800  0.64620  Biso   1.000  C
  C2853    1.0000 0.77800  0.85380  0.37240  Biso   1.000  C
  C2854    1.0000 0.77800  0.14620  0.62760  Biso   1.000  C
  C2855    1.0000 0.35380  0.12760  0.22200  Biso   1.000  C
  C2856    1.0000 0.64620  0.12760  0.77800  Biso   1.000  C
  C2857    1.0000 0.22200  0.37240  0.85380  Biso   1.000  C
  C2858    1.0000 0.62760  0.22200  0.85380  Biso   1.000  C
  C2859    1.0000 0.77800  0.62760  0.85380  Biso   1.000  C
  C2860    1.0000 0.37240  0.77800  0.85380  Biso   1.000  C
  C2861    1.0000 0.22200  0.64620  0.87240  Biso   1.000  C
  C2862    1.0000 0.22200  0.62760  0.14620  Biso   1.000  C
  C2863    1.0000 0.22200  0.35380  0.12760  Biso   1.000  C
  C2864    1.0000 0.35380  0.37240  0.27800  Biso   1.000  C
  C2865    1.0000 0.77800  0.37240  0.14620  Biso   1.000  C
  C2866    1.0000 0.64620  0.37240  0.72200  Biso   1.000  C
  C2867    1.0000 0.35380  0.22200  0.87240  Biso   1.000  C
  C2868    1.0000 0.37240  0.35380  0.72200  Biso   1.000  C
  C2869    1.0000 0.62760  0.64620  0.72200  Biso   1.000  C
  C2870    1.0000 0.35380  0.77800  0.12760  Biso   1.000  C
  C2871    1.0000 0.62760  0.35380  0.27800  Biso   1.000  C
  C2872    1.0000 0.64620  0.77800  0.87240  Biso   1.000  C
  C2873    1.0000 0.64620  0.22200  0.12760  Biso   1.000  C
  C2874    1.0000 0.37240  0.64620  0.27800  Biso   1.000  C
  C2875    1.0000 0.37240  0.22200  0.14620  Biso   1.000  C
  C2876    1.0000 0.62760  0.77800  0.14620  Biso   1.000  C
  C2877    1.0000 0.77800  0.35380  0.87240  Biso   1.000  C
  C2878    1.0000 0.77800  0.64620  0.12760  Biso   1.000  C
  C2879    1.0000 0.35380  0.62760  0.72200  Biso   1.000  C
  C2880    1.0000 0.64620  0.62760  0.27800  Biso   1.000  C
  C2881    1.0000 0.27690  0.14600  0.17040  Biso   1.000  C
  C2882    1.0000 0.85400  0.27690  0.17040  Biso   1.000  C
  C2883    1.0000 0.72310  0.85400  0.17040  Biso   1.000  C
  C2884    1.0000 0.14600  0.72310  0.17040  Biso   1.000  C
  C2885    1.0000 0.27690  0.82960  0.14600  Biso   1.000  C
  C2886    1.0000 0.27690  0.85400  0.82960  Biso   1.000  C
  C2887    1.0000 0.27690  0.17040  0.85400  Biso   1.000  C
  C2888    1.0000 0.17040  0.14600  0.72310  Biso   1.000  C
  C2889    1.0000 0.72310  0.14600  0.82960  Biso   1.000  C
  C2890    1.0000 0.82960  0.14600  0.27690  Biso   1.000  C
  C2891    1.0000 0.17040  0.27690  0.14600  Biso   1.000  C
  C2892    1.0000 0.14600  0.17040  0.27690  Biso   1.000  C
  C2893    1.0000 0.85400  0.82960  0.27690  Biso   1.000  C
  C2894    1.0000 0.17040  0.72310  0.85400  Biso   1.000  C
  C2895    1.0000 0.85400  0.17040  0.72310  Biso   1.000  C
  C2896    1.0000 0.82960  0.72310  0.14600  Biso   1.000  C
  C2897    1.0000 0.82960  0.27690  0.85400  Biso   1.000  C
  C2898    1.0000 0.14600  0.82960  0.72310  Biso   1.000  C
  C2899    1.0000 0.14600  0.27690  0.82960  Biso   1.000  C
  C2900    1.0000 0.85400  0.72310  0.82960  Biso   1.000  C
  C2901    1.0000 0.72310  0.17040  0.14600  Biso   1.000  C
  C2902    1.0000 0.72310  0.82960  0.85400  Biso   1.000  C
  C2903    1.0000 0.17040  0.85400  0.27690  Biso   1.000  C
  C2904    1.0000 0.82960  0.85400  0.72310  Biso   1.000  C
  C2905    1.0000 0.27690  0.64600  0.67040  Biso   1.000  C
  C2906    1.0000 0.85400  0.77690  0.67040  Biso   1.000  C
  C2907    1.0000 0.72310  0.35400  0.67040  Biso   1.000  C
  C2908    1.0000 0.14600  0.22310  0.67040  Biso   1.000  C
  C2909    1.0000 0.27690  0.32960  0.64600  Biso   1.000  C
  C2910    1.0000 0.27690  0.35400  0.32960  Biso   1.000  C
  C2911    1.0000 0.27690  0.67040  0.35400  Biso   1.000  C
  C2912    1.0000 0.17040  0.64600  0.22310  Biso   1.000  C
  C2913    1.0000 0.72310  0.64600  0.32960  Biso   1.000  C
  C2914    1.0000 0.82960  0.64600  0.77690  Biso   1.000  C
  C2915    1.0000 0.17040  0.77690  0.64600  Biso   1.000  C
  C2916    1.0000 0.14600  0.67040  0.77690  Biso   1.000  C
  C2917    1.0000 0.85400  0.32960  0.77690  Biso   1.000  C
  C2918    1.0000 0.17040  0.22310  0.35400  Biso   1.000  C
  C2919    1.0000 0.85400  0.67040  0.22310  Biso   1.000  C
  C2920    1.0000 0.82960  0.22310  0.64600  Biso   1.000  C
  C2921    1.0000 0.82960  0.77690  0.35400  Biso   1.000  C
  C2922    1.0000 0.14600  0.32960  0.22310  Biso   1.000  C
  C2923    1.0000 0.14600  0.77690  0.32960  Biso   1.000  C
  C2924    1.0000 0.85400  0.22310  0.32960  Biso   1.000  C
  C2925    1.0000 0.72310  0.67040  0.64600  Biso   1.000  C
  C2926    1.0000 0.72310  0.32960  0.35400  Biso   1.000  C
  C2927    1.0000 0.17040  0.35400  0.77690  Biso   1.000  C
  C2928    1.0000 0.82960  0.35400  0.22310  Biso   1.000  C
  C2929    1.0000 0.77690  0.14600  0.67040  Biso   1.000  C
  C2930    1.0000 0.35400  0.27690  0.67040  Biso   1.000  C
  C2931    1.0000 0.22310  0.85400  0.67040  Biso   1.000  C
  C2932    1.0000 0.64600  0.72310  0.67040  Biso   1.000  C
  C2933    1.0000 0.77690  0.82960  0.64600  Biso   1.000  C
  C2934    1.0000 0.77690  0.85400  0.32960  Biso   1.000  C
  C2935    1.0000 0.77690  0.17040  0.35400  Biso   1.000  C
  C2936    1.0000 0.67040  0.14600  0.22310  Biso   1.000  C
  C2937    1.0000 0.22310  0.14600  0.32960  Biso   1.000  C
  C2938    1.0000 0.32960  0.14600  0.77690  Biso   1.000  C
  C2939    1.0000 0.67040  0.27690  0.64600  Biso   1.000  C
  C2940    1.0000 0.64600  0.17040  0.77690  Biso   1.000  C
  C2941    1.0000 0.35400  0.82960  0.77690  Biso   1.000  C
  C2942    1.0000 0.67040  0.72310  0.35400  Biso   1.000  C
  C2943    1.0000 0.35400  0.17040  0.22310  Biso   1.000  C
  C2944    1.0000 0.32960  0.72310  0.64600  Biso   1.000  C
  C2945    1.0000 0.32960  0.27690  0.35400  Biso   1.000  C
  C2946    1.0000 0.64600  0.82960  0.22310  Biso   1.000  C
  C2947    1.0000 0.64600  0.27690  0.32960  Biso   1.000  C
  C2948    1.0000 0.35400  0.72310  0.32960  Biso   1.000  C
  C2949    1.0000 0.22310  0.17040  0.64600  Biso   1.000  C
  C2950    1.0000 0.22310  0.82960  0.35400  Biso   1.000  C
  C2951    1.0000 0.67040  0.85400  0.77690  Biso   1.000  C
  C2952    1.0000 0.32960  0.85400  0.22310  Biso   1.000  C
  C2953    1.0000 0.77690  0.64600  0.17040  Biso   1.000  C
  C2954    1.0000 0.35400  0.77690  0.17040  Biso   1.000  C
  C2955    1.0000 0.22310  0.35400  0.17040  Biso   1.000  C
  C2956    1.0000 0.64600  0.22310  0.17040  Biso   1.000  C
  C2957    1.0000 0.77690  0.32960  0.14600  Biso   1.000  C
  C2958    1.0000 0.77690  0.35400  0.82960  Biso   1.000  C
  C2959    1.0000 0.77690  0.67040  0.85400  Biso   1.000  C
  C2960    1.0000 0.67040  0.64600  0.72310  Biso   1.000  C
  C2961    1.0000 0.22310  0.64600  0.82960  Biso   1.000  C
  C2962    1.0000 0.32960  0.64600  0.27690  Biso   1.000  C
  C2963    1.0000 0.67040  0.77690  0.14600  Biso   1.000  C
  C2964    1.0000 0.64600  0.67040  0.27690  Biso   1.000  C
  C2965    1.0000 0.35400  0.32960  0.27690  Biso   1.000  C
  C2966    1.0000 0.67040  0.22310  0.85400  Biso   1.000  C
  C2967    1.0000 0.35400  0.67040  0.72310  Biso   1.000  C
  C2968    1.0000 0.32960  0.22310  0.14600  Biso   1.000  C
  C2969    1.0000 0.32960  0.77690  0.85400  Biso   1.000  C
  C2970    1.0000 0.64600  0.32960  0.72310  Biso   1.000  C
  C2971    1.0000 0.64600  0.77690  0.82960  Biso   1.000  C
  C2972    1.0000 0.35400  0.22310  0.82960  Biso   1.000  C
  C2973    1.0000 0.22310  0.67040  0.14600  Biso   1.000  C
  C2974    1.0000 0.22310  0.32960  0.85400  Biso   1.000  C
  C2975    1.0000 0.67040  0.35400  0.27690  Biso   1.000  C
  C2976    1.0000 0.32960  0.35400  0.72310  Biso   1.000  C
  C2977    1.0000 0.72310  0.85400  0.82960  Biso   1.000  C
  C2978    1.0000 0.14600  0.72310  0.82960  Biso   1.000  C
  C2979    1.0000 0.27690  0.14600  0.82960  Biso   1.000  C
  C2980    1.0000 0.85400  0.27690  0.82960  Biso   1.000  C
  C2981    1.0000 0.72310  0.17040  0.85400  Biso   1.000  C
  C2982    1.0000 0.72310  0.14600  0.17040  Biso   1.000  C
  C2983    1.0000 0.72310  0.82960  0.14600  Biso   1.000  C
  C2984    1.0000 0.82960  0.85400  0.27690  Biso   1.000  C
  C2985    1.0000 0.27690  0.85400  0.17040  Biso   1.000  C
  C2986    1.0000 0.17040  0.85400  0.72310  Biso   1.000  C
  C2987    1.0000 0.82960  0.72310  0.85400  Biso   1.000  C
  C2988    1.0000 0.85400  0.82960  0.72310  Biso   1.000  C
  C2989    1.0000 0.14600  0.17040  0.72310  Biso   1.000  C
  C2990    1.0000 0.82960  0.27690  0.14600  Biso   1.000  C
  C2991    1.0000 0.14600  0.82960  0.27690  Biso   1.000  C
  C2992    1.0000 0.17040  0.27690  0.85400  Biso   1.000  C
  C2993    1.0000 0.17040  0.72310  0.14600  Biso   1.000  C
  C2994    1.0000 0.85400  0.17040  0.27690  Biso   1.000  C
  C2995    1.0000 0.85400  0.72310  0.17040  Biso   1.000  C
  C2996    1.0000 0.14600  0.27690  0.17040  Biso   1.000  C
  C2997    1.0000 0.27690  0.82960  0.85400  Biso   1.000  C
  C2998    1.0000 0.27690  0.17040  0.14600  Biso   1.000  C
  C2999    1.0000 0.82960  0.14600  0.72310  Biso   1.000  C
  C3000    1.0000 0.17040  0.14600  0.27690  Biso   1.000  C
  C3001    1.0000 0.72310  0.35400  0.32960  Biso   1.000  C
  C3002    1.0000 0.14600  0.22310  0.32960  Biso   1.000  C
  C3003    1.0000 0.27690  0.64600  0.32960  Biso   1.000  C
  C3004    1.0000 0.85400  0.77690  0.32960  Biso   1.000  C
  C3005    1.0000 0.72310  0.67040  0.35400  Biso   1.000  C
  C3006    1.0000 0.72310  0.64600  0.67040  Biso   1.000  C
  C3007    1.0000 0.72310  0.32960  0.64600  Biso   1.000  C
  C3008    1.0000 0.82960  0.35400  0.77690  Biso   1.000  C
  C3009    1.0000 0.27690  0.35400  0.67040  Biso   1.000  C
  C3010    1.0000 0.17040  0.35400  0.22310  Biso   1.000  C
  C3011    1.0000 0.82960  0.22310  0.35400  Biso   1.000  C
  C3012    1.0000 0.85400  0.32960  0.22310  Biso   1.000  C
  C3013    1.0000 0.14600  0.67040  0.22310  Biso   1.000  C
  C3014    1.0000 0.82960  0.77690  0.64600  Biso   1.000  C
  C3015    1.0000 0.14600  0.32960  0.77690  Biso   1.000  C
  C3016    1.0000 0.17040  0.77690  0.35400  Biso   1.000  C
  C3017    1.0000 0.17040  0.22310  0.64600  Biso   1.000  C
  C3018    1.0000 0.85400  0.67040  0.77690  Biso   1.000  C
  C3019    1.0000 0.85400  0.22310  0.67040  Biso   1.000  C
  C3020    1.0000 0.14600  0.77690  0.67040  Biso   1.000  C
  C3021    1.0000 0.27690  0.32960  0.35400  Biso   1.000  C
  C3022    1.0000 0.27690  0.67040  0.64600  Biso   1.000  C
  C3023    1.0000 0.82960  0.64600  0.22310  Biso   1.000  C
  C3024    1.0000 0.17040  0.64600  0.77690  Biso   1.000  C
  C3025    1.0000 0.22310  0.85400  0.32960  Biso   1.000  C
  C3026    1.0000 0.64600  0.72310  0.32960  Biso   1.000  C
  C3027    1.0000 0.77690  0.14600  0.32960  Biso   1.000  C
  C3028    1.0000 0.35400  0.27690  0.32960  Biso   1.000  C
  C3029    1.0000 0.22310  0.17040  0.35400  Biso   1.000  C
  C3030    1.0000 0.22310  0.14600  0.67040  Biso   1.000  C
  C3031    1.0000 0.22310  0.82960  0.64600  Biso   1.000  C
  C3032    1.0000 0.32960  0.85400  0.77690  Biso   1.000  C
  C3033    1.0000 0.77690  0.85400  0.67040  Biso   1.000  C
  C3034    1.0000 0.67040  0.85400  0.22310  Biso   1.000  C
  C3035    1.0000 0.32960  0.72310  0.35400  Biso   1.000  C
  C3036    1.0000 0.35400  0.82960  0.22310  Biso   1.000  C
  C3037    1.0000 0.64600  0.17040  0.22310  Biso   1.000  C
  C3038    1.0000 0.32960  0.27690  0.64600  Biso   1.000  C
  C3039    1.0000 0.64600  0.82960  0.77690  Biso   1.000  C
  C3040    1.0000 0.67040  0.27690  0.35400  Biso   1.000  C
  C3041    1.0000 0.67040  0.72310  0.64600  Biso   1.000  C
  C3042    1.0000 0.35400  0.17040  0.77690  Biso   1.000  C
  C3043    1.0000 0.35400  0.72310  0.67040  Biso   1.000  C
  C3044    1.0000 0.64600  0.27690  0.67040  Biso   1.000  C
  C3045    1.0000 0.77690  0.82960  0.35400  Biso   1.000  C
  C3046    1.0000 0.77690  0.17040  0.64600  Biso   1.000  C
  C3047    1.0000 0.32960  0.14600  0.22310  Biso   1.000  C
  C3048    1.0000 0.67040  0.14600  0.77690  Biso   1.000  C
  C3049    1.0000 0.22310  0.35400  0.82960  Biso   1.000  C
  C3050    1.0000 0.64600  0.22310  0.82960  Biso   1.000  C
  C3051    1.0000 0.77690  0.64600  0.82960  Biso   1.000  C
  C3052    1.0000 0.35400  0.77690  0.82960  Biso   1.000  C
  C3053    1.0000 0.22310  0.67040  0.85400  Biso   1.000  C
  C3054    1.0000 0.22310  0.64600  0.17040  Biso   1.000  C
  C3055    1.0000 0.22310  0.32960  0.14600  Biso   1.000  C
  C3056    1.0000 0.32960  0.35400  0.27690  Biso   1.000  C
  C3057    1.0000 0.77690  0.35400  0.17040  Biso   1.000  C
  C3058    1.0000 0.67040  0.35400  0.72310  Biso   1.000  C
  C3059    1.0000 0.32960  0.22310  0.85400  Biso   1.000  C
  C3060    1.0000 0.35400  0.32960  0.72310  Biso   1.000  C
  C3061    1.0000 0.64600  0.67040  0.72310  Biso   1.000  C
  C3062    1.0000 0.32960  0.77690  0.14600  Biso   1.000  C
  C3063    1.0000 0.64600  0.32960  0.27690  Biso   1.000  C
  C3064    1.0000 0.67040  0.77690  0.85400  Biso   1.000  C
  C3065    1.0000 0.67040  0.22310  0.14600  Biso   1.000  C
  C3066    1.0000 0.35400  0.67040  0.27690  Biso   1.000  C
  C3067    1.0000 0.35400  0.22310  0.17040  Biso   1.000  C
  C3068    1.0000 0.64600  0.77690  0.17040  Biso   1.000  C
  C3069    1.0000 0.77690  0.32960  0.85400  Biso   1.000  C
  C3070    1.0000 0.77690  0.67040  0.14600  Biso   1.000  C
  C3071    1.0000 0.32960  0.64600  0.72310  Biso   1.000  C
  C3072    1.0000 0.67040  0.64600  0.27690  Biso   1.000  C
  H865     1.0000 0.29330  0.15030  0.18060  Biso   1.000  H
  H866     1.0000 0.84970  0.29330  0.18060  Biso   1.000  H
  H867     1.0000 0.70670  0.84970  0.18060  Biso   1.000  H
  H868     1.0000 0.15030  0.70670  0.18060  Biso   1.000  H
  H869     1.0000 0.29330  0.81940  0.15030  Biso   1.000  H
  H870     1.0000 0.29330  0.84970  0.81940  Biso   1.000  H
  H871     1.0000 0.29330  0.18060  0.84970  Biso   1.000  H
  H872     1.0000 0.18060  0.15030  0.70670  Biso   1.000  H
  H873     1.0000 0.70670  0.15030  0.81940  Biso   1.000  H
  H874     1.0000 0.81940  0.15030  0.29330  Biso   1.000  H
  H875     1.0000 0.18060  0.29330  0.15030  Biso   1.000  H
  H876     1.0000 0.15030  0.18060  0.29330  Biso   1.000  H
  H877     1.0000 0.84970  0.81940  0.29330  Biso   1.000  H
  H878     1.0000 0.18060  0.70670  0.84970  Biso   1.000  H
  H879     1.0000 0.84970  0.18060  0.70670  Biso   1.000  H
  H880     1.0000 0.81940  0.70670  0.15030  Biso   1.000  H
  H881     1.0000 0.81940  0.29330  0.84970  Biso   1.000  H
  H882     1.0000 0.15030  0.81940  0.70670  Biso   1.000  H
  H883     1.0000 0.15030  0.29330  0.81940  Biso   1.000  H
  H884     1.0000 0.84970  0.70670  0.81940  Biso   1.000  H
  H885     1.0000 0.70670  0.18060  0.15030  Biso   1.000  H
  H886     1.0000 0.70670  0.81940  0.84970  Biso   1.000  H
  H887     1.0000 0.18060  0.84970  0.29330  Biso   1.000  H
  H888     1.0000 0.81940  0.84970  0.70670  Biso   1.000  H
  H889     1.0000 0.29330  0.65030  0.68060  Biso   1.000  H
  H890     1.0000 0.84970  0.79330  0.68060  Biso   1.000  H
  H891     1.0000 0.70670  0.34970  0.68060  Biso   1.000  H
  H892     1.0000 0.15030  0.20670  0.68060  Biso   1.000  H
  H893     1.0000 0.29330  0.31940  0.65030  Biso   1.000  H
  H894     1.0000 0.29330  0.34970  0.31940  Biso   1.000  H
  H895     1.0000 0.29330  0.68060  0.34970  Biso   1.000  H
  H896     1.0000 0.18060  0.65030  0.20670  Biso   1.000  H
  H897     1.0000 0.70670  0.65030  0.31940  Biso   1.000  H
  H898     1.0000 0.81940  0.65030  0.79330  Biso   1.000  H
  H899     1.0000 0.18060  0.79330  0.65030  Biso   1.000  H
  H900     1.0000 0.15030  0.68060  0.79330  Biso   1.000  H
  H901     1.0000 0.84970  0.31940  0.79330  Biso   1.000  H
  H902     1.0000 0.18060  0.20670  0.34970  Biso   1.000  H
  H903     1.0000 0.84970  0.68060  0.20670  Biso   1.000  H
  H904     1.0000 0.81940  0.20670  0.65030  Biso   1.000  H
  H905     1.0000 0.81940  0.79330  0.34970  Biso   1.000  H
  H906     1.0000 0.15030  0.31940  0.20670  Biso   1.000  H
  H907     1.0000 0.15030  0.79330  0.31940  Biso   1.000  H
  H908     1.0000 0.84970  0.20670  0.31940  Biso   1.000  H
  H909     1.0000 0.70670  0.68060  0.65030  Biso   1.000  H
  H910     1.0000 0.70670  0.31940  0.34970  Biso   1.000  H
  H911     1.0000 0.18060  0.34970  0.79330  Biso   1.000  H
  H912     1.0000 0.81940  0.34970  0.20670  Biso   1.000  H
  H913     1.0000 0.79330  0.15030  0.68060  Biso   1.000  H
  H914     1.0000 0.34970  0.29330  0.68060  Biso   1.000  H
  H915     1.0000 0.20670  0.84970  0.68060  Biso   1.000  H
  H916     1.0000 0.65030  0.70670  0.68060  Biso   1.000  H
  H917     1.0000 0.79330  0.81940  0.65030  Biso   1.000  H
  H918     1.0000 0.79330  0.84970  0.31940  Biso   1.000  H
  H919     1.0000 0.79330  0.18060  0.34970  Biso   1.000  H
  H920     1.0000 0.68060  0.15030  0.20670  Biso   1.000  H
  H921     1.0000 0.20670  0.15030  0.31940  Biso   1.000  H
  H922     1.0000 0.31940  0.15030  0.79330  Biso   1.000  H
  H923     1.0000 0.68060  0.29330  0.65030  Biso   1.000  H
  H924     1.0000 0.65030  0.18060  0.79330  Biso   1.000  H
  H925     1.0000 0.34970  0.81940  0.79330  Biso   1.000  H
  H926     1.0000 0.68060  0.70670  0.34970  Biso   1.000  H
  H927     1.0000 0.34970  0.18060  0.20670  Biso   1.000  H
  H928     1.0000 0.31940  0.70670  0.65030  Biso   1.000  H
  H929     1.0000 0.31940  0.29330  0.34970  Biso   1.000  H
  H930     1.0000 0.65030  0.81940  0.20670  Biso   1.000  H
  H931     1.0000 0.65030  0.29330  0.31940  Biso   1.000  H
  H932     1.0000 0.34970  0.70670  0.31940  Biso   1.000  H
  H933     1.0000 0.20670  0.18060  0.65030  Biso   1.000  H
  H934     1.0000 0.20670  0.81940  0.34970  Biso   1.000  H
  H935     1.0000 0.68060  0.84970  0.79330  Biso   1.000  H
  H936     1.0000 0.31940  0.84970  0.20670  Biso   1.000  H
  H937     1.0000 0.79330  0.65030  0.18060  Biso   1.000  H
  H938     1.0000 0.34970  0.79330  0.18060  Biso   1.000  H
  H939     1.0000 0.20670  0.34970  0.18060  Biso   1.000  H
  H940     1.0000 0.65030  0.20670  0.18060  Biso   1.000  H
  H941     1.0000 0.79330  0.31940  0.15030  Biso   1.000  H
  H942     1.0000 0.79330  0.34970  0.81940  Biso   1.000  H
  H943     1.0000 0.79330  0.68060  0.84970  Biso   1.000  H
  H944     1.0000 0.68060  0.65030  0.70670  Biso   1.000  H
  H945     1.0000 0.20670  0.65030  0.81940  Biso   1.000  H
  H946     1.0000 0.31940  0.65030  0.29330  Biso   1.000  H
  H947     1.0000 0.68060  0.79330  0.15030  Biso   1.000  H
  H948     1.0000 0.65030  0.68060  0.29330  Biso   1.000  H
  H949     1.0000 0.34970  0.31940  0.29330  Biso   1.000  H
  H950     1.0000 0.68060  0.20670  0.84970  Biso   1.000  H
  H951     1.0000 0.34970  0.68060  0.70670  Biso   1.000  H
  H952     1.0000 0.31940  0.20670  0.15030  Biso   1.000  H
  H953     1.0000 0.31940  0.79330  0.84970  Biso   1.000  H
  H954     1.0000 0.65030  0.31940  0.70670  Biso   1.000  H
  H955     1.0000 0.65030  0.79330  0.81940  Biso   1.000  H
  H956     1.0000 0.34970  0.20670  0.81940  Biso   1.000  H
  H957     1.0000 0.20670  0.68060  0.15030  Biso   1.000  H
  H958     1.0000 0.20670  0.31940  0.84970  Biso   1.000  H
  H959     1.0000 0.68060  0.34970  0.29330  Biso   1.000  H
  H960     1.0000 0.31940  0.34970  0.70670  Biso   1.000  H
  H961     1.0000 0.70670  0.84970  0.81940  Biso   1.000  H
  H962     1.0000 0.15030  0.70670  0.81940  Biso   1.000  H
  H963     1.0000 0.29330  0.15030  0.81940  Biso   1.000  H
  H964     1.0000 0.84970  0.29330  0.81940  Biso   1.000  H
  H965     1.0000 0.70670  0.18060  0.84970  Biso   1.000  H
  H966     1.0000 0.70670  0.15030  0.18060  Biso   1.000  H
  H967     1.0000 0.70670  0.81940  0.15030  Biso   1.000  H
  H968     1.0000 0.81940  0.84970  0.29330  Biso   1.000  H
  H969     1.0000 0.29330  0.84970  0.18060  Biso   1.000  H
  H970     1.0000 0.18060  0.84970  0.70670  Biso   1.000  H
  H971     1.0000 0.81940  0.70670  0.84970  Biso   1.000  H
  H972     1.0000 0.84970  0.81940  0.70670  Biso   1.000  H
  H973     1.0000 0.15030  0.18060  0.70670  Biso   1.000  H
  H974     1.0000 0.81940  0.29330  0.15030  Biso   1.000  H
  H975     1.0000 0.15030  0.81940  0.29330  Biso   1.000  H
  H976     1.0000 0.18060  0.29330  0.84970  Biso   1.000  H
  H977     1.0000 0.18060  0.70670  0.15030  Biso   1.000  H
  H978     1.0000 0.84970  0.18060  0.29330  Biso   1.000  H
  H979     1.0000 0.84970  0.70670  0.18060  Biso   1.000  H
  H980     1.0000 0.15030  0.29330  0.18060  Biso   1.000  H
  H981     1.0000 0.29330  0.81940  0.84970  Biso   1.000  H
  H982     1.0000 0.29330  0.18060  0.15030  Biso   1.000  H
  H983     1.0000 0.81940  0.15030  0.70670  Biso   1.000  H
  H984     1.0000 0.18060  0.15030  0.29330  Biso   1.000  H
  H985     1.0000 0.70670  0.34970  0.31940  Biso   1.000  H
  H986     1.0000 0.15030  0.20670  0.31940  Biso   1.000  H
  H987     1.0000 0.29330  0.65030  0.31940  Biso   1.000  H
  H988     1.0000 0.84970  0.79330  0.31940  Biso   1.000  H
  H989     1.0000 0.70670  0.68060  0.34970  Biso   1.000  H
  H990     1.0000 0.70670  0.65030  0.68060  Biso   1.000  H
  H991     1.0000 0.70670  0.31940  0.65030  Biso   1.000  H
  H992     1.0000 0.81940  0.34970  0.79330  Biso   1.000  H
  H993     1.0000 0.29330  0.34970  0.68060  Biso   1.000  H
  H994     1.0000 0.18060  0.34970  0.20670  Biso   1.000  H
  H995     1.0000 0.81940  0.20670  0.34970  Biso   1.000  H
  H996     1.0000 0.84970  0.31940  0.20670  Biso   1.000  H
  H997     1.0000 0.15030  0.68060  0.20670  Biso   1.000  H
  H998     1.0000 0.81940  0.79330  0.65030  Biso   1.000  H
  H999     1.0000 0.15030  0.31940  0.79330  Biso   1.000  H
  H1000    1.0000 0.18060  0.79330  0.34970  Biso   1.000  H
  H1001    1.0000 0.18060  0.20670  0.65030  Biso   1.000  H
  H1002    1.0000 0.84970  0.68060  0.79330  Biso   1.000  H
  H1003    1.0000 0.84970  0.20670  0.68060  Biso   1.000  H
  H1004    1.0000 0.15030  0.79330  0.68060  Biso   1.000  H
  H1005    1.0000 0.29330  0.31940  0.34970  Biso   1.000  H
  H1006    1.0000 0.29330  0.68060  0.65030  Biso   1.000  H
  H1007    1.0000 0.81940  0.65030  0.20670  Biso   1.000  H
  H1008    1.0000 0.18060  0.65030  0.79330  Biso   1.000  H
  H1009    1.0000 0.20670  0.84970  0.31940  Biso   1.000  H
  H1010    1.0000 0.65030  0.70670  0.31940  Biso   1.000  H
  H1011    1.0000 0.79330  0.15030  0.31940  Biso   1.000  H
  H1012    1.0000 0.34970  0.29330  0.31940  Biso   1.000  H
  H1013    1.0000 0.20670  0.18060  0.34970  Biso   1.000  H
  H1014    1.0000 0.20670  0.15030  0.68060  Biso   1.000  H
  H1015    1.0000 0.20670  0.81940  0.65030  Biso   1.000  H
  H1016    1.0000 0.31940  0.84970  0.79330  Biso   1.000  H
  H1017    1.0000 0.79330  0.84970  0.68060  Biso   1.000  H
  H1018    1.0000 0.68060  0.84970  0.20670  Biso   1.000  H
  H1019    1.0000 0.31940  0.70670  0.34970  Biso   1.000  H
  H1020    1.0000 0.34970  0.81940  0.20670  Biso   1.000  H
  H1021    1.0000 0.65030  0.18060  0.20670  Biso   1.000  H
  H1022    1.0000 0.31940  0.29330  0.65030  Biso   1.000  H
  H1023    1.0000 0.65030  0.81940  0.79330  Biso   1.000  H
  H1024    1.0000 0.68060  0.29330  0.34970  Biso   1.000  H
  H1025    1.0000 0.68060  0.70670  0.65030  Biso   1.000  H
  H1026    1.0000 0.34970  0.18060  0.79330  Biso   1.000  H
  H1027    1.0000 0.34970  0.70670  0.68060  Biso   1.000  H
  H1028    1.0000 0.65030  0.29330  0.68060  Biso   1.000  H
  H1029    1.0000 0.79330  0.81940  0.34970  Biso   1.000  H
  H1030    1.0000 0.79330  0.18060  0.65030  Biso   1.000  H
  H1031    1.0000 0.31940  0.15030  0.20670  Biso   1.000  H
  H1032    1.0000 0.68060  0.15030  0.79330  Biso   1.000  H
  H1033    1.0000 0.20670  0.34970  0.81940  Biso   1.000  H
  H1034    1.0000 0.65030  0.20670  0.81940  Biso   1.000  H
  H1035    1.0000 0.79330  0.65030  0.81940  Biso   1.000  H
  H1036    1.0000 0.34970  0.79330  0.81940  Biso   1.000  H
  H1037    1.0000 0.20670  0.68060  0.84970  Biso   1.000  H
  H1038    1.0000 0.20670  0.65030  0.18060  Biso   1.000  H
  H1039    1.0000 0.20670  0.31940  0.15030  Biso   1.000  H
  H1040    1.0000 0.31940  0.34970  0.29330  Biso   1.000  H
  H1041    1.0000 0.79330  0.34970  0.18060  Biso   1.000  H
  H1042    1.0000 0.68060  0.34970  0.70670  Biso   1.000  H
  H1043    1.0000 0.31940  0.20670  0.84970  Biso   1.000  H
  H1044    1.0000 0.34970  0.31940  0.70670  Biso   1.000  H
  H1045    1.0000 0.65030  0.68060  0.70670  Biso   1.000  H
  H1046    1.0000 0.31940  0.79330  0.15030  Biso   1.000  H
  H1047    1.0000 0.65030  0.31940  0.29330  Biso   1.000  H
  H1048    1.0000 0.68060  0.79330  0.84970  Biso   1.000  H
  H1049    1.0000 0.68060  0.20670  0.15030  Biso   1.000  H
  H1050    1.0000 0.34970  0.68060  0.29330  Biso   1.000  H
  H1051    1.0000 0.34970  0.20670  0.18060  Biso   1.000  H
  H1052    1.0000 0.65030  0.79330  0.18060  Biso   1.000  H
  H1053    1.0000 0.79330  0.31940  0.84970  Biso   1.000  H
  H1054    1.0000 0.79330  0.68060  0.15030  Biso   1.000  H
  H1055    1.0000 0.31940  0.65030  0.70670  Biso   1.000  H
  H1056    1.0000 0.68060  0.65030  0.29330  Biso   1.000  H
  C3073    1.0000 0.24990  0.15790  0.17870  Biso   1.000  C
  C3074    1.0000 0.84210  0.24990  0.17870  Biso   1.000  C
  C3075    1.0000 0.75010  0.84210  0.17870  Biso   1.000  C
  C3076    1.0000 0.15790  0.75010  0.17870  Biso   1.000  C
  C3077    1.0000 0.24990  0.82130  0.15790  Biso   1.000  C
  C3078    1.0000 0.24990  0.84210  0.82130  Biso   1.000  C
  C3079    1.0000 0.24990  0.17870  0.84210  Biso   1.000  C
  C3080    1.0000 0.17870  0.15790  0.75010  Biso   1.000  C
  C3081    1.0000 0.75010  0.15790  0.82130  Biso   1.000  C
  C3082    1.0000 0.82130  0.15790  0.24990  Biso   1.000  C
  C3083    1.0000 0.17870  0.24990  0.15790  Biso   1.000  C
  C3084    1.0000 0.15790  0.17870  0.24990  Biso   1.000  C
  C3085    1.0000 0.84210  0.82130  0.24990  Biso   1.000  C
  C3086    1.0000 0.17870  0.75010  0.84210  Biso   1.000  C
  C3087    1.0000 0.84210  0.17870  0.75010  Biso   1.000  C
  C3088    1.0000 0.82130  0.75010  0.15790  Biso   1.000  C
  C3089    1.0000 0.82130  0.24990  0.84210  Biso   1.000  C
  C3090    1.0000 0.15790  0.82130  0.75010  Biso   1.000  C
  C3091    1.0000 0.15790  0.24990  0.82130  Biso   1.000  C
  C3092    1.0000 0.84210  0.75010  0.82130  Biso   1.000  C
  C3093    1.0000 0.75010  0.17870  0.15790  Biso   1.000  C
  C3094    1.0000 0.75010  0.82130  0.84210  Biso   1.000  C
  C3095    1.0000 0.17870  0.84210  0.24990  Biso   1.000  C
  C3096    1.0000 0.82130  0.84210  0.75010  Biso   1.000  C
  C3097    1.0000 0.24990  0.65790  0.67870  Biso   1.000  C
  C3098    1.0000 0.84210  0.74990  0.67870  Biso   1.000  C
  C3099    1.0000 0.75010  0.34210  0.67870  Biso   1.000  C
  C3100    1.0000 0.15790  0.25010  0.67870  Biso   1.000  C
  C3101    1.0000 0.24990  0.32130  0.65790  Biso   1.000  C
  C3102    1.0000 0.24990  0.34210  0.32130  Biso   1.000  C
  C3103    1.0000 0.24990  0.67870  0.34210  Biso   1.000  C
  C3104    1.0000 0.17870  0.65790  0.25010  Biso   1.000  C
  C3105    1.0000 0.75010  0.65790  0.32130  Biso   1.000  C
  C3106    1.0000 0.82130  0.65790  0.74990  Biso   1.000  C
  C3107    1.0000 0.17870  0.74990  0.65790  Biso   1.000  C
  C3108    1.0000 0.15790  0.67870  0.74990  Biso   1.000  C
  C3109    1.0000 0.84210  0.32130  0.74990  Biso   1.000  C
  C3110    1.0000 0.17870  0.25010  0.34210  Biso   1.000  C
  C3111    1.0000 0.84210  0.67870  0.25010  Biso   1.000  C
  C3112    1.0000 0.82130  0.25010  0.65790  Biso   1.000  C
  C3113    1.0000 0.82130  0.74990  0.34210  Biso   1.000  C
  C3114    1.0000 0.15790  0.32130  0.25010  Biso   1.000  C
  C3115    1.0000 0.15790  0.74990  0.32130  Biso   1.000  C
  C3116    1.0000 0.84210  0.25010  0.32130  Biso   1.000  C
  C3117    1.0000 0.75010  0.67870  0.65790  Biso   1.000  C
  C3118    1.0000 0.75010  0.32130  0.34210  Biso   1.000  C
  C3119    1.0000 0.17870  0.34210  0.74990  Biso   1.000  C
  C3120    1.0000 0.82130  0.34210  0.25010  Biso   1.000  C
  C3121    1.0000 0.74990  0.15790  0.67870  Biso   1.000  C
  C3122    1.0000 0.34210  0.24990  0.67870  Biso   1.000  C
  C3123    1.0000 0.25010  0.84210  0.67870  Biso   1.000  C
  C3124    1.0000 0.65790  0.75010  0.67870  Biso   1.000  C
  C3125    1.0000 0.74990  0.82130  0.65790  Biso   1.000  C
  C3126    1.0000 0.74990  0.84210  0.32130  Biso   1.000  C
  C3127    1.0000 0.74990  0.17870  0.34210  Biso   1.000  C
  C3128    1.0000 0.67870  0.15790  0.25010  Biso   1.000  C
  C3129    1.0000 0.25010  0.15790  0.32130  Biso   1.000  C
  C3130    1.0000 0.32130  0.15790  0.74990  Biso   1.000  C
  C3131    1.0000 0.67870  0.24990  0.65790  Biso   1.000  C
  C3132    1.0000 0.65790  0.17870  0.74990  Biso   1.000  C
  C3133    1.0000 0.34210  0.82130  0.74990  Biso   1.000  C
  C3134    1.0000 0.67870  0.75010  0.34210  Biso   1.000  C
  C3135    1.0000 0.34210  0.17870  0.25010  Biso   1.000  C
  C3136    1.0000 0.32130  0.75010  0.65790  Biso   1.000  C
  C3137    1.0000 0.32130  0.24990  0.34210  Biso   1.000  C
  C3138    1.0000 0.65790  0.82130  0.25010  Biso   1.000  C
  C3139    1.0000 0.65790  0.24990  0.32130  Biso   1.000  C
  C3140    1.0000 0.34210  0.75010  0.32130  Biso   1.000  C
  C3141    1.0000 0.25010  0.17870  0.65790  Biso   1.000  C
  C3142    1.0000 0.25010  0.82130  0.34210  Biso   1.000  C
  C3143    1.0000 0.67870  0.84210  0.74990  Biso   1.000  C
  C3144    1.0000 0.32130  0.84210  0.25010  Biso   1.000  C
  C3145    1.0000 0.74990  0.65790  0.17870  Biso   1.000  C
  C3146    1.0000 0.34210  0.74990  0.17870  Biso   1.000  C
  C3147    1.0000 0.25010  0.34210  0.17870  Biso   1.000  C
  C3148    1.0000 0.65790  0.25010  0.17870  Biso   1.000  C
  C3149    1.0000 0.74990  0.32130  0.15790  Biso   1.000  C
  C3150    1.0000 0.74990  0.34210  0.82130  Biso   1.000  C
  C3151    1.0000 0.74990  0.67870  0.84210  Biso   1.000  C
  C3152    1.0000 0.67870  0.65790  0.75010  Biso   1.000  C
  C3153    1.0000 0.25010  0.65790  0.82130  Biso   1.000  C
  C3154    1.0000 0.32130  0.65790  0.24990  Biso   1.000  C
  C3155    1.0000 0.67870  0.74990  0.15790  Biso   1.000  C
  C3156    1.0000 0.65790  0.67870  0.24990  Biso   1.000  C
  C3157    1.0000 0.34210  0.32130  0.24990  Biso   1.000  C
  C3158    1.0000 0.67870  0.25010  0.84210  Biso   1.000  C
  C3159    1.0000 0.34210  0.67870  0.75010  Biso   1.000  C
  C3160    1.0000 0.32130  0.25010  0.15790  Biso   1.000  C
  C3161    1.0000 0.32130  0.74990  0.84210  Biso   1.000  C
  C3162    1.0000 0.65790  0.32130  0.75010  Biso   1.000  C
  C3163    1.0000 0.65790  0.74990  0.82130  Biso   1.000  C
  C3164    1.0000 0.34210  0.25010  0.82130  Biso   1.000  C
  C3165    1.0000 0.25010  0.67870  0.15790  Biso   1.000  C
  C3166    1.0000 0.25010  0.32130  0.84210  Biso   1.000  C
  C3167    1.0000 0.67870  0.34210  0.24990  Biso   1.000  C
  C3168    1.0000 0.32130  0.34210  0.75010  Biso   1.000  C
  C3169    1.0000 0.75010  0.84210  0.82130  Biso   1.000  C
  C3170    1.0000 0.15790  0.75010  0.82130  Biso   1.000  C
  C3171    1.0000 0.24990  0.15790  0.82130  Biso   1.000  C
  C3172    1.0000 0.84210  0.24990  0.82130  Biso   1.000  C
  C3173    1.0000 0.75010  0.17870  0.84210  Biso   1.000  C
  C3174    1.0000 0.75010  0.15790  0.17870  Biso   1.000  C
  C3175    1.0000 0.75010  0.82130  0.15790  Biso   1.000  C
  C3176    1.0000 0.82130  0.84210  0.24990  Biso   1.000  C
  C3177    1.0000 0.24990  0.84210  0.17870  Biso   1.000  C
  C3178    1.0000 0.17870  0.84210  0.75010  Biso   1.000  C
  C3179    1.0000 0.82130  0.75010  0.84210  Biso   1.000  C
  C3180    1.0000 0.84210  0.82130  0.75010  Biso   1.000  C
  C3181    1.0000 0.15790  0.17870  0.75010  Biso   1.000  C
  C3182    1.0000 0.82130  0.24990  0.15790  Biso   1.000  C
  C3183    1.0000 0.15790  0.82130  0.24990  Biso   1.000  C
  C3184    1.0000 0.17870  0.24990  0.84210  Biso   1.000  C
  C3185    1.0000 0.17870  0.75010  0.15790  Biso   1.000  C
  C3186    1.0000 0.84210  0.17870  0.24990  Biso   1.000  C
  C3187    1.0000 0.84210  0.75010  0.17870  Biso   1.000  C
  C3188    1.0000 0.15790  0.24990  0.17870  Biso   1.000  C
  C3189    1.0000 0.24990  0.82130  0.84210  Biso   1.000  C
  C3190    1.0000 0.24990  0.17870  0.15790  Biso   1.000  C
  C3191    1.0000 0.82130  0.15790  0.75010  Biso   1.000  C
  C3192    1.0000 0.17870  0.15790  0.24990  Biso   1.000  C
  C3193    1.0000 0.75010  0.34210  0.32130  Biso   1.000  C
  C3194    1.0000 0.15790  0.25010  0.32130  Biso   1.000  C
  C3195    1.0000 0.24990  0.65790  0.32130  Biso   1.000  C
  C3196    1.0000 0.84210  0.74990  0.32130  Biso   1.000  C
  C3197    1.0000 0.75010  0.67870  0.34210  Biso   1.000  C
  C3198    1.0000 0.75010  0.65790  0.67870  Biso   1.000  C
  C3199    1.0000 0.75010  0.32130  0.65790  Biso   1.000  C
  C3200    1.0000 0.82130  0.34210  0.74990  Biso   1.000  C
  C3201    1.0000 0.24990  0.34210  0.67870  Biso   1.000  C
  C3202    1.0000 0.17870  0.34210  0.25010  Biso   1.000  C
  C3203    1.0000 0.82130  0.25010  0.34210  Biso   1.000  C
  C3204    1.0000 0.84210  0.32130  0.25010  Biso   1.000  C
  C3205    1.0000 0.15790  0.67870  0.25010  Biso   1.000  C
  C3206    1.0000 0.82130  0.74990  0.65790  Biso   1.000  C
  C3207    1.0000 0.15790  0.32130  0.74990  Biso   1.000  C
  C3208    1.0000 0.17870  0.74990  0.34210  Biso   1.000  C
  C3209    1.0000 0.17870  0.25010  0.65790  Biso   1.000  C
  C3210    1.0000 0.84210  0.67870  0.74990  Biso   1.000  C
  C3211    1.0000 0.84210  0.25010  0.67870  Biso   1.000  C
  C3212    1.0000 0.15790  0.74990  0.67870  Biso   1.000  C
  C3213    1.0000 0.24990  0.32130  0.34210  Biso   1.000  C
  C3214    1.0000 0.24990  0.67870  0.65790  Biso   1.000  C
  C3215    1.0000 0.82130  0.65790  0.25010  Biso   1.000  C
  C3216    1.0000 0.17870  0.65790  0.74990  Biso   1.000  C
  C3217    1.0000 0.25010  0.84210  0.32130  Biso   1.000  C
  C3218    1.0000 0.65790  0.75010  0.32130  Biso   1.000  C
  C3219    1.0000 0.74990  0.15790  0.32130  Biso   1.000  C
  C3220    1.0000 0.34210  0.24990  0.32130  Biso   1.000  C
  C3221    1.0000 0.25010  0.17870  0.34210  Biso   1.000  C
  C3222    1.0000 0.25010  0.15790  0.67870  Biso   1.000  C
  C3223    1.0000 0.25010  0.82130  0.65790  Biso   1.000  C
  C3224    1.0000 0.32130  0.84210  0.74990  Biso   1.000  C
  C3225    1.0000 0.74990  0.84210  0.67870  Biso   1.000  C
  C3226    1.0000 0.67870  0.84210  0.25010  Biso   1.000  C
  C3227    1.0000 0.32130  0.75010  0.34210  Biso   1.000  C
  C3228    1.0000 0.34210  0.82130  0.25010  Biso   1.000  C
  C3229    1.0000 0.65790  0.17870  0.25010  Biso   1.000  C
  C3230    1.0000 0.32130  0.24990  0.65790  Biso   1.000  C
  C3231    1.0000 0.65790  0.82130  0.74990  Biso   1.000  C
  C3232    1.0000 0.67870  0.24990  0.34210  Biso   1.000  C
  C3233    1.0000 0.67870  0.75010  0.65790  Biso   1.000  C
  C3234    1.0000 0.34210  0.17870  0.74990  Biso   1.000  C
  C3235    1.0000 0.34210  0.75010  0.67870  Biso   1.000  C
  C3236    1.0000 0.65790  0.24990  0.67870  Biso   1.000  C
  C3237    1.0000 0.74990  0.82130  0.34210  Biso   1.000  C
  C3238    1.0000 0.74990  0.17870  0.65790  Biso   1.000  C
  C3239    1.0000 0.32130  0.15790  0.25010  Biso   1.000  C
  C3240    1.0000 0.67870  0.15790  0.74990  Biso   1.000  C
  C3241    1.0000 0.25010  0.34210  0.82130  Biso   1.000  C
  C3242    1.0000 0.65790  0.25010  0.82130  Biso   1.000  C
  C3243    1.0000 0.74990  0.65790  0.82130  Biso   1.000  C
  C3244    1.0000 0.34210  0.74990  0.82130  Biso   1.000  C
  C3245    1.0000 0.25010  0.67870  0.84210  Biso   1.000  C
  C3246    1.0000 0.25010  0.65790  0.17870  Biso   1.000  C
  C3247    1.0000 0.25010  0.32130  0.15790  Biso   1.000  C
  C3248    1.0000 0.32130  0.34210  0.24990  Biso   1.000  C
  C3249    1.0000 0.74990  0.34210  0.17870  Biso   1.000  C
  C3250    1.0000 0.67870  0.34210  0.75010  Biso   1.000  C
  C3251    1.0000 0.32130  0.25010  0.84210  Biso   1.000  C
  C3252    1.0000 0.34210  0.32130  0.75010  Biso   1.000  C
  C3253    1.0000 0.65790  0.67870  0.75010  Biso   1.000  C
  C3254    1.0000 0.32130  0.74990  0.15790  Biso   1.000  C
  C3255    1.0000 0.65790  0.32130  0.24990  Biso   1.000  C
  C3256    1.0000 0.67870  0.74990  0.84210  Biso   1.000  C
  C3257    1.0000 0.67870  0.25010  0.15790  Biso   1.000  C
  C3258    1.0000 0.34210  0.67870  0.24990  Biso   1.000  C
  C3259    1.0000 0.34210  0.25010  0.17870  Biso   1.000  C
  C3260    1.0000 0.65790  0.74990  0.17870  Biso   1.000  C
  C3261    1.0000 0.74990  0.32130  0.84210  Biso   1.000  C
  C3262    1.0000 0.74990  0.67870  0.15790  Biso   1.000  C
  C3263    1.0000 0.32130  0.65790  0.75010  Biso   1.000  C
  C3264    1.0000 0.67870  0.65790  0.24990  Biso   1.000  C
  H1057    1.0000 0.24870  0.16950  0.19470  Biso   1.000  H
  H1058    1.0000 0.83050  0.24870  0.19470  Biso   1.000  H
  H1059    1.0000 0.75130  0.83050  0.19470  Biso   1.000  H
  H1060    1.0000 0.16950  0.75130  0.19470  Biso   1.000  H
  H1061    1.0000 0.24870  0.80530  0.16950  Biso   1.000  H
  H1062    1.0000 0.24870  0.83050  0.80530  Biso   1.000  H
  H1063    1.0000 0.24870  0.19470  0.83050  Biso   1.000  H
  H1064    1.0000 0.19470  0.16950  0.75130  Biso   1.000  H
  H1065    1.0000 0.75130  0.16950  0.80530  Biso   1.000  H
  H1066    1.0000 0.80530  0.16950  0.24870  Biso   1.000  H
  H1067    1.0000 0.19470  0.24870  0.16950  Biso   1.000  H
  H1068    1.0000 0.16950  0.19470  0.24870  Biso   1.000  H
  H1069    1.0000 0.83050  0.80530  0.24870  Biso   1.000  H
  H1070    1.0000 0.19470  0.75130  0.83050  Biso   1.000  H
  H1071    1.0000 0.83050  0.19470  0.75130  Biso   1.000  H
  H1072    1.0000 0.80530  0.75130  0.16950  Biso   1.000  H
  H1073    1.0000 0.80530  0.24870  0.83050  Biso   1.000  H
  H1074    1.0000 0.16950  0.80530  0.75130  Biso   1.000  H
  H1075    1.0000 0.16950  0.24870  0.80530  Biso   1.000  H
  H1076    1.0000 0.83050  0.75130  0.80530  Biso   1.000  H
  H1077    1.0000 0.75130  0.19470  0.16950  Biso   1.000  H
  H1078    1.0000 0.75130  0.80530  0.83050  Biso   1.000  H
  H1079    1.0000 0.19470  0.83050  0.24870  Biso   1.000  H
  H1080    1.0000 0.80530  0.83050  0.75130  Biso   1.000  H
  H1081    1.0000 0.24870  0.66950  0.69470  Biso   1.000  H
  H1082    1.0000 0.83050  0.74870  0.69470  Biso   1.000  H
  H1083    1.0000 0.75130  0.33050  0.69470  Biso   1.000  H
  H1084    1.0000 0.16950  0.25130  0.69470  Biso   1.000  H
  H1085    1.0000 0.24870  0.30530  0.66950  Biso   1.000  H
  H1086    1.0000 0.24870  0.33050  0.30530  Biso   1.000  H
  H1087    1.0000 0.24870  0.69470  0.33050  Biso   1.000  H
  H1088    1.0000 0.19470  0.66950  0.25130  Biso   1.000  H
  H1089    1.0000 0.75130  0.66950  0.30530  Biso   1.000  H
  H1090    1.0000 0.80530  0.66950  0.74870  Biso   1.000  H
  H1091    1.0000 0.19470  0.74870  0.66950  Biso   1.000  H
  H1092    1.0000 0.16950  0.69470  0.74870  Biso   1.000  H
  H1093    1.0000 0.83050  0.30530  0.74870  Biso   1.000  H
  H1094    1.0000 0.19470  0.25130  0.33050  Biso   1.000  H
  H1095    1.0000 0.83050  0.69470  0.25130  Biso   1.000  H
  H1096    1.0000 0.80530  0.25130  0.66950  Biso   1.000  H
  H1097    1.0000 0.80530  0.74870  0.33050  Biso   1.000  H
  H1098    1.0000 0.16950  0.30530  0.25130  Biso   1.000  H
  H1099    1.0000 0.16950  0.74870  0.30530  Biso   1.000  H
  H1100    1.0000 0.83050  0.25130  0.30530  Biso   1.000  H
  H1101    1.0000 0.75130  0.69470  0.66950  Biso   1.000  H
  H1102    1.0000 0.75130  0.30530  0.33050  Biso   1.000  H
  H1103    1.0000 0.19470  0.33050  0.74870  Biso   1.000  H
  H1104    1.0000 0.80530  0.33050  0.25130  Biso   1.000  H
  H1105    1.0000 0.74870  0.16950  0.69470  Biso   1.000  H
  H1106    1.0000 0.33050  0.24870  0.69470  Biso   1.000  H
  H1107    1.0000 0.25130  0.83050  0.69470  Biso   1.000  H
  H1108    1.0000 0.66950  0.75130  0.69470  Biso   1.000  H
  H1109    1.0000 0.74870  0.80530  0.66950  Biso   1.000  H
  H1110    1.0000 0.74870  0.83050  0.30530  Biso   1.000  H
  H1111    1.0000 0.74870  0.19470  0.33050  Biso   1.000  H
  H1112    1.0000 0.69470  0.16950  0.25130  Biso   1.000  H
  H1113    1.0000 0.25130  0.16950  0.30530  Biso   1.000  H
  H1114    1.0000 0.30530  0.16950  0.74870  Biso   1.000  H
  H1115    1.0000 0.69470  0.24870  0.66950  Biso   1.000  H
  H1116    1.0000 0.66950  0.19470  0.74870  Biso   1.000  H
  H1117    1.0000 0.33050  0.80530  0.74870  Biso   1.000  H
  H1118    1.0000 0.69470  0.75130  0.33050  Biso   1.000  H
  H1119    1.0000 0.33050  0.19470  0.25130  Biso   1.000  H
  H1120    1.0000 0.30530  0.75130  0.66950  Biso   1.000  H
  H1121    1.0000 0.30530  0.24870  0.33050  Biso   1.000  H
  H1122    1.0000 0.66950  0.80530  0.25130  Biso   1.000  H
  H1123    1.0000 0.66950  0.24870  0.30530  Biso   1.000  H
  H1124    1.0000 0.33050  0.75130  0.30530  Biso   1.000  H
  H1125    1.0000 0.25130  0.19470  0.66950  Biso   1.000  H
  H1126    1.0000 0.25130  0.80530  0.33050  Biso   1.000  H
  H1127    1.0000 0.69470  0.83050  0.74870  Biso   1.000  H
  H1128    1.0000 0.30530  0.83050  0.25130  Biso   1.000  H
  H1129    1.0000 0.74870  0.66950  0.19470  Biso   1.000  H
  H1130    1.0000 0.33050  0.74870  0.19470  Biso   1.000  H
  H1131    1.0000 0.25130  0.33050  0.19470  Biso   1.000  H
  H1132    1.0000 0.66950  0.25130  0.19470  Biso   1.000  H
  H1133    1.0000 0.74870  0.30530  0.16950  Biso   1.000  H
  H1134    1.0000 0.74870  0.33050  0.80530  Biso   1.000  H
  H1135    1.0000 0.74870  0.69470  0.83050  Biso   1.000  H
  H1136    1.0000 0.69470  0.66950  0.75130  Biso   1.000  H
  H1137    1.0000 0.25130  0.66950  0.80530  Biso   1.000  H
  H1138    1.0000 0.30530  0.66950  0.24870  Biso   1.000  H
  H1139    1.0000 0.69470  0.74870  0.16950  Biso   1.000  H
  H1140    1.0000 0.66950  0.69470  0.24870  Biso   1.000  H
  H1141    1.0000 0.33050  0.30530  0.24870  Biso   1.000  H
  H1142    1.0000 0.69470  0.25130  0.83050  Biso   1.000  H
  H1143    1.0000 0.33050  0.69470  0.75130  Biso   1.000  H
  H1144    1.0000 0.30530  0.25130  0.16950  Biso   1.000  H
  H1145    1.0000 0.30530  0.74870  0.83050  Biso   1.000  H
  H1146    1.0000 0.66950  0.30530  0.75130  Biso   1.000  H
  H1147    1.0000 0.66950  0.74870  0.80530  Biso   1.000  H
  H1148    1.0000 0.33050  0.25130  0.80530  Biso   1.000  H
  H1149    1.0000 0.25130  0.69470  0.16950  Biso   1.000  H
  H1150    1.0000 0.25130  0.30530  0.83050  Biso   1.000  H
  H1151    1.0000 0.69470  0.33050  0.24870  Biso   1.000  H
  H1152    1.0000 0.30530  0.33050  0.75130  Biso   1.000  H
  H1153    1.0000 0.75130  0.83050  0.80530  Biso   1.000  H
  H1154    1.0000 0.16950  0.75130  0.80530  Biso   1.000  H
  H1155    1.0000 0.24870  0.16950  0.80530  Biso   1.000  H
  H1156    1.0000 0.83050  0.24870  0.80530  Biso   1.000  H
  H1157    1.0000 0.75130  0.19470  0.83050  Biso   1.000  H
  H1158    1.0000 0.75130  0.16950  0.19470  Biso   1.000  H
  H1159    1.0000 0.75130  0.80530  0.16950  Biso   1.000  H
  H1160    1.0000 0.80530  0.83050  0.24870  Biso   1.000  H
  H1161    1.0000 0.24870  0.83050  0.19470  Biso   1.000  H
  H1162    1.0000 0.19470  0.83050  0.75130  Biso   1.000  H
  H1163    1.0000 0.80530  0.75130  0.83050  Biso   1.000  H
  H1164    1.0000 0.83050  0.80530  0.75130  Biso   1.000  H
  H1165    1.0000 0.16950  0.19470  0.75130  Biso   1.000  H
  H1166    1.0000 0.80530  0.24870  0.16950  Biso   1.000  H
  H1167    1.0000 0.16950  0.80530  0.24870  Biso   1.000  H
  H1168    1.0000 0.19470  0.24870  0.83050  Biso   1.000  H
  H1169    1.0000 0.19470  0.75130  0.16950  Biso   1.000  H
  H1170    1.0000 0.83050  0.19470  0.24870  Biso   1.000  H
  H1171    1.0000 0.83050  0.75130  0.19470  Biso   1.000  H
  H1172    1.0000 0.16950  0.24870  0.19470  Biso   1.000  H
  H1173    1.0000 0.24870  0.80530  0.83050  Biso   1.000  H
  H1174    1.0000 0.24870  0.19470  0.16950  Biso   1.000  H
  H1175    1.0000 0.80530  0.16950  0.75130  Biso   1.000  H
  H1176    1.0000 0.19470  0.16950  0.24870  Biso   1.000  H
  H1177    1.0000 0.75130  0.33050  0.30530  Biso   1.000  H
  H1178    1.0000 0.16950  0.25130  0.30530  Biso   1.000  H
  H1179    1.0000 0.24870  0.66950  0.30530  Biso   1.000  H
  H1180    1.0000 0.83050  0.74870  0.30530  Biso   1.000  H
  H1181    1.0000 0.75130  0.69470  0.33050  Biso   1.000  H
  H1182    1.0000 0.75130  0.66950  0.69470  Biso   1.000  H
  H1183    1.0000 0.75130  0.30530  0.66950  Biso   1.000  H
  H1184    1.0000 0.80530  0.33050  0.74870  Biso   1.000  H
  H1185    1.0000 0.24870  0.33050  0.69470  Biso   1.000  H
  H1186    1.0000 0.19470  0.33050  0.25130  Biso   1.000  H
  H1187    1.0000 0.80530  0.25130  0.33050  Biso   1.000  H
  H1188    1.0000 0.83050  0.30530  0.25130  Biso   1.000  H
  H1189    1.0000 0.16950  0.69470  0.25130  Biso   1.000  H
  H1190    1.0000 0.80530  0.74870  0.66950  Biso   1.000  H
  H1191    1.0000 0.16950  0.30530  0.74870  Biso   1.000  H
  H1192    1.0000 0.19470  0.74870  0.33050  Biso   1.000  H
  H1193    1.0000 0.19470  0.25130  0.66950  Biso   1.000  H
  H1194    1.0000 0.83050  0.69470  0.74870  Biso   1.000  H
  H1195    1.0000 0.83050  0.25130  0.69470  Biso   1.000  H
  H1196    1.0000 0.16950  0.74870  0.69470  Biso   1.000  H
  H1197    1.0000 0.24870  0.30530  0.33050  Biso   1.000  H
  H1198    1.0000 0.24870  0.69470  0.66950  Biso   1.000  H
  H1199    1.0000 0.80530  0.66950  0.25130  Biso   1.000  H
  H1200    1.0000 0.19470  0.66950  0.74870  Biso   1.000  H
  H1201    1.0000 0.25130  0.83050  0.30530  Biso   1.000  H
  H1202    1.0000 0.66950  0.75130  0.30530  Biso   1.000  H
  H1203    1.0000 0.74870  0.16950  0.30530  Biso   1.000  H
  H1204    1.0000 0.33050  0.24870  0.30530  Biso   1.000  H
  H1205    1.0000 0.25130  0.19470  0.33050  Biso   1.000  H
  H1206    1.0000 0.25130  0.16950  0.69470  Biso   1.000  H
  H1207    1.0000 0.25130  0.80530  0.66950  Biso   1.000  H
  H1208    1.0000 0.30530  0.83050  0.74870  Biso   1.000  H
  H1209    1.0000 0.74870  0.83050  0.69470  Biso   1.000  H
  H1210    1.0000 0.69470  0.83050  0.25130  Biso   1.000  H
  H1211    1.0000 0.30530  0.75130  0.33050  Biso   1.000  H
  H1212    1.0000 0.33050  0.80530  0.25130  Biso   1.000  H
  H1213    1.0000 0.66950  0.19470  0.25130  Biso   1.000  H
  H1214    1.0000 0.30530  0.24870  0.66950  Biso   1.000  H
  H1215    1.0000 0.66950  0.80530  0.74870  Biso   1.000  H
  H1216    1.0000 0.69470  0.24870  0.33050  Biso   1.000  H
  H1217    1.0000 0.69470  0.75130  0.66950  Biso   1.000  H
  H1218    1.0000 0.33050  0.19470  0.74870  Biso   1.000  H
  H1219    1.0000 0.33050  0.75130  0.69470  Biso   1.000  H
  H1220    1.0000 0.66950  0.24870  0.69470  Biso   1.000  H
  H1221    1.0000 0.74870  0.80530  0.33050  Biso   1.000  H
  H1222    1.0000 0.74870  0.19470  0.66950  Biso   1.000  H
  H1223    1.0000 0.30530  0.16950  0.25130  Biso   1.000  H
  H1224    1.0000 0.69470  0.16950  0.74870  Biso   1.000  H
  H1225    1.0000 0.25130  0.33050  0.80530  Biso   1.000  H
  H1226    1.0000 0.66950  0.25130  0.80530  Biso   1.000  H
  H1227    1.0000 0.74870  0.66950  0.80530  Biso   1.000  H
  H1228    1.0000 0.33050  0.74870  0.80530  Biso   1.000  H
  H1229    1.0000 0.25130  0.69470  0.83050  Biso   1.000  H
  H1230    1.0000 0.25130  0.66950  0.19470  Biso   1.000  H
  H1231    1.0000 0.25130  0.30530  0.16950  Biso   1.000  H
  H1232    1.0000 0.30530  0.33050  0.24870  Biso   1.000  H
  H1233    1.0000 0.74870  0.33050  0.19470  Biso   1.000  H
  H1234    1.0000 0.69470  0.33050  0.75130  Biso   1.000  H
  H1235    1.0000 0.30530  0.25130  0.83050  Biso   1.000  H
  H1236    1.0000 0.33050  0.30530  0.75130  Biso   1.000  H
  H1237    1.0000 0.66950  0.69470  0.75130  Biso   1.000  H
  H1238    1.0000 0.30530  0.74870  0.16950  Biso   1.000  H
  H1239    1.0000 0.66950  0.30530  0.24870  Biso   1.000  H
  H1240    1.0000 0.69470  0.74870  0.83050  Biso   1.000  H
  H1241    1.0000 0.69470  0.25130  0.16950  Biso   1.000  H
  H1242    1.0000 0.33050  0.69470  0.24870  Biso   1.000  H
  H1243    1.0000 0.33050  0.25130  0.19470  Biso   1.000  H
  H1244    1.0000 0.66950  0.74870  0.19470  Biso   1.000  H
  H1245    1.0000 0.74870  0.30530  0.83050  Biso   1.000  H
  H1246    1.0000 0.74870  0.69470  0.16950  Biso   1.000  H
  H1247    1.0000 0.30530  0.66950  0.75130  Biso   1.000  H
  H1248    1.0000 0.69470  0.66950  0.24870  Biso   1.000  H
  C3265    1.0000 0.22490  0.15190  0.16240  Biso   1.000  C
  C3266    1.0000 0.84810  0.22490  0.16240  Biso   1.000  C
  C3267    1.0000 0.77510  0.84810  0.16240  Biso   1.000  C
  C3268    1.0000 0.15190  0.77510  0.16240  Biso   1.000  C
  C3269    1.0000 0.22490  0.83760  0.15190  Biso   1.000  C
  C3270    1.0000 0.22490  0.84810  0.83760  Biso   1.000  C
  C3271    1.0000 0.22490  0.16240  0.84810  Biso   1.000  C
  C3272    1.0000 0.16240  0.15190  0.77510  Biso   1.000  C
  C3273    1.0000 0.77510  0.15190  0.83760  Biso   1.000  C
  C3274    1.0000 0.83760  0.15190  0.22490  Biso   1.000  C
  C3275    1.0000 0.16240  0.22490  0.15190  Biso   1.000  C
  C3276    1.0000 0.15190  0.16240  0.22490  Biso   1.000  C
  C3277    1.0000 0.84810  0.83760  0.22490  Biso   1.000  C
  C3278    1.0000 0.16240  0.77510  0.84810  Biso   1.000  C
  C3279    1.0000 0.84810  0.16240  0.77510  Biso   1.000  C
  C3280    1.0000 0.83760  0.77510  0.15190  Biso   1.000  C
  C3281    1.0000 0.83760  0.22490  0.84810  Biso   1.000  C
  C3282    1.0000 0.15190  0.83760  0.77510  Biso   1.000  C
  C3283    1.0000 0.15190  0.22490  0.83760  Biso   1.000  C
  C3284    1.0000 0.84810  0.77510  0.83760  Biso   1.000  C
  C3285    1.0000 0.77510  0.16240  0.15190  Biso   1.000  C
  C3286    1.0000 0.77510  0.83760  0.84810  Biso   1.000  C
  C3287    1.0000 0.16240  0.84810  0.22490  Biso   1.000  C
  C3288    1.0000 0.83760  0.84810  0.77510  Biso   1.000  C
  C3289    1.0000 0.22490  0.65190  0.66240  Biso   1.000  C
  C3290    1.0000 0.84810  0.72490  0.66240  Biso   1.000  C
  C3291    1.0000 0.77510  0.34810  0.66240  Biso   1.000  C
  C3292    1.0000 0.15190  0.27510  0.66240  Biso   1.000  C
  C3293    1.0000 0.22490  0.33760  0.65190  Biso   1.000  C
  C3294    1.0000 0.22490  0.34810  0.33760  Biso   1.000  C
  C3295    1.0000 0.22490  0.66240  0.34810  Biso   1.000  C
  C3296    1.0000 0.16240  0.65190  0.27510  Biso   1.000  C
  C3297    1.0000 0.77510  0.65190  0.33760  Biso   1.000  C
  C3298    1.0000 0.83760  0.65190  0.72490  Biso   1.000  C
  C3299    1.0000 0.16240  0.72490  0.65190  Biso   1.000  C
  C3300    1.0000 0.15190  0.66240  0.72490  Biso   1.000  C
  C3301    1.0000 0.84810  0.33760  0.72490  Biso   1.000  C
  C3302    1.0000 0.16240  0.27510  0.34810  Biso   1.000  C
  C3303    1.0000 0.84810  0.66240  0.27510  Biso   1.000  C
  C3304    1.0000 0.83760  0.27510  0.65190  Biso   1.000  C
  C3305    1.0000 0.83760  0.72490  0.34810  Biso   1.000  C
  C3306    1.0000 0.15190  0.33760  0.27510  Biso   1.000  C
  C3307    1.0000 0.15190  0.72490  0.33760  Biso   1.000  C
  C3308    1.0000 0.84810  0.27510  0.33760  Biso   1.000  C
  C3309    1.0000 0.77510  0.66240  0.65190  Biso   1.000  C
  C3310    1.0000 0.77510  0.33760  0.34810  Biso   1.000  C
  C3311    1.0000 0.16240  0.34810  0.72490  Biso   1.000  C
  C3312    1.0000 0.83760  0.34810  0.27510  Biso   1.000  C
  C3313    1.0000 0.72490  0.15190  0.66240  Biso   1.000  C
  C3314    1.0000 0.34810  0.22490  0.66240  Biso   1.000  C
  C3315    1.0000 0.27510  0.84810  0.66240  Biso   1.000  C
  C3316    1.0000 0.65190  0.77510  0.66240  Biso   1.000  C
  C3317    1.0000 0.72490  0.83760  0.65190  Biso   1.000  C
  C3318    1.0000 0.72490  0.84810  0.33760  Biso   1.000  C
  C3319    1.0000 0.72490  0.16240  0.34810  Biso   1.000  C
  C3320    1.0000 0.66240  0.15190  0.27510  Biso   1.000  C
  C3321    1.0000 0.27510  0.15190  0.33760  Biso   1.000  C
  C3322    1.0000 0.33760  0.15190  0.72490  Biso   1.000  C
  C3323    1.0000 0.66240  0.22490  0.65190  Biso   1.000  C
  C3324    1.0000 0.65190  0.16240  0.72490  Biso   1.000  C
  C3325    1.0000 0.34810  0.83760  0.72490  Biso   1.000  C
  C3326    1.0000 0.66240  0.77510  0.34810  Biso   1.000  C
  C3327    1.0000 0.34810  0.16240  0.27510  Biso   1.000  C
  C3328    1.0000 0.33760  0.77510  0.65190  Biso   1.000  C
  C3329    1.0000 0.33760  0.22490  0.34810  Biso   1.000  C
  C3330    1.0000 0.65190  0.83760  0.27510  Biso   1.000  C
  C3331    1.0000 0.65190  0.22490  0.33760  Biso   1.000  C
  C3332    1.0000 0.34810  0.77510  0.33760  Biso   1.000  C
  C3333    1.0000 0.27510  0.16240  0.65190  Biso   1.000  C
  C3334    1.0000 0.27510  0.83760  0.34810  Biso   1.000  C
  C3335    1.0000 0.66240  0.84810  0.72490  Biso   1.000  C
  C3336    1.0000 0.33760  0.84810  0.27510  Biso   1.000  C
  C3337    1.0000 0.72490  0.65190  0.16240  Biso   1.000  C
  C3338    1.0000 0.34810  0.72490  0.16240  Biso   1.000  C
  C3339    1.0000 0.27510  0.34810  0.16240  Biso   1.000  C
  C3340    1.0000 0.65190  0.27510  0.16240  Biso   1.000  C
  C3341    1.0000 0.72490  0.33760  0.15190  Biso   1.000  C
  C3342    1.0000 0.72490  0.34810  0.83760  Biso   1.000  C
  C3343    1.0000 0.72490  0.66240  0.84810  Biso   1.000  C
  C3344    1.0000 0.66240  0.65190  0.77510  Biso   1.000  C
  C3345    1.0000 0.27510  0.65190  0.83760  Biso   1.000  C
  C3346    1.0000 0.33760  0.65190  0.22490  Biso   1.000  C
  C3347    1.0000 0.66240  0.72490  0.15190  Biso   1.000  C
  C3348    1.0000 0.65190  0.66240  0.22490  Biso   1.000  C
  C3349    1.0000 0.34810  0.33760  0.22490  Biso   1.000  C
  C3350    1.0000 0.66240  0.27510  0.84810  Biso   1.000  C
  C3351    1.0000 0.34810  0.66240  0.77510  Biso   1.000  C
  C3352    1.0000 0.33760  0.27510  0.15190  Biso   1.000  C
  C3353    1.0000 0.33760  0.72490  0.84810  Biso   1.000  C
  C3354    1.0000 0.65190  0.33760  0.77510  Biso   1.000  C
  C3355    1.0000 0.65190  0.72490  0.83760  Biso   1.000  C
  C3356    1.0000 0.34810  0.27510  0.83760  Biso   1.000  C
  C3357    1.0000 0.27510  0.66240  0.15190  Biso   1.000  C
  C3358    1.0000 0.27510  0.33760  0.84810  Biso   1.000  C
  C3359    1.0000 0.66240  0.34810  0.22490  Biso   1.000  C
  C3360    1.0000 0.33760  0.34810  0.77510  Biso   1.000  C
  C3361    1.0000 0.77510  0.84810  0.83760  Biso   1.000  C
  C3362    1.0000 0.15190  0.77510  0.83760  Biso   1.000  C
  C3363    1.0000 0.22490  0.15190  0.83760  Biso   1.000  C
  C3364    1.0000 0.84810  0.22490  0.83760  Biso   1.000  C
  C3365    1.0000 0.77510  0.16240  0.84810  Biso   1.000  C
  C3366    1.0000 0.77510  0.15190  0.16240  Biso   1.000  C
  C3367    1.0000 0.77510  0.83760  0.15190  Biso   1.000  C
  C3368    1.0000 0.83760  0.84810  0.22490  Biso   1.000  C
  C3369    1.0000 0.22490  0.84810  0.16240  Biso   1.000  C
  C3370    1.0000 0.16240  0.84810  0.77510  Biso   1.000  C
  C3371    1.0000 0.83760  0.77510  0.84810  Biso   1.000  C
  C3372    1.0000 0.84810  0.83760  0.77510  Biso   1.000  C
  C3373    1.0000 0.15190  0.16240  0.77510  Biso   1.000  C
  C3374    1.0000 0.83760  0.22490  0.15190  Biso   1.000  C
  C3375    1.0000 0.15190  0.83760  0.22490  Biso   1.000  C
  C3376    1.0000 0.16240  0.22490  0.84810  Biso   1.000  C
  C3377    1.0000 0.16240  0.77510  0.15190  Biso   1.000  C
  C3378    1.0000 0.84810  0.16240  0.22490  Biso   1.000  C
  C3379    1.0000 0.84810  0.77510  0.16240  Biso   1.000  C
  C3380    1.0000 0.15190  0.22490  0.16240  Biso   1.000  C
  C3381    1.0000 0.22490  0.83760  0.84810  Biso   1.000  C
  C3382    1.0000 0.22490  0.16240  0.15190  Biso   1.000  C
  C3383    1.0000 0.83760  0.15190  0.77510  Biso   1.000  C
  C3384    1.0000 0.16240  0.15190  0.22490  Biso   1.000  C
  C3385    1.0000 0.77510  0.34810  0.33760  Biso   1.000  C
  C3386    1.0000 0.15190  0.27510  0.33760  Biso   1.000  C
  C3387    1.0000 0.22490  0.65190  0.33760  Biso   1.000  C
  C3388    1.0000 0.84810  0.72490  0.33760  Biso   1.000  C
  C3389    1.0000 0.77510  0.66240  0.34810  Biso   1.000  C
  C3390    1.0000 0.77510  0.65190  0.66240  Biso   1.000  C
  C3391    1.0000 0.77510  0.33760  0.65190  Biso   1.000  C
  C3392    1.0000 0.83760  0.34810  0.72490  Biso   1.000  C
  C3393    1.0000 0.22490  0.34810  0.66240  Biso   1.000  C
  C3394    1.0000 0.16240  0.34810  0.27510  Biso   1.000  C
  C3395    1.0000 0.83760  0.27510  0.34810  Biso   1.000  C
  C3396    1.0000 0.84810  0.33760  0.27510  Biso   1.000  C
  C3397    1.0000 0.15190  0.66240  0.27510  Biso   1.000  C
  C3398    1.0000 0.83760  0.72490  0.65190  Biso   1.000  C
  C3399    1.0000 0.15190  0.33760  0.72490  Biso   1.000  C
  C3400    1.0000 0.16240  0.72490  0.34810  Biso   1.000  C
  C3401    1.0000 0.16240  0.27510  0.65190  Biso   1.000  C
  C3402    1.0000 0.84810  0.66240  0.72490  Biso   1.000  C
  C3403    1.0000 0.84810  0.27510  0.66240  Biso   1.000  C
  C3404    1.0000 0.15190  0.72490  0.66240  Biso   1.000  C
  C3405    1.0000 0.22490  0.33760  0.34810  Biso   1.000  C
  C3406    1.0000 0.22490  0.66240  0.65190  Biso   1.000  C
  C3407    1.0000 0.83760  0.65190  0.27510  Biso   1.000  C
  C3408    1.0000 0.16240  0.65190  0.72490  Biso   1.000  C
  C3409    1.0000 0.27510  0.84810  0.33760  Biso   1.000  C
  C3410    1.0000 0.65190  0.77510  0.33760  Biso   1.000  C
  C3411    1.0000 0.72490  0.15190  0.33760  Biso   1.000  C
  C3412    1.0000 0.34810  0.22490  0.33760  Biso   1.000  C
  C3413    1.0000 0.27510  0.16240  0.34810  Biso   1.000  C
  C3414    1.0000 0.27510  0.15190  0.66240  Biso   1.000  C
  C3415    1.0000 0.27510  0.83760  0.65190  Biso   1.000  C
  C3416    1.0000 0.33760  0.84810  0.72490  Biso   1.000  C
  C3417    1.0000 0.72490  0.84810  0.66240  Biso   1.000  C
  C3418    1.0000 0.66240  0.84810  0.27510  Biso   1.000  C
  C3419    1.0000 0.33760  0.77510  0.34810  Biso   1.000  C
  C3420    1.0000 0.34810  0.83760  0.27510  Biso   1.000  C
  C3421    1.0000 0.65190  0.16240  0.27510  Biso   1.000  C
  C3422    1.0000 0.33760  0.22490  0.65190  Biso   1.000  C
  C3423    1.0000 0.65190  0.83760  0.72490  Biso   1.000  C
  C3424    1.0000 0.66240  0.22490  0.34810  Biso   1.000  C
  C3425    1.0000 0.66240  0.77510  0.65190  Biso   1.000  C
  C3426    1.0000 0.34810  0.16240  0.72490  Biso   1.000  C
  C3427    1.0000 0.34810  0.77510  0.66240  Biso   1.000  C
  C3428    1.0000 0.65190  0.22490  0.66240  Biso   1.000  C
  C3429    1.0000 0.72490  0.83760  0.34810  Biso   1.000  C
  C3430    1.0000 0.72490  0.16240  0.65190  Biso   1.000  C
  C3431    1.0000 0.33760  0.15190  0.27510  Biso   1.000  C
  C3432    1.0000 0.66240  0.15190  0.72490  Biso   1.000  C
  C3433    1.0000 0.27510  0.34810  0.83760  Biso   1.000  C
  C3434    1.0000 0.65190  0.27510  0.83760  Biso   1.000  C
  C3435    1.0000 0.72490  0.65190  0.83760  Biso   1.000  C
  C3436    1.0000 0.34810  0.72490  0.83760  Biso   1.000  C
  C3437    1.0000 0.27510  0.66240  0.84810  Biso   1.000  C
  C3438    1.0000 0.27510  0.65190  0.16240  Biso   1.000  C
  C3439    1.0000 0.27510  0.33760  0.15190  Biso   1.000  C
  C3440    1.0000 0.33760  0.34810  0.22490  Biso   1.000  C
  C3441    1.0000 0.72490  0.34810  0.16240  Biso   1.000  C
  C3442    1.0000 0.66240  0.34810  0.77510  Biso   1.000  C
  C3443    1.0000 0.33760  0.27510  0.84810  Biso   1.000  C
  C3444    1.0000 0.34810  0.33760  0.77510  Biso   1.000  C
  C3445    1.0000 0.65190  0.66240  0.77510  Biso   1.000  C
  C3446    1.0000 0.33760  0.72490  0.15190  Biso   1.000  C
  C3447    1.0000 0.65190  0.33760  0.22490  Biso   1.000  C
  C3448    1.0000 0.66240  0.72490  0.84810  Biso   1.000  C
  C3449    1.0000 0.66240  0.27510  0.15190  Biso   1.000  C
  C3450    1.0000 0.34810  0.66240  0.22490  Biso   1.000  C
  C3451    1.0000 0.34810  0.27510  0.16240  Biso   1.000  C
  C3452    1.0000 0.65190  0.72490  0.16240  Biso   1.000  C
  C3453    1.0000 0.72490  0.33760  0.84810  Biso   1.000  C
  C3454    1.0000 0.72490  0.66240  0.15190  Biso   1.000  C
  C3455    1.0000 0.33760  0.65190  0.77510  Biso   1.000  C
  C3456    1.0000 0.66240  0.65190  0.22490  Biso   1.000  C
  C3457    1.0000 0.17510  0.13900  0.13900  Biso   1.000  C
  C3458    1.0000 0.86100  0.17510  0.13900  Biso   1.000  C
  C3459    1.0000 0.82490  0.86100  0.13900  Biso   1.000  C
  C3460    1.0000 0.13900  0.82490  0.13900  Biso   1.000  C
  C3461    1.0000 0.17510  0.86100  0.13900  Biso   1.000  C
  C3462    1.0000 0.17510  0.86100  0.86100  Biso   1.000  C
  C3463    1.0000 0.17510  0.13900  0.86100  Biso   1.000  C
  C3464    1.0000 0.13900  0.13900  0.82490  Biso   1.000  C
  C3465    1.0000 0.82490  0.13900  0.86100  Biso   1.000  C
  C3466    1.0000 0.86100  0.13900  0.17510  Biso   1.000  C
  C3467    1.0000 0.13900  0.17510  0.13900  Biso   1.000  C
  C3468    1.0000 0.13900  0.13900  0.17510  Biso   1.000  C
  C3469    1.0000 0.86100  0.86100  0.17510  Biso   1.000  C
  C3470    1.0000 0.13900  0.82490  0.86100  Biso   1.000  C
  C3471    1.0000 0.86100  0.13900  0.82490  Biso   1.000  C
  C3472    1.0000 0.86100  0.82490  0.13900  Biso   1.000  C
  C3473    1.0000 0.86100  0.17510  0.86100  Biso   1.000  C
  C3474    1.0000 0.13900  0.86100  0.82490  Biso   1.000  C
  C3475    1.0000 0.13900  0.17510  0.86100  Biso   1.000  C
  C3476    1.0000 0.86100  0.82490  0.86100  Biso   1.000  C
  C3477    1.0000 0.82490  0.13900  0.13900  Biso   1.000  C
  C3478    1.0000 0.82490  0.86100  0.86100  Biso   1.000  C
  C3479    1.0000 0.13900  0.86100  0.17510  Biso   1.000  C
  C3480    1.0000 0.86100  0.86100  0.82490  Biso   1.000  C
  C3481    1.0000 0.17510  0.63900  0.63900  Biso   1.000  C
  C3482    1.0000 0.86100  0.67510  0.63900  Biso   1.000  C
  C3483    1.0000 0.82490  0.36100  0.63900  Biso   1.000  C
  C3484    1.0000 0.13900  0.32490  0.63900  Biso   1.000  C
  C3485    1.0000 0.17510  0.36100  0.63900  Biso   1.000  C
  C3486    1.0000 0.17510  0.36100  0.36100  Biso   1.000  C
  C3487    1.0000 0.17510  0.63900  0.36100  Biso   1.000  C
  C3488    1.0000 0.13900  0.63900  0.32490  Biso   1.000  C
  C3489    1.0000 0.82490  0.63900  0.36100  Biso   1.000  C
  C3490    1.0000 0.86100  0.63900  0.67510  Biso   1.000  C
  C3491    1.0000 0.13900  0.67510  0.63900  Biso   1.000  C
  C3492    1.0000 0.13900  0.63900  0.67510  Biso   1.000  C
  C3493    1.0000 0.86100  0.36100  0.67510  Biso   1.000  C
  C3494    1.0000 0.13900  0.32490  0.36100  Biso   1.000  C
  C3495    1.0000 0.86100  0.63900  0.32490  Biso   1.000  C
  C3496    1.0000 0.86100  0.32490  0.63900  Biso   1.000  C
  C3497    1.0000 0.86100  0.67510  0.36100  Biso   1.000  C
  C3498    1.0000 0.13900  0.36100  0.32490  Biso   1.000  C
  C3499    1.0000 0.13900  0.67510  0.36100  Biso   1.000  C
  C3500    1.0000 0.86100  0.32490  0.36100  Biso   1.000  C
  C3501    1.0000 0.82490  0.63900  0.63900  Biso   1.000  C
  C3502    1.0000 0.82490  0.36100  0.36100  Biso   1.000  C
  C3503    1.0000 0.13900  0.36100  0.67510  Biso   1.000  C
  C3504    1.0000 0.86100  0.36100  0.32490  Biso   1.000  C
  C3505    1.0000 0.67510  0.13900  0.63900  Biso   1.000  C
  C3506    1.0000 0.36100  0.17510  0.63900  Biso   1.000  C
  C3507    1.0000 0.32490  0.86100  0.63900  Biso   1.000  C
  C3508    1.0000 0.63900  0.82490  0.63900  Biso   1.000  C
  C3509    1.0000 0.67510  0.86100  0.63900  Biso   1.000  C
  C3510    1.0000 0.67510  0.86100  0.36100  Biso   1.000  C
  C3511    1.0000 0.67510  0.13900  0.36100  Biso   1.000  C
  C3512    1.0000 0.63900  0.13900  0.32490  Biso   1.000  C
  C3513    1.0000 0.32490  0.13900  0.36100  Biso   1.000  C
  C3514    1.0000 0.36100  0.13900  0.67510  Biso   1.000  C
  C3515    1.0000 0.63900  0.17510  0.63900  Biso   1.000  C
  C3516    1.0000 0.63900  0.13900  0.67510  Biso   1.000  C
  C3517    1.0000 0.36100  0.86100  0.67510  Biso   1.000  C
  C3518    1.0000 0.63900  0.82490  0.36100  Biso   1.000  C
  C3519    1.0000 0.36100  0.13900  0.32490  Biso   1.000  C
  C3520    1.0000 0.36100  0.82490  0.63900  Biso   1.000  C
  C3521    1.0000 0.36100  0.17510  0.36100  Biso   1.000  C
  C3522    1.0000 0.63900  0.86100  0.32490  Biso   1.000  C
  C3523    1.0000 0.63900  0.17510  0.36100  Biso   1.000  C
  C3524    1.0000 0.36100  0.82490  0.36100  Biso   1.000  C
  C3525    1.0000 0.32490  0.13900  0.63900  Biso   1.000  C
  C3526    1.0000 0.32490  0.86100  0.36100  Biso   1.000  C
  C3527    1.0000 0.63900  0.86100  0.67510  Biso   1.000  C
  C3528    1.0000 0.36100  0.86100  0.32490  Biso   1.000  C
  C3529    1.0000 0.67510  0.63900  0.13900  Biso   1.000  C
  C3530    1.0000 0.36100  0.67510  0.13900  Biso   1.000  C
  C3531    1.0000 0.32490  0.36100  0.13900  Biso   1.000  C
  C3532    1.0000 0.63900  0.32490  0.13900  Biso   1.000  C
  C3533    1.0000 0.67510  0.36100  0.13900  Biso   1.000  C
  C3534    1.0000 0.67510  0.36100  0.86100  Biso   1.000  C
  C3535    1.0000 0.67510  0.63900  0.86100  Biso   1.000  C
  C3536    1.0000 0.63900  0.63900  0.82490  Biso   1.000  C
  C3537    1.0000 0.32490  0.63900  0.86100  Biso   1.000  C
  C3538    1.0000 0.36100  0.63900  0.17510  Biso   1.000  C
  C3539    1.0000 0.63900  0.67510  0.13900  Biso   1.000  C
  C3540    1.0000 0.63900  0.63900  0.17510  Biso   1.000  C
  C3541    1.0000 0.36100  0.36100  0.17510  Biso   1.000  C
  C3542    1.0000 0.63900  0.32490  0.86100  Biso   1.000  C
  C3543    1.0000 0.36100  0.63900  0.82490  Biso   1.000  C
  C3544    1.0000 0.36100  0.32490  0.13900  Biso   1.000  C
  C3545    1.0000 0.36100  0.67510  0.86100  Biso   1.000  C
  C3546    1.0000 0.63900  0.36100  0.82490  Biso   1.000  C
  C3547    1.0000 0.63900  0.67510  0.86100  Biso   1.000  C
  C3548    1.0000 0.36100  0.32490  0.86100  Biso   1.000  C
  C3549    1.0000 0.32490  0.63900  0.13900  Biso   1.000  C
  C3550    1.0000 0.32490  0.36100  0.86100  Biso   1.000  C
  C3551    1.0000 0.63900  0.36100  0.17510  Biso   1.000  C
  C3552    1.0000 0.36100  0.36100  0.82490  Biso   1.000  C
  C3553    1.0000 0.16300  0.12840  0.16300  Biso   1.000  C
  C3554    1.0000 0.87160  0.16300  0.16300  Biso   1.000  C
  C3555    1.0000 0.83700  0.87160  0.16300  Biso   1.000  C
  C3556    1.0000 0.12840  0.83700  0.16300  Biso   1.000  C
  C3557    1.0000 0.16300  0.83700  0.12840  Biso   1.000  C
  C3558    1.0000 0.16300  0.87160  0.83700  Biso   1.000  C
  C3559    1.0000 0.16300  0.16300  0.87160  Biso   1.000  C
  C3560    1.0000 0.16300  0.12840  0.83700  Biso   1.000  C
  C3561    1.0000 0.83700  0.12840  0.83700  Biso   1.000  C
  C3562    1.0000 0.83700  0.12840  0.16300  Biso   1.000  C
  C3563    1.0000 0.16300  0.16300  0.12840  Biso   1.000  C
  C3564    1.0000 0.12840  0.16300  0.16300  Biso   1.000  C
  C3565    1.0000 0.87160  0.83700  0.16300  Biso   1.000  C
  C3566    1.0000 0.16300  0.83700  0.87160  Biso   1.000  C
  C3567    1.0000 0.87160  0.16300  0.83700  Biso   1.000  C
  C3568    1.0000 0.83700  0.83700  0.12840  Biso   1.000  C
  C3569    1.0000 0.83700  0.16300  0.87160  Biso   1.000  C
  C3570    1.0000 0.12840  0.83700  0.83700  Biso   1.000  C
  C3571    1.0000 0.12840  0.16300  0.83700  Biso   1.000  C
  C3572    1.0000 0.87160  0.83700  0.83700  Biso   1.000  C
  C3573    1.0000 0.83700  0.16300  0.12840  Biso   1.000  C
  C3574    1.0000 0.83700  0.83700  0.87160  Biso   1.000  C
  C3575    1.0000 0.16300  0.87160  0.16300  Biso   1.000  C
  C3576    1.0000 0.83700  0.87160  0.83700  Biso   1.000  C
  C3577    1.0000 0.16300  0.62840  0.66300  Biso   1.000  C
  C3578    1.0000 0.87160  0.66300  0.66300  Biso   1.000  C
  C3579    1.0000 0.83700  0.37160  0.66300  Biso   1.000  C
  C3580    1.0000 0.12840  0.33700  0.66300  Biso   1.000  C
  C3581    1.0000 0.16300  0.33700  0.62840  Biso   1.000  C
  C3582    1.0000 0.16300  0.37160  0.33700  Biso   1.000  C
  C3583    1.0000 0.16300  0.66300  0.37160  Biso   1.000  C
  C3584    1.0000 0.16300  0.62840  0.33700  Biso   1.000  C
  C3585    1.0000 0.83700  0.62840  0.33700  Biso   1.000  C
  C3586    1.0000 0.83700  0.62840  0.66300  Biso   1.000  C
  C3587    1.0000 0.16300  0.66300  0.62840  Biso   1.000  C
  C3588    1.0000 0.12840  0.66300  0.66300  Biso   1.000  C
  C3589    1.0000 0.87160  0.33700  0.66300  Biso   1.000  C
  C3590    1.0000 0.16300  0.33700  0.37160  Biso   1.000  C
  C3591    1.0000 0.87160  0.66300  0.33700  Biso   1.000  C
  C3592    1.0000 0.83700  0.33700  0.62840  Biso   1.000  C
  C3593    1.0000 0.83700  0.66300  0.37160  Biso   1.000  C
  C3594    1.0000 0.12840  0.33700  0.33700  Biso   1.000  C
  C3595    1.0000 0.12840  0.66300  0.33700  Biso   1.000  C
  C3596    1.0000 0.87160  0.33700  0.33700  Biso   1.000  C
  C3597    1.0000 0.83700  0.66300  0.62840  Biso   1.000  C
  C3598    1.0000 0.83700  0.33700  0.37160  Biso   1.000  C
  C3599    1.0000 0.16300  0.37160  0.66300  Biso   1.000  C
  C3600    1.0000 0.83700  0.37160  0.33700  Biso   1.000  C
  C3601    1.0000 0.66300  0.12840  0.66300  Biso   1.000  C
  C3602    1.0000 0.37160  0.16300  0.66300  Biso   1.000  C
  C3603    1.0000 0.33700  0.87160  0.66300  Biso   1.000  C
  C3604    1.0000 0.62840  0.83700  0.66300  Biso   1.000  C
  C3605    1.0000 0.66300  0.83700  0.62840  Biso   1.000  C
  C3606    1.0000 0.66300  0.87160  0.33700  Biso   1.000  C
  C3607    1.0000 0.66300  0.16300  0.37160  Biso   1.000  C
  C3608    1.0000 0.66300  0.12840  0.33700  Biso   1.000  C
  C3609    1.0000 0.33700  0.12840  0.33700  Biso   1.000  C
  C3610    1.0000 0.33700  0.12840  0.66300  Biso   1.000  C
  C3611    1.0000 0.66300  0.16300  0.62840  Biso   1.000  C
  C3612    1.0000 0.62840  0.16300  0.66300  Biso   1.000  C
  C3613    1.0000 0.37160  0.83700  0.66300  Biso   1.000  C
  C3614    1.0000 0.66300  0.83700  0.37160  Biso   1.000  C
  C3615    1.0000 0.37160  0.16300  0.33700  Biso   1.000  C
  C3616    1.0000 0.33700  0.83700  0.62840  Biso   1.000  C
  C3617    1.0000 0.33700  0.16300  0.37160  Biso   1.000  C
  C3618    1.0000 0.62840  0.83700  0.33700  Biso   1.000  C
  C3619    1.0000 0.62840  0.16300  0.33700  Biso   1.000  C
  C3620    1.0000 0.37160  0.83700  0.33700  Biso   1.000  C
  C3621    1.0000 0.33700  0.16300  0.62840  Biso   1.000  C
  C3622    1.0000 0.33700  0.83700  0.37160  Biso   1.000  C
  C3623    1.0000 0.66300  0.87160  0.66300  Biso   1.000  C
  C3624    1.0000 0.33700  0.87160  0.33700  Biso   1.000  C
  C3625    1.0000 0.66300  0.62840  0.16300  Biso   1.000  C
  C3626    1.0000 0.37160  0.66300  0.16300  Biso   1.000  C
  C3627    1.0000 0.33700  0.37160  0.16300  Biso   1.000  C
  C3628    1.0000 0.62840  0.33700  0.16300  Biso   1.000  C
  C3629    1.0000 0.66300  0.33700  0.12840  Biso   1.000  C
  C3630    1.0000 0.66300  0.37160  0.83700  Biso   1.000  C
  C3631    1.0000 0.66300  0.66300  0.87160  Biso   1.000  C
  C3632    1.0000 0.66300  0.62840  0.83700  Biso   1.000  C
  C3633    1.0000 0.33700  0.62840  0.83700  Biso   1.000  C
  C3634    1.0000 0.33700  0.62840  0.16300  Biso   1.000  C
  C3635    1.0000 0.66300  0.66300  0.12840  Biso   1.000  C
  C3636    1.0000 0.62840  0.66300  0.16300  Biso   1.000  C
  C3637    1.0000 0.37160  0.33700  0.16300  Biso   1.000  C
  C3638    1.0000 0.66300  0.33700  0.87160  Biso   1.000  C
  C3639    1.0000 0.37160  0.66300  0.83700  Biso   1.000  C
  C3640    1.0000 0.33700  0.33700  0.12840  Biso   1.000  C
  C3641    1.0000 0.33700  0.66300  0.87160  Biso   1.000  C
  C3642    1.0000 0.62840  0.33700  0.83700  Biso   1.000  C
  C3643    1.0000 0.62840  0.66300  0.83700  Biso   1.000  C
  C3644    1.0000 0.37160  0.33700  0.83700  Biso   1.000  C
  C3645    1.0000 0.33700  0.66300  0.12840  Biso   1.000  C
  C3646    1.0000 0.33700  0.33700  0.87160  Biso   1.000  C
  C3647    1.0000 0.66300  0.37160  0.16300  Biso   1.000  C
  C3648    1.0000 0.33700  0.37160  0.83700  Biso   1.000  C
  H1249    1.0000 0.17160  0.11280  0.17160  Biso   1.000  H
  H1250    1.0000 0.88720  0.17160  0.17160  Biso   1.000  H
  H1251    1.0000 0.82840  0.88720  0.17160  Biso   1.000  H
  H1252    1.0000 0.11280  0.82840  0.17160  Biso   1.000  H
  H1253    1.0000 0.17160  0.82840  0.11280  Biso   1.000  H
  H1254    1.0000 0.17160  0.88720  0.82840  Biso   1.000  H
  H1255    1.0000 0.17160  0.17160  0.88720  Biso   1.000  H
  H1256    1.0000 0.17160  0.11280  0.82840  Biso   1.000  H
  H1257    1.0000 0.82840  0.11280  0.82840  Biso   1.000  H
  H1258    1.0000 0.82840  0.11280  0.17160  Biso   1.000  H
  H1259    1.0000 0.17160  0.17160  0.11280  Biso   1.000  H
  H1260    1.0000 0.11280  0.17160  0.17160  Biso   1.000  H
  H1261    1.0000 0.88720  0.82840  0.17160  Biso   1.000  H
  H1262    1.0000 0.17160  0.82840  0.88720  Biso   1.000  H
  H1263    1.0000 0.88720  0.17160  0.82840  Biso   1.000  H
  H1264    1.0000 0.82840  0.82840  0.11280  Biso   1.000  H
  H1265    1.0000 0.82840  0.17160  0.88720  Biso   1.000  H
  H1266    1.0000 0.11280  0.82840  0.82840  Biso   1.000  H
  H1267    1.0000 0.11280  0.17160  0.82840  Biso   1.000  H
  H1268    1.0000 0.88720  0.82840  0.82840  Biso   1.000  H
  H1269    1.0000 0.82840  0.17160  0.11280  Biso   1.000  H
  H1270    1.0000 0.82840  0.82840  0.88720  Biso   1.000  H
  H1271    1.0000 0.17160  0.88720  0.17160  Biso   1.000  H
  H1272    1.0000 0.82840  0.88720  0.82840  Biso   1.000  H
  H1273    1.0000 0.17160  0.61280  0.67160  Biso   1.000  H
  H1274    1.0000 0.88720  0.67160  0.67160  Biso   1.000  H
  H1275    1.0000 0.82840  0.38720  0.67160  Biso   1.000  H
  H1276    1.0000 0.11280  0.32840  0.67160  Biso   1.000  H
  H1277    1.0000 0.17160  0.32840  0.61280  Biso   1.000  H
  H1278    1.0000 0.17160  0.38720  0.32840  Biso   1.000  H
  H1279    1.0000 0.17160  0.67160  0.38720  Biso   1.000  H
  H1280    1.0000 0.17160  0.61280  0.32840  Biso   1.000  H
  H1281    1.0000 0.82840  0.61280  0.32840  Biso   1.000  H
  H1282    1.0000 0.82840  0.61280  0.67160  Biso   1.000  H
  H1283    1.0000 0.17160  0.67160  0.61280  Biso   1.000  H
  H1284    1.0000 0.11280  0.67160  0.67160  Biso   1.000  H
  H1285    1.0000 0.88720  0.32840  0.67160  Biso   1.000  H
  H1286    1.0000 0.17160  0.32840  0.38720  Biso   1.000  H
  H1287    1.0000 0.88720  0.67160  0.32840  Biso   1.000  H
  H1288    1.0000 0.82840  0.32840  0.61280  Biso   1.000  H
  H1289    1.0000 0.82840  0.67160  0.38720  Biso   1.000  H
  H1290    1.0000 0.11280  0.32840  0.32840  Biso   1.000  H
  H1291    1.0000 0.11280  0.67160  0.32840  Biso   1.000  H
  H1292    1.0000 0.88720  0.32840  0.32840  Biso   1.000  H
  H1293    1.0000 0.82840  0.67160  0.61280  Biso   1.000  H
  H1294    1.0000 0.82840  0.32840  0.38720  Biso   1.000  H
  H1295    1.0000 0.17160  0.38720  0.67160  Biso   1.000  H
  H1296    1.0000 0.82840  0.38720  0.32840  Biso   1.000  H
  H1297    1.0000 0.67160  0.11280  0.67160  Biso   1.000  H
  H1298    1.0000 0.38720  0.17160  0.67160  Biso   1.000  H
  H1299    1.0000 0.32840  0.88720  0.67160  Biso   1.000  H
  H1300    1.0000 0.61280  0.82840  0.67160  Biso   1.000  H
  H1301    1.0000 0.67160  0.82840  0.61280  Biso   1.000  H
  H1302    1.0000 0.67160  0.88720  0.32840  Biso   1.000  H
  H1303    1.0000 0.67160  0.17160  0.38720  Biso   1.000  H
  H1304    1.0000 0.67160  0.11280  0.32840  Biso   1.000  H
  H1305    1.0000 0.32840  0.11280  0.32840  Biso   1.000  H
  H1306    1.0000 0.32840  0.11280  0.67160  Biso   1.000  H
  H1307    1.0000 0.67160  0.17160  0.61280  Biso   1.000  H
  H1308    1.0000 0.61280  0.17160  0.67160  Biso   1.000  H
  H1309    1.0000 0.38720  0.82840  0.67160  Biso   1.000  H
  H1310    1.0000 0.67160  0.82840  0.38720  Biso   1.000  H
  H1311    1.0000 0.38720  0.17160  0.32840  Biso   1.000  H
  H1312    1.0000 0.32840  0.82840  0.61280  Biso   1.000  H
  H1313    1.0000 0.32840  0.17160  0.38720  Biso   1.000  H
  H1314    1.0000 0.61280  0.82840  0.32840  Biso   1.000  H
  H1315    1.0000 0.61280  0.17160  0.32840  Biso   1.000  H
  H1316    1.0000 0.38720  0.82840  0.32840  Biso   1.000  H
  H1317    1.0000 0.32840  0.17160  0.61280  Biso   1.000  H
  H1318    1.0000 0.32840  0.82840  0.38720  Biso   1.000  H
  H1319    1.0000 0.67160  0.88720  0.67160  Biso   1.000  H
  H1320    1.0000 0.32840  0.88720  0.32840  Biso   1.000  H
  H1321    1.0000 0.67160  0.61280  0.17160  Biso   1.000  H
  H1322    1.0000 0.38720  0.67160  0.17160  Biso   1.000  H
  H1323    1.0000 0.32840  0.38720  0.17160  Biso   1.000  H
  H1324    1.0000 0.61280  0.32840  0.17160  Biso   1.000  H
  H1325    1.0000 0.67160  0.32840  0.11280  Biso   1.000  H
  H1326    1.0000 0.67160  0.38720  0.82840  Biso   1.000  H
  H1327    1.0000 0.67160  0.67160  0.88720  Biso   1.000  H
  H1328    1.0000 0.67160  0.61280  0.82840  Biso   1.000  H
  H1329    1.0000 0.32840  0.61280  0.82840  Biso   1.000  H
  H1330    1.0000 0.32840  0.61280  0.17160  Biso   1.000  H
  H1331    1.0000 0.67160  0.67160  0.11280  Biso   1.000  H
  H1332    1.0000 0.61280  0.67160  0.17160  Biso   1.000  H
  H1333    1.0000 0.38720  0.32840  0.17160  Biso   1.000  H
  H1334    1.0000 0.67160  0.32840  0.88720  Biso   1.000  H
  H1335    1.0000 0.38720  0.67160  0.82840  Biso   1.000  H
  H1336    1.0000 0.32840  0.32840  0.11280  Biso   1.000  H
  H1337    1.0000 0.32840  0.67160  0.88720  Biso   1.000  H
  H1338    1.0000 0.61280  0.32840  0.82840  Biso   1.000  H
  H1339    1.0000 0.61280  0.67160  0.82840  Biso   1.000  H
  H1340    1.0000 0.38720  0.32840  0.82840  Biso   1.000  H
  H1341    1.0000 0.32840  0.67160  0.11280  Biso   1.000  H
  H1342    1.0000 0.32840  0.32840  0.88720  Biso   1.000  H
  H1343    1.0000 0.67160  0.38720  0.17160  Biso   1.000  H
  H1344    1.0000 0.32840  0.38720  0.82840  Biso   1.000  H
  O433     1.0000 0.30460  0.18840  0.00000  Biso   1.000  O
  O434     1.0000 0.81160  0.30460  0.00000  Biso   1.000  O
  O435     1.0000 0.69540  0.81160  0.00000  Biso   1.000  O
  O436     1.0000 0.18840  0.69540  0.00000  Biso   1.000  O
  O437     1.0000 0.30460  0.00000  0.18840  Biso   1.000  O
  O438     1.0000 0.30460  0.81160  0.00000  Biso   1.000  O
  O439     1.0000 0.30460  0.00000  0.81160  Biso   1.000  O
  O440     1.0000 0.00000  0.18840  0.69540  Biso   1.000  O
  O441     1.0000 0.69540  0.18840  0.00000  Biso   1.000  O
  O442     1.0000 0.00000  0.18840  0.30460  Biso   1.000  O
  O443     1.0000 0.00000  0.30460  0.18840  Biso   1.000  O
  O444     1.0000 0.18840  0.00000  0.30460  Biso   1.000  O
  O445     1.0000 0.81160  0.00000  0.30460  Biso   1.000  O
  O446     1.0000 0.00000  0.69540  0.81160  Biso   1.000  O
  O447     1.0000 0.81160  0.00000  0.69540  Biso   1.000  O
  O448     1.0000 0.00000  0.69540  0.18840  Biso   1.000  O
  O449     1.0000 0.00000  0.30460  0.81160  Biso   1.000  O
  O450     1.0000 0.18840  0.00000  0.69540  Biso   1.000  O
  O451     1.0000 0.18840  0.30460  0.00000  Biso   1.000  O
  O452     1.0000 0.81160  0.69540  0.00000  Biso   1.000  O
  O453     1.0000 0.69540  0.00000  0.18840  Biso   1.000  O
  O454     1.0000 0.69540  0.00000  0.81160  Biso   1.000  O
  O455     1.0000 0.00000  0.81160  0.30460  Biso   1.000  O
  O456     1.0000 0.00000  0.81160  0.69540  Biso   1.000  O
  O457     1.0000 0.30460  0.68840  0.50000  Biso   1.000  O
  O458     1.0000 0.81160  0.80460  0.50000  Biso   1.000  O
  O459     1.0000 0.69540  0.31160  0.50000  Biso   1.000  O
  O460     1.0000 0.18840  0.19540  0.50000  Biso   1.000  O
  O461     1.0000 0.30460  0.50000  0.68840  Biso   1.000  O
  O462     1.0000 0.30460  0.31160  0.50000  Biso   1.000  O
  O463     1.0000 0.30460  0.50000  0.31160  Biso   1.000  O
  O464     1.0000 0.00000  0.68840  0.19540  Biso   1.000  O
  O465     1.0000 0.69540  0.68840  0.50000  Biso   1.000  O
  O466     1.0000 0.00000  0.68840  0.80460  Biso   1.000  O
  O467     1.0000 0.00000  0.80460  0.68840  Biso   1.000  O
  O468     1.0000 0.18840  0.50000  0.80460  Biso   1.000  O
  O469     1.0000 0.81160  0.50000  0.80460  Biso   1.000  O
  O470     1.0000 0.00000  0.19540  0.31160  Biso   1.000  O
  O471     1.0000 0.81160  0.50000  0.19540  Biso   1.000  O
  O472     1.0000 0.00000  0.19540  0.68840  Biso   1.000  O
  O473     1.0000 0.00000  0.80460  0.31160  Biso   1.000  O
  O474     1.0000 0.18840  0.50000  0.19540  Biso   1.000  O
  O475     1.0000 0.18840  0.80460  0.50000  Biso   1.000  O
  O476     1.0000 0.81160  0.19540  0.50000  Biso   1.000  O
  O477     1.0000 0.69540  0.50000  0.68840  Biso   1.000  O
  O478     1.0000 0.69540  0.50000  0.31160  Biso   1.000  O
  O479     1.0000 0.00000  0.31160  0.80460  Biso   1.000  O
  O480     1.0000 0.00000  0.31160  0.19540  Biso   1.000  O
  O481     1.0000 0.80460  0.18840  0.50000  Biso   1.000  O
  O482     1.0000 0.31160  0.30460  0.50000  Biso   1.000  O
  O483     1.0000 0.19540  0.81160  0.50000  Biso   1.000  O
  O484     1.0000 0.68840  0.69540  0.50000  Biso   1.000  O
  O485     1.0000 0.80460  0.00000  0.68840  Biso   1.000  O
  O486     1.0000 0.80460  0.81160  0.50000  Biso   1.000  O
  O487     1.0000 0.80460  0.00000  0.31160  Biso   1.000  O
  O488     1.0000 0.50000  0.18840  0.19540  Biso   1.000  O
  O489     1.0000 0.19540  0.18840  0.50000  Biso   1.000  O
  O490     1.0000 0.50000  0.18840  0.80460  Biso   1.000  O
  O491     1.0000 0.50000  0.30460  0.68840  Biso   1.000  O
  O492     1.0000 0.68840  0.00000  0.80460  Biso   1.000  O
  O493     1.0000 0.31160  0.00000  0.80460  Biso   1.000  O
  O494     1.0000 0.50000  0.69540  0.31160  Biso   1.000  O
  O495     1.0000 0.31160  0.00000  0.19540  Biso   1.000  O
  O496     1.0000 0.50000  0.69540  0.68840  Biso   1.000  O
  O497     1.0000 0.50000  0.30460  0.31160  Biso   1.000  O
  O498     1.0000 0.68840  0.00000  0.19540  Biso   1.000  O
  O499     1.0000 0.68840  0.30460  0.50000  Biso   1.000  O
  O500     1.0000 0.31160  0.69540  0.50000  Biso   1.000  O
  O501     1.0000 0.19540  0.00000  0.68840  Biso   1.000  O
  O502     1.0000 0.19540  0.00000  0.31160  Biso   1.000  O
  O503     1.0000 0.50000  0.81160  0.80460  Biso   1.000  O
  O504     1.0000 0.50000  0.81160  0.19540  Biso   1.000  O
  O505     1.0000 0.80460  0.68840  0.00000  Biso   1.000  O
  O506     1.0000 0.31160  0.80460  0.00000  Biso   1.000  O
  O507     1.0000 0.19540  0.31160  0.00000  Biso   1.000  O
  O508     1.0000 0.68840  0.19540  0.00000  Biso   1.000  O
  O509     1.0000 0.80460  0.50000  0.18840  Biso   1.000  O
  O510     1.0000 0.80460  0.31160  0.00000  Biso   1.000  O
  O511     1.0000 0.80460  0.50000  0.81160  Biso   1.000  O
  O512     1.0000 0.50000  0.68840  0.69540  Biso   1.000  O
  O513     1.0000 0.19540  0.68840  0.00000  Biso   1.000  O
  O514     1.0000 0.50000  0.68840  0.30460  Biso   1.000  O
  O515     1.0000 0.50000  0.80460  0.18840  Biso   1.000  O
  O516     1.0000 0.68840  0.50000  0.30460  Biso   1.000  O
  O517     1.0000 0.31160  0.50000  0.30460  Biso   1.000  O
  O518     1.0000 0.50000  0.19540  0.81160  Biso   1.000  O
  O519     1.0000 0.31160  0.50000  0.69540  Biso   1.000  O
  O520     1.0000 0.50000  0.19540  0.18840  Biso   1.000  O
  O521     1.0000 0.50000  0.80460  0.81160  Biso   1.000  O
  O522     1.0000 0.68840  0.50000  0.69540  Biso   1.000  O
  O523     1.0000 0.68840  0.80460  0.00000  Biso   1.000  O
  O524     1.0000 0.31160  0.19540  0.00000  Biso   1.000  O
  O525     1.0000 0.19540  0.50000  0.18840  Biso   1.000  O
  O526     1.0000 0.19540  0.50000  0.81160  Biso   1.000  O
  O527     1.0000 0.50000  0.31160  0.30460  Biso   1.000  O
  O528     1.0000 0.50000  0.31160  0.69540  Biso   1.000  O
  H1345    1.0000 0.24520  0.07080  0.06100  Biso   1.000  H
  H1346    1.0000 0.92920  0.24520  0.06100  Biso   1.000  H
  H1347    1.0000 0.75480  0.92920  0.06100  Biso   1.000  H
  H1348    1.0000 0.07080  0.75480  0.06100  Biso   1.000  H
  H1349    1.0000 0.24520  0.93900  0.07080  Biso   1.000  H
  H1350    1.0000 0.24520  0.92920  0.93900  Biso   1.000  H
  H1351    1.0000 0.24520  0.06100  0.92920  Biso   1.000  H
  H1352    1.0000 0.06100  0.07080  0.75480  Biso   1.000  H
  H1353    1.0000 0.75480  0.07080  0.93900  Biso   1.000  H
  H1354    1.0000 0.93900  0.07080  0.24520  Biso   1.000  H
  H1355    1.0000 0.06100  0.24520  0.07080  Biso   1.000  H
  H1356    1.0000 0.07080  0.06100  0.24520  Biso   1.000  H
  H1357    1.0000 0.92920  0.93900  0.24520  Biso   1.000  H
  H1358    1.0000 0.06100  0.75480  0.92920  Biso   1.000  H
  H1359    1.0000 0.92920  0.06100  0.75480  Biso   1.000  H
  H1360    1.0000 0.93900  0.75480  0.07080  Biso   1.000  H
  H1361    1.0000 0.93900  0.24520  0.92920  Biso   1.000  H
  H1362    1.0000 0.07080  0.93900  0.75480  Biso   1.000  H
  H1363    1.0000 0.07080  0.24520  0.93900  Biso   1.000  H
  H1364    1.0000 0.92920  0.75480  0.93900  Biso   1.000  H
  H1365    1.0000 0.75480  0.06100  0.07080  Biso   1.000  H
  H1366    1.0000 0.75480  0.93900  0.92920  Biso   1.000  H
  H1367    1.0000 0.06100  0.92920  0.24520  Biso   1.000  H
  H1368    1.0000 0.93900  0.92920  0.75480  Biso   1.000  H
  H1369    1.0000 0.24520  0.57080  0.56100  Biso   1.000  H
  H1370    1.0000 0.92920  0.74520  0.56100  Biso   1.000  H
  H1371    1.0000 0.75480  0.42920  0.56100  Biso   1.000  H
  H1372    1.0000 0.07080  0.25480  0.56100  Biso   1.000  H
  H1373    1.0000 0.24520  0.43900  0.57080  Biso   1.000  H
  H1374    1.0000 0.24520  0.42920  0.43900  Biso   1.000  H
  H1375    1.0000 0.24520  0.56100  0.42920  Biso   1.000  H
  H1376    1.0000 0.06100  0.57080  0.25480  Biso   1.000  H
  H1377    1.0000 0.75480  0.57080  0.43900  Biso   1.000  H
  H1378    1.0000 0.93900  0.57080  0.74520  Biso   1.000  H
  H1379    1.0000 0.06100  0.74520  0.57080  Biso   1.000  H
  H1380    1.0000 0.07080  0.56100  0.74520  Biso   1.000  H
  H1381    1.0000 0.92920  0.43900  0.74520  Biso   1.000  H
  H1382    1.0000 0.06100  0.25480  0.42920  Biso   1.000  H
  H1383    1.0000 0.92920  0.56100  0.25480  Biso   1.000  H
  H1384    1.0000 0.93900  0.25480  0.57080  Biso   1.000  H
  H1385    1.0000 0.93900  0.74520  0.42920  Biso   1.000  H
  H1386    1.0000 0.07080  0.43900  0.25480  Biso   1.000  H
  H1387    1.0000 0.07080  0.74520  0.43900  Biso   1.000  H
  H1388    1.0000 0.92920  0.25480  0.43900  Biso   1.000  H
  H1389    1.0000 0.75480  0.56100  0.57080  Biso   1.000  H
  H1390    1.0000 0.75480  0.43900  0.42920  Biso   1.000  H
  H1391    1.0000 0.06100  0.42920  0.74520  Biso   1.000  H
  H1392    1.0000 0.93900  0.42920  0.25480  Biso   1.000  H
  H1393    1.0000 0.74520  0.07080  0.56100  Biso   1.000  H
  H1394    1.0000 0.42920  0.24520  0.56100  Biso   1.000  H
  H1395    1.0000 0.25480  0.92920  0.56100  Biso   1.000  H
  H1396    1.0000 0.57080  0.75480  0.56100  Biso   1.000  H
  H1397    1.0000 0.74520  0.93900  0.57080  Biso   1.000  H
  H1398    1.0000 0.74520  0.92920  0.43900  Biso   1.000  H
  H1399    1.0000 0.74520  0.06100  0.42920  Biso   1.000  H
  H1400    1.0000 0.56100  0.07080  0.25480  Biso   1.000  H
  H1401    1.0000 0.25480  0.07080  0.43900  Biso   1.000  H
  H1402    1.0000 0.43900  0.07080  0.74520  Biso   1.000  H
  H1403    1.0000 0.56100  0.24520  0.57080  Biso   1.000  H
  H1404    1.0000 0.57080  0.06100  0.74520  Biso   1.000  H
  H1405    1.0000 0.42920  0.93900  0.74520  Biso   1.000  H
  H1406    1.0000 0.56100  0.75480  0.42920  Biso   1.000  H
  H1407    1.0000 0.42920  0.06100  0.25480  Biso   1.000  H
  H1408    1.0000 0.43900  0.75480  0.57080  Biso   1.000  H
  H1409    1.0000 0.43900  0.24520  0.42920  Biso   1.000  H
  H1410    1.0000 0.57080  0.93900  0.25480  Biso   1.000  H
  H1411    1.0000 0.57080  0.24520  0.43900  Biso   1.000  H
  H1412    1.0000 0.42920  0.75480  0.43900  Biso   1.000  H
  H1413    1.0000 0.25480  0.06100  0.57080  Biso   1.000  H
  H1414    1.0000 0.25480  0.93900  0.42920  Biso   1.000  H
  H1415    1.0000 0.56100  0.92920  0.74520  Biso   1.000  H
  H1416    1.0000 0.43900  0.92920  0.25480  Biso   1.000  H
  H1417    1.0000 0.74520  0.57080  0.06100  Biso   1.000  H
  H1418    1.0000 0.42920  0.74520  0.06100  Biso   1.000  H
  H1419    1.0000 0.25480  0.42920  0.06100  Biso   1.000  H
  H1420    1.0000 0.57080  0.25480  0.06100  Biso   1.000  H
  H1421    1.0000 0.74520  0.43900  0.07080  Biso   1.000  H
  H1422    1.0000 0.74520  0.42920  0.93900  Biso   1.000  H
  H1423    1.0000 0.74520  0.56100  0.92920  Biso   1.000  H
  H1424    1.0000 0.56100  0.57080  0.75480  Biso   1.000  H
  H1425    1.0000 0.25480  0.57080  0.93900  Biso   1.000  H
  H1426    1.0000 0.43900  0.57080  0.24520  Biso   1.000  H
  H1427    1.0000 0.56100  0.74520  0.07080  Biso   1.000  H
  H1428    1.0000 0.57080  0.56100  0.24520  Biso   1.000  H
  H1429    1.0000 0.42920  0.43900  0.24520  Biso   1.000  H
  H1430    1.0000 0.56100  0.25480  0.92920  Biso   1.000  H
  H1431    1.0000 0.42920  0.56100  0.75480  Biso   1.000  H
  H1432    1.0000 0.43900  0.25480  0.07080  Biso   1.000  H
  H1433    1.0000 0.43900  0.74520  0.92920  Biso   1.000  H
  H1434    1.0000 0.57080  0.43900  0.75480  Biso   1.000  H
  H1435    1.0000 0.57080  0.74520  0.93900  Biso   1.000  H
  H1436    1.0000 0.42920  0.25480  0.93900  Biso   1.000  H
  H1437    1.0000 0.25480  0.56100  0.07080  Biso   1.000  H
  H1438    1.0000 0.25480  0.43900  0.92920  Biso   1.000  H
  H1439    1.0000 0.56100  0.42920  0.24520  Biso   1.000  H
  H1440    1.0000 0.43900  0.42920  0.75480  Biso   1.000  H
  H1441    1.0000 0.75480  0.92920  0.93900  Biso   1.000  H
  H1442    1.0000 0.07080  0.75480  0.93900  Biso   1.000  H
  H1443    1.0000 0.24520  0.07080  0.93900  Biso   1.000  H
  H1444    1.0000 0.92920  0.24520  0.93900  Biso   1.000  H
  H1445    1.0000 0.75480  0.06100  0.92920  Biso   1.000  H
  H1446    1.0000 0.75480  0.07080  0.06100  Biso   1.000  H
  H1447    1.0000 0.75480  0.93900  0.07080  Biso   1.000  H
  H1448    1.0000 0.93900  0.92920  0.24520  Biso   1.000  H
  H1449    1.0000 0.24520  0.92920  0.06100  Biso   1.000  H
  H1450    1.0000 0.06100  0.92920  0.75480  Biso   1.000  H
  H1451    1.0000 0.93900  0.75480  0.92920  Biso   1.000  H
  H1452    1.0000 0.92920  0.93900  0.75480  Biso   1.000  H
  H1453    1.0000 0.07080  0.06100  0.75480  Biso   1.000  H
  H1454    1.0000 0.93900  0.24520  0.07080  Biso   1.000  H
  H1455    1.0000 0.07080  0.93900  0.24520  Biso   1.000  H
  H1456    1.0000 0.06100  0.24520  0.92920  Biso   1.000  H
  H1457    1.0000 0.06100  0.75480  0.07080  Biso   1.000  H
  H1458    1.0000 0.92920  0.06100  0.24520  Biso   1.000  H
  H1459    1.0000 0.92920  0.75480  0.06100  Biso   1.000  H
  H1460    1.0000 0.07080  0.24520  0.06100  Biso   1.000  H
  H1461    1.0000 0.24520  0.93900  0.92920  Biso   1.000  H
  H1462    1.0000 0.24520  0.06100  0.07080  Biso   1.000  H
  H1463    1.0000 0.93900  0.07080  0.75480  Biso   1.000  H
  H1464    1.0000 0.06100  0.07080  0.24520  Biso   1.000  H
  H1465    1.0000 0.75480  0.42920  0.43900  Biso   1.000  H
  H1466    1.0000 0.07080  0.25480  0.43900  Biso   1.000  H
  H1467    1.0000 0.24520  0.57080  0.43900  Biso   1.000  H
  H1468    1.0000 0.92920  0.74520  0.43900  Biso   1.000  H
  H1469    1.0000 0.75480  0.56100  0.42920  Biso   1.000  H
  H1470    1.0000 0.75480  0.57080  0.56100  Biso   1.000  H
  H1471    1.0000 0.75480  0.43900  0.57080  Biso   1.000  H
  H1472    1.0000 0.93900  0.42920  0.74520  Biso   1.000  H
  H1473    1.0000 0.24520  0.42920  0.56100  Biso   1.000  H
  H1474    1.0000 0.06100  0.42920  0.25480  Biso   1.000  H
  H1475    1.0000 0.93900  0.25480  0.42920  Biso   1.000  H
  H1476    1.0000 0.92920  0.43900  0.25480  Biso   1.000  H
  H1477    1.0000 0.07080  0.56100  0.25480  Biso   1.000  H
  H1478    1.0000 0.93900  0.74520  0.57080  Biso   1.000  H
  H1479    1.0000 0.07080  0.43900  0.74520  Biso   1.000  H
  H1480    1.0000 0.06100  0.74520  0.42920  Biso   1.000  H
  H1481    1.0000 0.06100  0.25480  0.57080  Biso   1.000  H
  H1482    1.0000 0.92920  0.56100  0.74520  Biso   1.000  H
  H1483    1.0000 0.92920  0.25480  0.56100  Biso   1.000  H
  H1484    1.0000 0.07080  0.74520  0.56100  Biso   1.000  H
  H1485    1.0000 0.24520  0.43900  0.42920  Biso   1.000  H
  H1486    1.0000 0.24520  0.56100  0.57080  Biso   1.000  H
  H1487    1.0000 0.93900  0.57080  0.25480  Biso   1.000  H
  H1488    1.0000 0.06100  0.57080  0.74520  Biso   1.000  H
  H1489    1.0000 0.25480  0.92920  0.43900  Biso   1.000  H
  H1490    1.0000 0.57080  0.75480  0.43900  Biso   1.000  H
  H1491    1.0000 0.74520  0.07080  0.43900  Biso   1.000  H
  H1492    1.0000 0.42920  0.24520  0.43900  Biso   1.000  H
  H1493    1.0000 0.25480  0.06100  0.42920  Biso   1.000  H
  H1494    1.0000 0.25480  0.07080  0.56100  Biso   1.000  H
  H1495    1.0000 0.25480  0.93900  0.57080  Biso   1.000  H
  H1496    1.0000 0.43900  0.92920  0.74520  Biso   1.000  H
  H1497    1.0000 0.74520  0.92920  0.56100  Biso   1.000  H
  H1498    1.0000 0.56100  0.92920  0.25480  Biso   1.000  H
  H1499    1.0000 0.43900  0.75480  0.42920  Biso   1.000  H
  H1500    1.0000 0.42920  0.93900  0.25480  Biso   1.000  H
  H1501    1.0000 0.57080  0.06100  0.25480  Biso   1.000  H
  H1502    1.0000 0.43900  0.24520  0.57080  Biso   1.000  H
  H1503    1.0000 0.57080  0.93900  0.74520  Biso   1.000  H
  H1504    1.0000 0.56100  0.24520  0.42920  Biso   1.000  H
  H1505    1.0000 0.56100  0.75480  0.57080  Biso   1.000  H
  H1506    1.0000 0.42920  0.06100  0.74520  Biso   1.000  H
  H1507    1.0000 0.42920  0.75480  0.56100  Biso   1.000  H
  H1508    1.0000 0.57080  0.24520  0.56100  Biso   1.000  H
  H1509    1.0000 0.74520  0.93900  0.42920  Biso   1.000  H
  H1510    1.0000 0.74520  0.06100  0.57080  Biso   1.000  H
  H1511    1.0000 0.43900  0.07080  0.25480  Biso   1.000  H
  H1512    1.0000 0.56100  0.07080  0.74520  Biso   1.000  H
  H1513    1.0000 0.25480  0.42920  0.93900  Biso   1.000  H
  H1514    1.0000 0.57080  0.25480  0.93900  Biso   1.000  H
  H1515    1.0000 0.74520  0.57080  0.93900  Biso   1.000  H
  H1516    1.0000 0.42920  0.74520  0.93900  Biso   1.000  H
  H1517    1.0000 0.25480  0.56100  0.92920  Biso   1.000  H
  H1518    1.0000 0.25480  0.57080  0.06100  Biso   1.000  H
  H1519    1.0000 0.25480  0.43900  0.07080  Biso   1.000  H
  H1520    1.0000 0.43900  0.42920  0.24520  Biso   1.000  H
  H1521    1.0000 0.74520  0.42920  0.06100  Biso   1.000  H
  H1522    1.0000 0.56100  0.42920  0.75480  Biso   1.000  H
  H1523    1.0000 0.43900  0.25480  0.92920  Biso   1.000  H
  H1524    1.0000 0.42920  0.43900  0.75480  Biso   1.000  H
  H1525    1.0000 0.57080  0.56100  0.75480  Biso   1.000  H
  H1526    1.0000 0.43900  0.74520  0.07080  Biso   1.000  H
  H1527    1.0000 0.57080  0.43900  0.24520  Biso   1.000  H
  H1528    1.0000 0.56100  0.74520  0.92920  Biso   1.000  H
  H1529    1.0000 0.56100  0.25480  0.07080  Biso   1.000  H
  H1530    1.0000 0.42920  0.56100  0.24520  Biso   1.000  H
  H1531    1.0000 0.42920  0.25480  0.06100  Biso   1.000  H
  H1532    1.0000 0.57080  0.74520  0.06100  Biso   1.000  H
  H1533    1.0000 0.74520  0.43900  0.92920  Biso   1.000  H
  H1534    1.0000 0.74520  0.56100  0.07080  Biso   1.000  H
  H1535    1.0000 0.43900  0.57080  0.75480  Biso   1.000  H
  H1536    1.0000 0.56100  0.57080  0.24520  Biso   1.000  H
  H1537    1.0000 0.29540  0.11980  0.14070  Biso   1.000  H
  H1538    1.0000 0.88020  0.29540  0.14070  Biso   1.000  H
  H1539    1.0000 0.70460  0.88020  0.14070  Biso   1.000  H
  H1540    1.0000 0.11980  0.70460  0.14070  Biso   1.000  H
  H1541    1.0000 0.29540  0.85930  0.11980  Biso   1.000  H
  H1542    1.0000 0.29540  0.88020  0.85930  Biso   1.000  H
  H1543    1.0000 0.29540  0.14070  0.88020  Biso   1.000  H
  H1544    1.0000 0.14070  0.11980  0.70460  Biso   1.000  H
  H1545    1.0000 0.70460  0.11980  0.85930  Biso   1.000  H
  H1546    1.0000 0.85930  0.11980  0.29540  Biso   1.000  H
  H1547    1.0000 0.14070  0.29540  0.11980  Biso   1.000  H
  H1548    1.0000 0.11980  0.14070  0.29540  Biso   1.000  H
  H1549    1.0000 0.88020  0.85930  0.29540  Biso   1.000  H
  H1550    1.0000 0.14070  0.70460  0.88020  Biso   1.000  H
  H1551    1.0000 0.88020  0.14070  0.70460  Biso   1.000  H
  H1552    1.0000 0.85930  0.70460  0.11980  Biso   1.000  H
  H1553    1.0000 0.85930  0.29540  0.88020  Biso   1.000  H
  H1554    1.0000 0.11980  0.85930  0.70460  Biso   1.000  H
  H1555    1.0000 0.11980  0.29540  0.85930  Biso   1.000  H
  H1556    1.0000 0.88020  0.70460  0.85930  Biso   1.000  H
  H1557    1.0000 0.70460  0.14070  0.11980  Biso   1.000  H
  H1558    1.0000 0.70460  0.85930  0.88020  Biso   1.000  H
  H1559    1.0000 0.14070  0.88020  0.29540  Biso   1.000  H
  H1560    1.0000 0.85930  0.88020  0.70460  Biso   1.000  H
  H1561    1.0000 0.29540  0.61980  0.64070  Biso   1.000  H
  H1562    1.0000 0.88020  0.79540  0.64070  Biso   1.000  H
  H1563    1.0000 0.70460  0.38020  0.64070  Biso   1.000  H
  H1564    1.0000 0.11980  0.20460  0.64070  Biso   1.000  H
  H1565    1.0000 0.29540  0.35930  0.61980  Biso   1.000  H
  H1566    1.0000 0.29540  0.38020  0.35930  Biso   1.000  H
  H1567    1.0000 0.29540  0.64070  0.38020  Biso   1.000  H
  H1568    1.0000 0.14070  0.61980  0.20460  Biso   1.000  H
  H1569    1.0000 0.70460  0.61980  0.35930  Biso   1.000  H
  H1570    1.0000 0.85930  0.61980  0.79540  Biso   1.000  H
  H1571    1.0000 0.14070  0.79540  0.61980  Biso   1.000  H
  H1572    1.0000 0.11980  0.64070  0.79540  Biso   1.000  H
  H1573    1.0000 0.88020  0.35930  0.79540  Biso   1.000  H
  H1574    1.0000 0.14070  0.20460  0.38020  Biso   1.000  H
  H1575    1.0000 0.88020  0.64070  0.20460  Biso   1.000  H
  H1576    1.0000 0.85930  0.20460  0.61980  Biso   1.000  H
  H1577    1.0000 0.85930  0.79540  0.38020  Biso   1.000  H
  H1578    1.0000 0.11980  0.35930  0.20460  Biso   1.000  H
  H1579    1.0000 0.11980  0.79540  0.35930  Biso   1.000  H
  H1580    1.0000 0.88020  0.20460  0.35930  Biso   1.000  H
  H1581    1.0000 0.70460  0.64070  0.61980  Biso   1.000  H
  H1582    1.0000 0.70460  0.35930  0.38020  Biso   1.000  H
  H1583    1.0000 0.14070  0.38020  0.79540  Biso   1.000  H
  H1584    1.0000 0.85930  0.38020  0.20460  Biso   1.000  H
  H1585    1.0000 0.79540  0.11980  0.64070  Biso   1.000  H
  H1586    1.0000 0.38020  0.29540  0.64070  Biso   1.000  H
  H1587    1.0000 0.20460  0.88020  0.64070  Biso   1.000  H
  H1588    1.0000 0.61980  0.70460  0.64070  Biso   1.000  H
  H1589    1.0000 0.79540  0.85930  0.61980  Biso   1.000  H
  H1590    1.0000 0.79540  0.88020  0.35930  Biso   1.000  H
  H1591    1.0000 0.79540  0.14070  0.38020  Biso   1.000  H
  H1592    1.0000 0.64070  0.11980  0.20460  Biso   1.000  H
  H1593    1.0000 0.20460  0.11980  0.35930  Biso   1.000  H
  H1594    1.0000 0.35930  0.11980  0.79540  Biso   1.000  H
  H1595    1.0000 0.64070  0.29540  0.61980  Biso   1.000  H
  H1596    1.0000 0.61980  0.14070  0.79540  Biso   1.000  H
  H1597    1.0000 0.38020  0.85930  0.79540  Biso   1.000  H
  H1598    1.0000 0.64070  0.70460  0.38020  Biso   1.000  H
  H1599    1.0000 0.38020  0.14070  0.20460  Biso   1.000  H
  H1600    1.0000 0.35930  0.70460  0.61980  Biso   1.000  H
  H1601    1.0000 0.35930  0.29540  0.38020  Biso   1.000  H
  H1602    1.0000 0.61980  0.85930  0.20460  Biso   1.000  H
  H1603    1.0000 0.61980  0.29540  0.35930  Biso   1.000  H
  H1604    1.0000 0.38020  0.70460  0.35930  Biso   1.000  H
  H1605    1.0000 0.20460  0.14070  0.61980  Biso   1.000  H
  H1606    1.0000 0.20460  0.85930  0.38020  Biso   1.000  H
  H1607    1.0000 0.64070  0.88020  0.79540  Biso   1.000  H
  H1608    1.0000 0.35930  0.88020  0.20460  Biso   1.000  H
  H1609    1.0000 0.79540  0.61980  0.14070  Biso   1.000  H
  H1610    1.0000 0.38020  0.79540  0.14070  Biso   1.000  H
  H1611    1.0000 0.20460  0.38020  0.14070  Biso   1.000  H
  H1612    1.0000 0.61980  0.20460  0.14070  Biso   1.000  H
  H1613    1.0000 0.79540  0.35930  0.11980  Biso   1.000  H
  H1614    1.0000 0.79540  0.38020  0.85930  Biso   1.000  H
  H1615    1.0000 0.79540  0.64070  0.88020  Biso   1.000  H
  H1616    1.0000 0.64070  0.61980  0.70460  Biso   1.000  H
  H1617    1.0000 0.20460  0.61980  0.85930  Biso   1.000  H
  H1618    1.0000 0.35930  0.61980  0.29540  Biso   1.000  H
  H1619    1.0000 0.64070  0.79540  0.11980  Biso   1.000  H
  H1620    1.0000 0.61980  0.64070  0.29540  Biso   1.000  H
  H1621    1.0000 0.38020  0.35930  0.29540  Biso   1.000  H
  H1622    1.0000 0.64070  0.20460  0.88020  Biso   1.000  H
  H1623    1.0000 0.38020  0.64070  0.70460  Biso   1.000  H
  H1624    1.0000 0.35930  0.20460  0.11980  Biso   1.000  H
  H1625    1.0000 0.35930  0.79540  0.88020  Biso   1.000  H
  H1626    1.0000 0.61980  0.35930  0.70460  Biso   1.000  H
  H1627    1.0000 0.61980  0.79540  0.85930  Biso   1.000  H
  H1628    1.0000 0.38020  0.20460  0.85930  Biso   1.000  H
  H1629    1.0000 0.20460  0.64070  0.11980  Biso   1.000  H
  H1630    1.0000 0.20460  0.35930  0.88020  Biso   1.000  H
  H1631    1.0000 0.64070  0.38020  0.29540  Biso   1.000  H
  H1632    1.0000 0.35930  0.38020  0.70460  Biso   1.000  H
  H1633    1.0000 0.70460  0.88020  0.85930  Biso   1.000  H
  H1634    1.0000 0.11980  0.70460  0.85930  Biso   1.000  H
  H1635    1.0000 0.29540  0.11980  0.85930  Biso   1.000  H
  H1636    1.0000 0.88020  0.29540  0.85930  Biso   1.000  H
  H1637    1.0000 0.70460  0.14070  0.88020  Biso   1.000  H
  H1638    1.0000 0.70460  0.11980  0.14070  Biso   1.000  H
  H1639    1.0000 0.70460  0.85930  0.11980  Biso   1.000  H
  H1640    1.0000 0.85930  0.88020  0.29540  Biso   1.000  H
  H1641    1.0000 0.29540  0.88020  0.14070  Biso   1.000  H
  H1642    1.0000 0.14070  0.88020  0.70460  Biso   1.000  H
  H1643    1.0000 0.85930  0.70460  0.88020  Biso   1.000  H
  H1644    1.0000 0.88020  0.85930  0.70460  Biso   1.000  H
  H1645    1.0000 0.11980  0.14070  0.70460  Biso   1.000  H
  H1646    1.0000 0.85930  0.29540  0.11980  Biso   1.000  H
  H1647    1.0000 0.11980  0.85930  0.29540  Biso   1.000  H
  H1648    1.0000 0.14070  0.29540  0.88020  Biso   1.000  H
  H1649    1.0000 0.14070  0.70460  0.11980  Biso   1.000  H
  H1650    1.0000 0.88020  0.14070  0.29540  Biso   1.000  H
  H1651    1.0000 0.88020  0.70460  0.14070  Biso   1.000  H
  H1652    1.0000 0.11980  0.29540  0.14070  Biso   1.000  H
  H1653    1.0000 0.29540  0.85930  0.88020  Biso   1.000  H
  H1654    1.0000 0.29540  0.14070  0.11980  Biso   1.000  H
  H1655    1.0000 0.85930  0.11980  0.70460  Biso   1.000  H
  H1656    1.0000 0.14070  0.11980  0.29540  Biso   1.000  H
  H1657    1.0000 0.70460  0.38020  0.35930  Biso   1.000  H
  H1658    1.0000 0.11980  0.20460  0.35930  Biso   1.000  H
  H1659    1.0000 0.29540  0.61980  0.35930  Biso   1.000  H
  H1660    1.0000 0.88020  0.79540  0.35930  Biso   1.000  H
  H1661    1.0000 0.70460  0.64070  0.38020  Biso   1.000  H
  H1662    1.0000 0.70460  0.61980  0.64070  Biso   1.000  H
  H1663    1.0000 0.70460  0.35930  0.61980  Biso   1.000  H
  H1664    1.0000 0.85930  0.38020  0.79540  Biso   1.000  H
  H1665    1.0000 0.29540  0.38020  0.64070  Biso   1.000  H
  H1666    1.0000 0.14070  0.38020  0.20460  Biso   1.000  H
  H1667    1.0000 0.85930  0.20460  0.38020  Biso   1.000  H
  H1668    1.0000 0.88020  0.35930  0.20460  Biso   1.000  H
  H1669    1.0000 0.11980  0.64070  0.20460  Biso   1.000  H
  H1670    1.0000 0.85930  0.79540  0.61980  Biso   1.000  H
  H1671    1.0000 0.11980  0.35930  0.79540  Biso   1.000  H
  H1672    1.0000 0.14070  0.79540  0.38020  Biso   1.000  H
  H1673    1.0000 0.14070  0.20460  0.61980  Biso   1.000  H
  H1674    1.0000 0.88020  0.64070  0.79540  Biso   1.000  H
  H1675    1.0000 0.88020  0.20460  0.64070  Biso   1.000  H
  H1676    1.0000 0.11980  0.79540  0.64070  Biso   1.000  H
  H1677    1.0000 0.29540  0.35930  0.38020  Biso   1.000  H
  H1678    1.0000 0.29540  0.64070  0.61980  Biso   1.000  H
  H1679    1.0000 0.85930  0.61980  0.20460  Biso   1.000  H
  H1680    1.0000 0.14070  0.61980  0.79540  Biso   1.000  H
  H1681    1.0000 0.20460  0.88020  0.35930  Biso   1.000  H
  H1682    1.0000 0.61980  0.70460  0.35930  Biso   1.000  H
  H1683    1.0000 0.79540  0.11980  0.35930  Biso   1.000  H
  H1684    1.0000 0.38020  0.29540  0.35930  Biso   1.000  H
  H1685    1.0000 0.20460  0.14070  0.38020  Biso   1.000  H
  H1686    1.0000 0.20460  0.11980  0.64070  Biso   1.000  H
  H1687    1.0000 0.20460  0.85930  0.61980  Biso   1.000  H
  H1688    1.0000 0.35930  0.88020  0.79540  Biso   1.000  H
  H1689    1.0000 0.79540  0.88020  0.64070  Biso   1.000  H
  H1690    1.0000 0.64070  0.88020  0.20460  Biso   1.000  H
  H1691    1.0000 0.35930  0.70460  0.38020  Biso   1.000  H
  H1692    1.0000 0.38020  0.85930  0.20460  Biso   1.000  H
  H1693    1.0000 0.61980  0.14070  0.20460  Biso   1.000  H
  H1694    1.0000 0.35930  0.29540  0.61980  Biso   1.000  H
  H1695    1.0000 0.61980  0.85930  0.79540  Biso   1.000  H
  H1696    1.0000 0.64070  0.29540  0.38020  Biso   1.000  H
  H1697    1.0000 0.64070  0.70460  0.61980  Biso   1.000  H
  H1698    1.0000 0.38020  0.14070  0.79540  Biso   1.000  H
  H1699    1.0000 0.38020  0.70460  0.64070  Biso   1.000  H
  H1700    1.0000 0.61980  0.29540  0.64070  Biso   1.000  H
  H1701    1.0000 0.79540  0.85930  0.38020  Biso   1.000  H
  H1702    1.0000 0.79540  0.14070  0.61980  Biso   1.000  H
  H1703    1.0000 0.35930  0.11980  0.20460  Biso   1.000  H
  H1704    1.0000 0.64070  0.11980  0.79540  Biso   1.000  H
  H1705    1.0000 0.20460  0.38020  0.85930  Biso   1.000  H
  H1706    1.0000 0.61980  0.20460  0.85930  Biso   1.000  H
  H1707    1.0000 0.79540  0.61980  0.85930  Biso   1.000  H
  H1708    1.0000 0.38020  0.79540  0.85930  Biso   1.000  H
  H1709    1.0000 0.20460  0.64070  0.88020  Biso   1.000  H
  H1710    1.0000 0.20460  0.61980  0.14070  Biso   1.000  H
  H1711    1.0000 0.20460  0.35930  0.11980  Biso   1.000  H
  H1712    1.0000 0.35930  0.38020  0.29540  Biso   1.000  H
  H1713    1.0000 0.79540  0.38020  0.14070  Biso   1.000  H
  H1714    1.0000 0.64070  0.38020  0.70460  Biso   1.000  H
  H1715    1.0000 0.35930  0.20460  0.88020  Biso   1.000  H
  H1716    1.0000 0.38020  0.35930  0.70460  Biso   1.000  H
  H1717    1.0000 0.61980  0.64070  0.70460  Biso   1.000  H
  H1718    1.0000 0.35930  0.79540  0.11980  Biso   1.000  H
  H1719    1.0000 0.61980  0.35930  0.29540  Biso   1.000  H
  H1720    1.0000 0.64070  0.79540  0.88020  Biso   1.000  H
  H1721    1.0000 0.64070  0.20460  0.11980  Biso   1.000  H
  H1722    1.0000 0.38020  0.64070  0.29540  Biso   1.000  H
  H1723    1.0000 0.38020  0.20460  0.14070  Biso   1.000  H
  H1724    1.0000 0.61980  0.79540  0.14070  Biso   1.000  H
  H1725    1.0000 0.79540  0.35930  0.88020  Biso   1.000  H
  H1726    1.0000 0.79540  0.64070  0.11980  Biso   1.000  H
  H1727    1.0000 0.35930  0.61980  0.70460  Biso   1.000  H
  H1728    1.0000 0.64070  0.61980  0.29540  Biso   1.000  H
  H1729    1.0000 0.20780  0.16040  0.16750  Biso   1.000  H
  H1730    1.0000 0.83960  0.20780  0.16750  Biso   1.000  H
  H1731    1.0000 0.79220  0.83960  0.16750  Biso   1.000  H
  H1732    1.0000 0.16040  0.79220  0.16750  Biso   1.000  H
  H1733    1.0000 0.20780  0.83250  0.16040  Biso   1.000  H
  H1734    1.0000 0.20780  0.83960  0.83250  Biso   1.000  H
  H1735    1.0000 0.20780  0.16750  0.83960  Biso   1.000  H
  H1736    1.0000 0.16750  0.16040  0.79220  Biso   1.000  H
  H1737    1.0000 0.79220  0.16040  0.83250  Biso   1.000  H
  H1738    1.0000 0.83250  0.16040  0.20780  Biso   1.000  H
  H1739    1.0000 0.16750  0.20780  0.16040  Biso   1.000  H
  H1740    1.0000 0.16040  0.16750  0.20780  Biso   1.000  H
  H1741    1.0000 0.83960  0.83250  0.20780  Biso   1.000  H
  H1742    1.0000 0.16750  0.79220  0.83960  Biso   1.000  H
  H1743    1.0000 0.83960  0.16750  0.79220  Biso   1.000  H
  H1744    1.0000 0.83250  0.79220  0.16040  Biso   1.000  H
  H1745    1.0000 0.83250  0.20780  0.83960  Biso   1.000  H
  H1746    1.0000 0.16040  0.83250  0.79220  Biso   1.000  H
  H1747    1.0000 0.16040  0.20780  0.83250  Biso   1.000  H
  H1748    1.0000 0.83960  0.79220  0.83250  Biso   1.000  H
  H1749    1.0000 0.79220  0.16750  0.16040  Biso   1.000  H
  H1750    1.0000 0.79220  0.83250  0.83960  Biso   1.000  H
  H1751    1.0000 0.16750  0.83960  0.20780  Biso   1.000  H
  H1752    1.0000 0.83250  0.83960  0.79220  Biso   1.000  H
  H1753    1.0000 0.20780  0.66040  0.66750  Biso   1.000  H
  H1754    1.0000 0.83960  0.70780  0.66750  Biso   1.000  H
  H1755    1.0000 0.79220  0.33960  0.66750  Biso   1.000  H
  H1756    1.0000 0.16040  0.29220  0.66750  Biso   1.000  H
  H1757    1.0000 0.20780  0.33250  0.66040  Biso   1.000  H
  H1758    1.0000 0.20780  0.33960  0.33250  Biso   1.000  H
  H1759    1.0000 0.20780  0.66750  0.33960  Biso   1.000  H
  H1760    1.0000 0.16750  0.66040  0.29220  Biso   1.000  H
  H1761    1.0000 0.79220  0.66040  0.33250  Biso   1.000  H
  H1762    1.0000 0.83250  0.66040  0.70780  Biso   1.000  H
  H1763    1.0000 0.16750  0.70780  0.66040  Biso   1.000  H
  H1764    1.0000 0.16040  0.66750  0.70780  Biso   1.000  H
  H1765    1.0000 0.83960  0.33250  0.70780  Biso   1.000  H
  H1766    1.0000 0.16750  0.29220  0.33960  Biso   1.000  H
  H1767    1.0000 0.83960  0.66750  0.29220  Biso   1.000  H
  H1768    1.0000 0.83250  0.29220  0.66040  Biso   1.000  H
  H1769    1.0000 0.83250  0.70780  0.33960  Biso   1.000  H
  H1770    1.0000 0.16040  0.33250  0.29220  Biso   1.000  H
  H1771    1.0000 0.16040  0.70780  0.33250  Biso   1.000  H
  H1772    1.0000 0.83960  0.29220  0.33250  Biso   1.000  H
  H1773    1.0000 0.79220  0.66750  0.66040  Biso   1.000  H
  H1774    1.0000 0.79220  0.33250  0.33960  Biso   1.000  H
  H1775    1.0000 0.16750  0.33960  0.70780  Biso   1.000  H
  H1776    1.0000 0.83250  0.33960  0.29220  Biso   1.000  H
  H1777    1.0000 0.70780  0.16040  0.66750  Biso   1.000  H
  H1778    1.0000 0.33960  0.20780  0.66750  Biso   1.000  H
  H1779    1.0000 0.29220  0.83960  0.66750  Biso   1.000  H
  H1780    1.0000 0.66040  0.79220  0.66750  Biso   1.000  H
  H1781    1.0000 0.70780  0.83250  0.66040  Biso   1.000  H
  H1782    1.0000 0.70780  0.83960  0.33250  Biso   1.000  H
  H1783    1.0000 0.70780  0.16750  0.33960  Biso   1.000  H
  H1784    1.0000 0.66750  0.16040  0.29220  Biso   1.000  H
  H1785    1.0000 0.29220  0.16040  0.33250  Biso   1.000  H
  H1786    1.0000 0.33250  0.16040  0.70780  Biso   1.000  H
  H1787    1.0000 0.66750  0.20780  0.66040  Biso   1.000  H
  H1788    1.0000 0.66040  0.16750  0.70780  Biso   1.000  H
  H1789    1.0000 0.33960  0.83250  0.70780  Biso   1.000  H
  H1790    1.0000 0.66750  0.79220  0.33960  Biso   1.000  H
  H1791    1.0000 0.33960  0.16750  0.29220  Biso   1.000  H
  H1792    1.0000 0.33250  0.79220  0.66040  Biso   1.000  H
  H1793    1.0000 0.33250  0.20780  0.33960  Biso   1.000  H
  H1794    1.0000 0.66040  0.83250  0.29220  Biso   1.000  H
  H1795    1.0000 0.66040  0.20780  0.33250  Biso   1.000  H
  H1796    1.0000 0.33960  0.79220  0.33250  Biso   1.000  H
  H1797    1.0000 0.29220  0.16750  0.66040  Biso   1.000  H
  H1798    1.0000 0.29220  0.83250  0.33960  Biso   1.000  H
  H1799    1.0000 0.66750  0.83960  0.70780  Biso   1.000  H
  H1800    1.0000 0.33250  0.83960  0.29220  Biso   1.000  H
  H1801    1.0000 0.70780  0.66040  0.16750  Biso   1.000  H
  H1802    1.0000 0.33960  0.70780  0.16750  Biso   1.000  H
  H1803    1.0000 0.29220  0.33960  0.16750  Biso   1.000  H
  H1804    1.0000 0.66040  0.29220  0.16750  Biso   1.000  H
  H1805    1.0000 0.70780  0.33250  0.16040  Biso   1.000  H
  H1806    1.0000 0.70780  0.33960  0.83250  Biso   1.000  H
  H1807    1.0000 0.70780  0.66750  0.83960  Biso   1.000  H
  H1808    1.0000 0.66750  0.66040  0.79220  Biso   1.000  H
  H1809    1.0000 0.29220  0.66040  0.83250  Biso   1.000  H
  H1810    1.0000 0.33250  0.66040  0.20780  Biso   1.000  H
  H1811    1.0000 0.66750  0.70780  0.16040  Biso   1.000  H
  H1812    1.0000 0.66040  0.66750  0.20780  Biso   1.000  H
  H1813    1.0000 0.33960  0.33250  0.20780  Biso   1.000  H
  H1814    1.0000 0.66750  0.29220  0.83960  Biso   1.000  H
  H1815    1.0000 0.33960  0.66750  0.79220  Biso   1.000  H
  H1816    1.0000 0.33250  0.29220  0.16040  Biso   1.000  H
  H1817    1.0000 0.33250  0.70780  0.83960  Biso   1.000  H
  H1818    1.0000 0.66040  0.33250  0.79220  Biso   1.000  H
  H1819    1.0000 0.66040  0.70780  0.83250  Biso   1.000  H
  H1820    1.0000 0.33960  0.29220  0.83250  Biso   1.000  H
  H1821    1.0000 0.29220  0.66750  0.16040  Biso   1.000  H
  H1822    1.0000 0.29220  0.33250  0.83960  Biso   1.000  H
  H1823    1.0000 0.66750  0.33960  0.20780  Biso   1.000  H
  H1824    1.0000 0.33250  0.33960  0.79220  Biso   1.000  H
  H1825    1.0000 0.79220  0.83960  0.83250  Biso   1.000  H
  H1826    1.0000 0.16040  0.79220  0.83250  Biso   1.000  H
  H1827    1.0000 0.20780  0.16040  0.83250  Biso   1.000  H
  H1828    1.0000 0.83960  0.20780  0.83250  Biso   1.000  H
  H1829    1.0000 0.79220  0.16750  0.83960  Biso   1.000  H
  H1830    1.0000 0.79220  0.16040  0.16750  Biso   1.000  H
  H1831    1.0000 0.79220  0.83250  0.16040  Biso   1.000  H
  H1832    1.0000 0.83250  0.83960  0.20780  Biso   1.000  H
  H1833    1.0000 0.20780  0.83960  0.16750  Biso   1.000  H
  H1834    1.0000 0.16750  0.83960  0.79220  Biso   1.000  H
  H1835    1.0000 0.83250  0.79220  0.83960  Biso   1.000  H
  H1836    1.0000 0.83960  0.83250  0.79220  Biso   1.000  H
  H1837    1.0000 0.16040  0.16750  0.79220  Biso   1.000  H
  H1838    1.0000 0.83250  0.20780  0.16040  Biso   1.000  H
  H1839    1.0000 0.16040  0.83250  0.20780  Biso   1.000  H
  H1840    1.0000 0.16750  0.20780  0.83960  Biso   1.000  H
  H1841    1.0000 0.16750  0.79220  0.16040  Biso   1.000  H
  H1842    1.0000 0.83960  0.16750  0.20780  Biso   1.000  H
  H1843    1.0000 0.83960  0.79220  0.16750  Biso   1.000  H
  H1844    1.0000 0.16040  0.20780  0.16750  Biso   1.000  H
  H1845    1.0000 0.20780  0.83250  0.83960  Biso   1.000  H
  H1846    1.0000 0.20780  0.16750  0.16040  Biso   1.000  H
  H1847    1.0000 0.83250  0.16040  0.79220  Biso   1.000  H
  H1848    1.0000 0.16750  0.16040  0.20780  Biso   1.000  H
  H1849    1.0000 0.79220  0.33960  0.33250  Biso   1.000  H
  H1850    1.0000 0.16040  0.29220  0.33250  Biso   1.000  H
  H1851    1.0000 0.20780  0.66040  0.33250  Biso   1.000  H
  H1852    1.0000 0.83960  0.70780  0.33250  Biso   1.000  H
  H1853    1.0000 0.79220  0.66750  0.33960  Biso   1.000  H
  H1854    1.0000 0.79220  0.66040  0.66750  Biso   1.000  H
  H1855    1.0000 0.79220  0.33250  0.66040  Biso   1.000  H
  H1856    1.0000 0.83250  0.33960  0.70780  Biso   1.000  H
  H1857    1.0000 0.20780  0.33960  0.66750  Biso   1.000  H
  H1858    1.0000 0.16750  0.33960  0.29220  Biso   1.000  H
  H1859    1.0000 0.83250  0.29220  0.33960  Biso   1.000  H
  H1860    1.0000 0.83960  0.33250  0.29220  Biso   1.000  H
  H1861    1.0000 0.16040  0.66750  0.29220  Biso   1.000  H
  H1862    1.0000 0.83250  0.70780  0.66040  Biso   1.000  H
  H1863    1.0000 0.16040  0.33250  0.70780  Biso   1.000  H
  H1864    1.0000 0.16750  0.70780  0.33960  Biso   1.000  H
  H1865    1.0000 0.16750  0.29220  0.66040  Biso   1.000  H
  H1866    1.0000 0.83960  0.66750  0.70780  Biso   1.000  H
  H1867    1.0000 0.83960  0.29220  0.66750  Biso   1.000  H
  H1868    1.0000 0.16040  0.70780  0.66750  Biso   1.000  H
  H1869    1.0000 0.20780  0.33250  0.33960  Biso   1.000  H
  H1870    1.0000 0.20780  0.66750  0.66040  Biso   1.000  H
  H1871    1.0000 0.83250  0.66040  0.29220  Biso   1.000  H
  H1872    1.0000 0.16750  0.66040  0.70780  Biso   1.000  H
  H1873    1.0000 0.29220  0.83960  0.33250  Biso   1.000  H
  H1874    1.0000 0.66040  0.79220  0.33250  Biso   1.000  H
  H1875    1.0000 0.70780  0.16040  0.33250  Biso   1.000  H
  H1876    1.0000 0.33960  0.20780  0.33250  Biso   1.000  H
  H1877    1.0000 0.29220  0.16750  0.33960  Biso   1.000  H
  H1878    1.0000 0.29220  0.16040  0.66750  Biso   1.000  H
  H1879    1.0000 0.29220  0.83250  0.66040  Biso   1.000  H
  H1880    1.0000 0.33250  0.83960  0.70780  Biso   1.000  H
  H1881    1.0000 0.70780  0.83960  0.66750  Biso   1.000  H
  H1882    1.0000 0.66750  0.83960  0.29220  Biso   1.000  H
  H1883    1.0000 0.33250  0.79220  0.33960  Biso   1.000  H
  H1884    1.0000 0.33960  0.83250  0.29220  Biso   1.000  H
  H1885    1.0000 0.66040  0.16750  0.29220  Biso   1.000  H
  H1886    1.0000 0.33250  0.20780  0.66040  Biso   1.000  H
  H1887    1.0000 0.66040  0.83250  0.70780  Biso   1.000  H
  H1888    1.0000 0.66750  0.20780  0.33960  Biso   1.000  H
  H1889    1.0000 0.66750  0.79220  0.66040  Biso   1.000  H
  H1890    1.0000 0.33960  0.16750  0.70780  Biso   1.000  H
  H1891    1.0000 0.33960  0.79220  0.66750  Biso   1.000  H
  H1892    1.0000 0.66040  0.20780  0.66750  Biso   1.000  H
  H1893    1.0000 0.70780  0.83250  0.33960  Biso   1.000  H
  H1894    1.0000 0.70780  0.16750  0.66040  Biso   1.000  H
  H1895    1.0000 0.33250  0.16040  0.29220  Biso   1.000  H
  H1896    1.0000 0.66750  0.16040  0.70780  Biso   1.000  H
  H1897    1.0000 0.29220  0.33960  0.83250  Biso   1.000  H
  H1898    1.0000 0.66040  0.29220  0.83250  Biso   1.000  H
  H1899    1.0000 0.70780  0.66040  0.83250  Biso   1.000  H
  H1900    1.0000 0.33960  0.70780  0.83250  Biso   1.000  H
  H1901    1.0000 0.29220  0.66750  0.83960  Biso   1.000  H
  H1902    1.0000 0.29220  0.66040  0.16750  Biso   1.000  H
  H1903    1.0000 0.29220  0.33250  0.16040  Biso   1.000  H
  H1904    1.0000 0.33250  0.33960  0.20780  Biso   1.000  H
  H1905    1.0000 0.70780  0.33960  0.16750  Biso   1.000  H
  H1906    1.0000 0.66750  0.33960  0.79220  Biso   1.000  H
  H1907    1.0000 0.33250  0.29220  0.83960  Biso   1.000  H
  H1908    1.0000 0.33960  0.33250  0.79220  Biso   1.000  H
  H1909    1.0000 0.66040  0.66750  0.79220  Biso   1.000  H
  H1910    1.0000 0.33250  0.70780  0.16040  Biso   1.000  H
  H1911    1.0000 0.66040  0.33250  0.20780  Biso   1.000  H
  H1912    1.0000 0.66750  0.70780  0.83960  Biso   1.000  H
  H1913    1.0000 0.66750  0.29220  0.16040  Biso   1.000  H
  H1914    1.0000 0.33960  0.66750  0.20780  Biso   1.000  H
  H1915    1.0000 0.33960  0.29220  0.16750  Biso   1.000  H
  H1916    1.0000 0.66040  0.70780  0.16750  Biso   1.000  H
  H1917    1.0000 0.70780  0.33250  0.83960  Biso   1.000  H
  H1918    1.0000 0.70780  0.66750  0.16040  Biso   1.000  H
  H1919    1.0000 0.33250  0.66040  0.79220  Biso   1.000  H
  H1920    1.0000 0.66750  0.66040  0.20780  Biso   1.000  H
