data_image0
_cell_length_a       32.743
_cell_length_b       32.743
_cell_length_c       13.8177
_cell_angle_alpha    90
_cell_angle_beta     90
_cell_angle_gamma    120

_symmetry_space_group_name_H-M    "P 1"
_symmetry_int_tables_number       1

loop_
  _symmetry_equiv_pos_as_xyz
  'x, y, z'

loop_
  _atom_site_label
  _atom_site_occupancy
  _atom_site_fract_x
  _atom_site_fract_y
  _atom_site_fract_z
  _atom_site_thermal_displace_type
  _atom_site_B_iso_or_equiv
  _atom_site_type_symbol
  Cu1      1.0000 0.66371  0.10801  0.76578  Biso   1.000  Cu
  Cu2      1.0000 0.89199  0.55570  0.76578  Biso   1.000  Cu
  Cu3      1.0000 0.44430  0.33629  0.76578  Biso   1.000  Cu
  Cu4      1.0000 0.33038  0.44134  0.09911  Biso   1.000  Cu
  Cu5      1.0000 0.55866  0.88903  0.09911  Biso   1.000  Cu
  Cu6      1.0000 0.11097  0.66962  0.09911  Biso   1.000  Cu
  Cu7      1.0000 0.99704  0.77468  0.43245  Biso   1.000  Cu
  Cu8      1.0000 0.22532  0.22237  0.43245  Biso   1.000  Cu
  Cu9      1.0000 0.77763  0.00296  0.43245  Biso   1.000  Cu
  Cu10     1.0000 0.33629  0.89199  0.23422  Biso   1.000  Cu
  Cu11     1.0000 0.10801  0.44430  0.23422  Biso   1.000  Cu
  Cu12     1.0000 0.55570  0.66371  0.23422  Biso   1.000  Cu
  Cu13     1.0000 0.00296  0.22532  0.56755  Biso   1.000  Cu
  Cu14     1.0000 0.77468  0.77763  0.56755  Biso   1.000  Cu
  Cu15     1.0000 0.22237  0.99704  0.56755  Biso   1.000  Cu
  Cu16     1.0000 0.66962  0.55866  0.90089  Biso   1.000  Cu
  Cu17     1.0000 0.44134  0.11097  0.90089  Biso   1.000  Cu
  Cu18     1.0000 0.88903  0.33038  0.90089  Biso   1.000  Cu
  Cu19     1.0000 0.55250  0.13562  0.88415  Biso   1.000  Cu
  Cu20     1.0000 0.86438  0.41688  0.88415  Biso   1.000  Cu
  Cu21     1.0000 0.58312  0.44750  0.88415  Biso   1.000  Cu
  Cu22     1.0000 0.21917  0.46895  0.21748  Biso   1.000  Cu
  Cu23     1.0000 0.53105  0.75021  0.21748  Biso   1.000  Cu
  Cu24     1.0000 0.24979  0.78083  0.21748  Biso   1.000  Cu
  Cu25     1.0000 0.88583  0.80229  0.55082  Biso   1.000  Cu
  Cu26     1.0000 0.19771  0.08355  0.55082  Biso   1.000  Cu
  Cu27     1.0000 0.91645  0.11417  0.55082  Biso   1.000  Cu
  Cu28     1.0000 0.44750  0.86438  0.11585  Biso   1.000  Cu
  Cu29     1.0000 0.13562  0.58312  0.11585  Biso   1.000  Cu
  Cu30     1.0000 0.41688  0.55250  0.11585  Biso   1.000  Cu
  Cu31     1.0000 0.11417  0.19771  0.44918  Biso   1.000  Cu
  Cu32     1.0000 0.80229  0.91645  0.44918  Biso   1.000  Cu
  Cu33     1.0000 0.08355  0.88583  0.44918  Biso   1.000  Cu
  Cu34     1.0000 0.78083  0.53105  0.78252  Biso   1.000  Cu
  Cu35     1.0000 0.46895  0.24979  0.78252  Biso   1.000  Cu
  Cu36     1.0000 0.75021  0.21917  0.78252  Biso   1.000  Cu
  Cu37     1.0000 0.68724  0.18013  0.57919  Biso   1.000  Cu
  Cu38     1.0000 0.81987  0.50711  0.57919  Biso   1.000  Cu
  Cu39     1.0000 0.49289  0.31276  0.57919  Biso   1.000  Cu
  Cu40     1.0000 0.35391  0.51346  0.91252  Biso   1.000  Cu
  Cu41     1.0000 0.48654  0.84044  0.91252  Biso   1.000  Cu
  Cu42     1.0000 0.15956  0.64609  0.91252  Biso   1.000  Cu
  Cu43     1.0000 0.02057  0.84680  0.24586  Biso   1.000  Cu
  Cu44     1.0000 0.15320  0.17378  0.24586  Biso   1.000  Cu
  Cu45     1.0000 0.82622  0.97943  0.24586  Biso   1.000  Cu
  Cu46     1.0000 0.31276  0.81987  0.42081  Biso   1.000  Cu
  Cu47     1.0000 0.18013  0.49289  0.42081  Biso   1.000  Cu
  Cu48     1.0000 0.50711  0.68724  0.42081  Biso   1.000  Cu
  Cu49     1.0000 0.97943  0.15320  0.75414  Biso   1.000  Cu
  Cu50     1.0000 0.84680  0.82622  0.75414  Biso   1.000  Cu
  Cu51     1.0000 0.17378  0.02057  0.75414  Biso   1.000  Cu
  Cu52     1.0000 0.64609  0.48654  0.08748  Biso   1.000  Cu
  Cu53     1.0000 0.51346  0.15956  0.08748  Biso   1.000  Cu
  Cu54     1.0000 0.84044  0.35391  0.08748  Biso   1.000  Cu
  O1       1.0000 0.63320  0.20930  0.54380  Biso   1.000  O
  O2       1.0000 0.79070  0.42390  0.54380  Biso   1.000  O
  O3       1.0000 0.57610  0.36680  0.54380  Biso   1.000  O
  O4       1.0000 0.29987  0.54263  0.87713  Biso   1.000  O
  O5       1.0000 0.45737  0.75723  0.87713  Biso   1.000  O
  O6       1.0000 0.24277  0.70013  0.87713  Biso   1.000  O
  O7       1.0000 0.96653  0.87597  0.21047  Biso   1.000  O
  O8       1.0000 0.12403  0.09057  0.21047  Biso   1.000  O
  O9       1.0000 0.90943  0.03347  0.21047  Biso   1.000  O
  O10      1.0000 0.36680  0.79070  0.45620  Biso   1.000  O
  O11      1.0000 0.20930  0.57610  0.45620  Biso   1.000  O
  O12      1.0000 0.42390  0.63320  0.45620  Biso   1.000  O
  O13      1.0000 0.03347  0.12403  0.78953  Biso   1.000  O
  O14      1.0000 0.87597  0.90943  0.78953  Biso   1.000  O
  O15      1.0000 0.09057  0.96653  0.78953  Biso   1.000  O
  O16      1.0000 0.70013  0.45737  0.12287  Biso   1.000  O
  O17      1.0000 0.54263  0.24277  0.12287  Biso   1.000  O
  O18      1.0000 0.75723  0.29987  0.12287  Biso   1.000  O
  Cl1      1.0000 0.57497  0.07476  0.87278  Biso   1.000  Cl
  Cl2      1.0000 0.92524  0.50021  0.87278  Biso   1.000  Cl
  Cl3      1.0000 0.49979  0.42503  0.87278  Biso   1.000  Cl
  Cl4      1.0000 0.24164  0.40809  0.20611  Biso   1.000  Cl
  Cl5      1.0000 0.59191  0.83354  0.20611  Biso   1.000  Cl
  Cl6      1.0000 0.16646  0.75836  0.20611  Biso   1.000  Cl
  Cl7      1.0000 0.90830  0.74143  0.53945  Biso   1.000  Cl
  Cl8      1.0000 0.25857  0.16688  0.53945  Biso   1.000  Cl
  Cl9      1.0000 0.83312  0.09170  0.53945  Biso   1.000  Cl
  Cl10     1.0000 0.42503  0.92524  0.12722  Biso   1.000  Cl
  Cl11     1.0000 0.07476  0.49979  0.12722  Biso   1.000  Cl
  Cl12     1.0000 0.50021  0.57497  0.12722  Biso   1.000  Cl
  Cl13     1.0000 0.09170  0.25857  0.46055  Biso   1.000  Cl
  Cl14     1.0000 0.74143  0.83312  0.46055  Biso   1.000  Cl
  Cl15     1.0000 0.16688  0.90830  0.46055  Biso   1.000  Cl
  Cl16     1.0000 0.75836  0.59191  0.79389  Biso   1.000  Cl
  Cl17     1.0000 0.40809  0.16646  0.79389  Biso   1.000  Cl
  Cl18     1.0000 0.83354  0.24164  0.79389  Biso   1.000  Cl
  Cl19     1.0000 0.47299  0.05257  0.02543  Biso   1.000  Cl
  Cl20     1.0000 0.94743  0.42042  0.02543  Biso   1.000  Cl
  Cl21     1.0000 0.57958  0.52701  0.02543  Biso   1.000  Cl
  Cl22     1.0000 0.13966  0.38590  0.35876  Biso   1.000  Cl
  Cl23     1.0000 0.61410  0.75375  0.35876  Biso   1.000  Cl
  Cl24     1.0000 0.24625  0.86034  0.35876  Biso   1.000  Cl
  Cl25     1.0000 0.80632  0.71924  0.69210  Biso   1.000  Cl
  Cl26     1.0000 0.28076  0.08709  0.69210  Biso   1.000  Cl
  Cl27     1.0000 0.91291  0.19368  0.69210  Biso   1.000  Cl
  Cl28     1.0000 0.52701  0.94743  0.97457  Biso   1.000  Cl
  Cl29     1.0000 0.05257  0.57958  0.97457  Biso   1.000  Cl
  Cl30     1.0000 0.42042  0.47299  0.97457  Biso   1.000  Cl
  Cl31     1.0000 0.19368  0.28076  0.30790  Biso   1.000  Cl
  Cl32     1.0000 0.71924  0.91291  0.30790  Biso   1.000  Cl
  Cl33     1.0000 0.08709  0.80632  0.30790  Biso   1.000  Cl
  Cl34     1.0000 0.86034  0.61410  0.64124  Biso   1.000  Cl
  Cl35     1.0000 0.38590  0.24625  0.64124  Biso   1.000  Cl
  Cl36     1.0000 0.75375  0.13966  0.64124  Biso   1.000  Cl
  Cl37     1.0000 0.61380  0.19948  0.77710  Biso   1.000  Cl
  Cl38     1.0000 0.80052  0.41432  0.77710  Biso   1.000  Cl
  Cl39     1.0000 0.58568  0.38620  0.77710  Biso   1.000  Cl
  Cl40     1.0000 0.28047  0.53281  0.11043  Biso   1.000  Cl
  Cl41     1.0000 0.46719  0.74765  0.11043  Biso   1.000  Cl
  Cl42     1.0000 0.25235  0.71953  0.11043  Biso   1.000  Cl
  Cl43     1.0000 0.94713  0.86615  0.44377  Biso   1.000  Cl
  Cl44     1.0000 0.13385  0.08099  0.44377  Biso   1.000  Cl
  Cl45     1.0000 0.91901  0.05287  0.44377  Biso   1.000  Cl
  Cl46     1.0000 0.38620  0.80052  0.22290  Biso   1.000  Cl
  Cl47     1.0000 0.19948  0.58568  0.22290  Biso   1.000  Cl
  Cl48     1.0000 0.41432  0.61380  0.22290  Biso   1.000  Cl
  Cl49     1.0000 0.05287  0.13385  0.55623  Biso   1.000  Cl
  Cl50     1.0000 0.86615  0.91901  0.55623  Biso   1.000  Cl
  Cl51     1.0000 0.08099  0.94713  0.55623  Biso   1.000  Cl
  Cl52     1.0000 0.71953  0.46719  0.88957  Biso   1.000  Cl
  Cl53     1.0000 0.53281  0.25235  0.88957  Biso   1.000  Cl
  Cl54     1.0000 0.74765  0.28047  0.88957  Biso   1.000  Cl
  O19      1.0000 0.68594  0.17383  0.72470  Biso   1.000  O
  O20      1.0000 0.82617  0.51211  0.72470  Biso   1.000  O
  O21      1.0000 0.48789  0.31406  0.72470  Biso   1.000  O
  O22      1.0000 0.35261  0.50716  0.05803  Biso   1.000  O
  O23      1.0000 0.49284  0.84544  0.05803  Biso   1.000  O
  O24      1.0000 0.15456  0.64739  0.05803  Biso   1.000  O
  O25      1.0000 0.01927  0.84050  0.39137  Biso   1.000  O
  O26      1.0000 0.15950  0.17878  0.39137  Biso   1.000  O
  O27      1.0000 0.82122  0.98073  0.39137  Biso   1.000  O
  O28      1.0000 0.31406  0.82617  0.27530  Biso   1.000  O
  O29      1.0000 0.17383  0.48789  0.27530  Biso   1.000  O
  O30      1.0000 0.51211  0.68594  0.27530  Biso   1.000  O
  O31      1.0000 0.98073  0.15950  0.60863  Biso   1.000  O
  O32      1.0000 0.84050  0.82122  0.60863  Biso   1.000  O
  O33      1.0000 0.17878  0.01927  0.60863  Biso   1.000  O
  O34      1.0000 0.64739  0.49284  0.94197  Biso   1.000  O
  O35      1.0000 0.50716  0.15456  0.94197  Biso   1.000  O
  O36      1.0000 0.84544  0.35261  0.94197  Biso   1.000  O
  H1       1.0000 0.67200  0.18500  0.74500  Biso   1.000  H
  H2       1.0000 0.81500  0.48700  0.74500  Biso   1.000  H
  H3       1.0000 0.51300  0.32800  0.74500  Biso   1.000  H
  H4       1.0000 0.33867  0.51833  0.07833  Biso   1.000  H
  H5       1.0000 0.48167  0.82033  0.07833  Biso   1.000  H
  H6       1.0000 0.17967  0.66133  0.07833  Biso   1.000  H
  H7       1.0000 0.00533  0.85167  0.41167  Biso   1.000  H
  H8       1.0000 0.14833  0.15367  0.41167  Biso   1.000  H
  H9       1.0000 0.84633  0.99467  0.41167  Biso   1.000  H
  H10      1.0000 0.32800  0.81500  0.25500  Biso   1.000  H
  H11      1.0000 0.18500  0.51300  0.25500  Biso   1.000  H
  H12      1.0000 0.48700  0.67200  0.25500  Biso   1.000  H
  H13      1.0000 0.99467  0.14833  0.58833  Biso   1.000  H
  H14      1.0000 0.85167  0.84633  0.58833  Biso   1.000  H
  H15      1.0000 0.15367  0.00533  0.58833  Biso   1.000  H
  H16      1.0000 0.66133  0.48167  0.92167  Biso   1.000  H
  H17      1.0000 0.51833  0.17967  0.92167  Biso   1.000  H
  H18      1.0000 0.82033  0.33867  0.92167  Biso   1.000  H
  N1       1.0000 0.73442  0.17828  0.89250  Biso   1.000  N
  N2       1.0000 0.82172  0.55614  0.89250  Biso   1.000  N
  N3       1.0000 0.44386  0.26558  0.89250  Biso   1.000  N
  N4       1.0000 0.40109  0.51161  0.22583  Biso   1.000  N
  N5       1.0000 0.48839  0.88947  0.22583  Biso   1.000  N
  N6       1.0000 0.11053  0.59891  0.22583  Biso   1.000  N
  N7       1.0000 0.06775  0.84495  0.55917  Biso   1.000  N
  N8       1.0000 0.15505  0.22281  0.55917  Biso   1.000  N
  N9       1.0000 0.77719  0.93225  0.55917  Biso   1.000  N
  N10      1.0000 0.26558  0.82172  0.10750  Biso   1.000  N
  N11      1.0000 0.17828  0.44386  0.10750  Biso   1.000  N
  N12      1.0000 0.55614  0.73442  0.10750  Biso   1.000  N
  N13      1.0000 0.93225  0.15505  0.44083  Biso   1.000  N
  N14      1.0000 0.84495  0.77719  0.44083  Biso   1.000  N
  N15      1.0000 0.22281  0.06775  0.44083  Biso   1.000  N
  N16      1.0000 0.59891  0.48839  0.77417  Biso   1.000  N
  N17      1.0000 0.51161  0.11053  0.77417  Biso   1.000  N
  N18      1.0000 0.88947  0.40109  0.77417  Biso   1.000  N
  N19      1.0000 0.61874  0.00738  0.83400  Biso   1.000  N
  N20      1.0000 0.99262  0.61136  0.83400  Biso   1.000  N
  N21      1.0000 0.38864  0.38126  0.83400  Biso   1.000  N
  N22      1.0000 0.28541  0.34071  0.16733  Biso   1.000  N
  N23      1.0000 0.65929  0.94469  0.16733  Biso   1.000  N
  N24      1.0000 0.05531  0.71459  0.16733  Biso   1.000  N
  N25      1.0000 0.95207  0.67405  0.50067  Biso   1.000  N
  N26      1.0000 0.32595  0.27803  0.50067  Biso   1.000  N
  N27      1.0000 0.72197  0.04793  0.50067  Biso   1.000  N
  N28      1.0000 0.38126  0.99262  0.16600  Biso   1.000  N
  N29      1.0000 0.00738  0.38864  0.16600  Biso   1.000  N
  N30      1.0000 0.61136  0.61874  0.16600  Biso   1.000  N
  N31      1.0000 0.04793  0.32595  0.49933  Biso   1.000  N
  N32      1.0000 0.67405  0.72197  0.49933  Biso   1.000  N
  N33      1.0000 0.27803  0.95207  0.49933  Biso   1.000  N
  N34      1.0000 0.71459  0.65929  0.83267  Biso   1.000  N
  N35      1.0000 0.34071  0.05531  0.83267  Biso   1.000  N
  N36      1.0000 0.94469  0.28541  0.83267  Biso   1.000  N
  H19      1.0000 0.59400  0.01100  0.86900  Biso   1.000  H
  H20      1.0000 0.98900  0.58300  0.86900  Biso   1.000  H
  H21      1.0000 0.41700  0.40600  0.86900  Biso   1.000  H
  H22      1.0000 0.26067  0.34433  0.20233  Biso   1.000  H
  H23      1.0000 0.65567  0.91633  0.20233  Biso   1.000  H
  H24      1.0000 0.08367  0.73933  0.20233  Biso   1.000  H
  H25      1.0000 0.92733  0.67767  0.53567  Biso   1.000  H
  H26      1.0000 0.32233  0.24967  0.53567  Biso   1.000  H
  H27      1.0000 0.75033  0.07267  0.53567  Biso   1.000  H
  H28      1.0000 0.40600  0.98900  0.13100  Biso   1.000  H
  H29      1.0000 0.01100  0.41700  0.13100  Biso   1.000  H
  H30      1.0000 0.58300  0.59400  0.13100  Biso   1.000  H
  H31      1.0000 0.07267  0.32233  0.46433  Biso   1.000  H
  H32      1.0000 0.67767  0.75033  0.46433  Biso   1.000  H
  H33      1.0000 0.24967  0.92733  0.46433  Biso   1.000  H
  H34      1.0000 0.73933  0.65567  0.79767  Biso   1.000  H
  H35      1.0000 0.34433  0.08367  0.79767  Biso   1.000  H
  H36      1.0000 0.91633  0.26067  0.79767  Biso   1.000  H
  C1       1.0000 0.64010  0.18020  0.00270  Biso   1.000  C
  C2       1.0000 0.81980  0.45990  0.00270  Biso   1.000  C
  C3       1.0000 0.54010  0.35990  0.00270  Biso   1.000  C
  C4       1.0000 0.30677  0.51353  0.33603  Biso   1.000  C
  C5       1.0000 0.48647  0.79323  0.33603  Biso   1.000  C
  C6       1.0000 0.20677  0.69323  0.33603  Biso   1.000  C
  C7       1.0000 0.97343  0.84687  0.66937  Biso   1.000  C
  C8       1.0000 0.15313  0.12657  0.66937  Biso   1.000  C
  C9       1.0000 0.87343  0.02657  0.66937  Biso   1.000  C
  C10      1.0000 0.35990  0.81980  0.99730  Biso   1.000  C
  C11      1.0000 0.18020  0.54010  0.99730  Biso   1.000  C
  C12      1.0000 0.45990  0.64010  0.99730  Biso   1.000  C
  C13      1.0000 0.02657  0.15313  0.33063  Biso   1.000  C
  C14      1.0000 0.84687  0.87343  0.33063  Biso   1.000  C
  C15      1.0000 0.12657  0.97343  0.33063  Biso   1.000  C
  C16      1.0000 0.69323  0.48647  0.66397  Biso   1.000  C
  C17      1.0000 0.51353  0.20677  0.66397  Biso   1.000  C
  C18      1.0000 0.79323  0.30677  0.66397  Biso   1.000  C
  H37      1.0000 0.65940  0.17820  0.95560  Biso   1.000  H
  H38      1.0000 0.82180  0.48120  0.95560  Biso   1.000  H
  H39      1.0000 0.51880  0.34060  0.95560  Biso   1.000  H
  H40      1.0000 0.32607  0.51153  0.28893  Biso   1.000  H
  H41      1.0000 0.48847  0.81453  0.28893  Biso   1.000  H
  H42      1.0000 0.18547  0.67393  0.28893  Biso   1.000  H
  H43      1.0000 0.99273  0.84487  0.62227  Biso   1.000  H
  H44      1.0000 0.15513  0.14787  0.62227  Biso   1.000  H
  H45      1.0000 0.85213  0.00727  0.62227  Biso   1.000  H
  H46      1.0000 0.34060  0.82180  0.04440  Biso   1.000  H
  H47      1.0000 0.17820  0.51880  0.04440  Biso   1.000  H
  H48      1.0000 0.48120  0.65940  0.04440  Biso   1.000  H
  H49      1.0000 0.00727  0.15513  0.37773  Biso   1.000  H
  H50      1.0000 0.84487  0.85213  0.37773  Biso   1.000  H
  H51      1.0000 0.14787  0.99273  0.37773  Biso   1.000  H
  H52      1.0000 0.67393  0.48847  0.71107  Biso   1.000  H
  H53      1.0000 0.51153  0.18547  0.71107  Biso   1.000  H
  H54      1.0000 0.81453  0.32607  0.71107  Biso   1.000  H
  N37      1.0000 0.65600  0.04415  0.79010  Biso   1.000  N
  N38      1.0000 0.95585  0.61185  0.79010  Biso   1.000  N
  N39      1.0000 0.38815  0.34400  0.79010  Biso   1.000  N
  N40      1.0000 0.32267  0.37748  0.12343  Biso   1.000  N
  N41      1.0000 0.62252  0.94518  0.12343  Biso   1.000  N
  N42      1.0000 0.05482  0.67733  0.12343  Biso   1.000  N
  N43      1.0000 0.98933  0.71082  0.45677  Biso   1.000  N
  N44      1.0000 0.28918  0.27852  0.45677  Biso   1.000  N
  N45      1.0000 0.72148  0.01067  0.45677  Biso   1.000  N
  N46      1.0000 0.34400  0.95585  0.20990  Biso   1.000  N
  N47      1.0000 0.04415  0.38815  0.20990  Biso   1.000  N
  N48      1.0000 0.61185  0.65600  0.20990  Biso   1.000  N
  N49      1.0000 0.01067  0.28918  0.54323  Biso   1.000  N
  N50      1.0000 0.71082  0.72148  0.54323  Biso   1.000  N
  N51      1.0000 0.27852  0.98933  0.54323  Biso   1.000  N
  N52      1.0000 0.67733  0.62252  0.87657  Biso   1.000  N
  N53      1.0000 0.37748  0.05482  0.87657  Biso   1.000  N
  N54      1.0000 0.94518  0.32267  0.87657  Biso   1.000  N
  N55      1.0000 0.62477  0.08634  0.64900  Biso   1.000  N
  N56      1.0000 0.91366  0.53843  0.64900  Biso   1.000  N
  N57      1.0000 0.46157  0.37523  0.64900  Biso   1.000  N
  N58      1.0000 0.29144  0.41967  0.98233  Biso   1.000  N
  N59      1.0000 0.58033  0.87176  0.98233  Biso   1.000  N
  N60      1.0000 0.12824  0.70856  0.98233  Biso   1.000  N
  N61      1.0000 0.95810  0.75301  0.31567  Biso   1.000  N
  N62      1.0000 0.24699  0.20510  0.31567  Biso   1.000  N
  N63      1.0000 0.79490  0.04190  0.31567  Biso   1.000  N
  N64      1.0000 0.37523  0.91366  0.35100  Biso   1.000  N
  N65      1.0000 0.08634  0.46157  0.35100  Biso   1.000  N
  N66      1.0000 0.53843  0.62477  0.35100  Biso   1.000  N
  N67      1.0000 0.04190  0.24699  0.68433  Biso   1.000  N
  N68      1.0000 0.75301  0.79490  0.68433  Biso   1.000  N
  N69      1.0000 0.20510  0.95810  0.68433  Biso   1.000  N
  N70      1.0000 0.70856  0.58033  0.01767  Biso   1.000  N
  N71      1.0000 0.41967  0.12824  0.01767  Biso   1.000  N
  N72      1.0000 0.87176  0.29144  0.01767  Biso   1.000  N
  C19      1.0000 0.58760  0.04440  0.62460  Biso   1.000  C
  C20      1.0000 0.95560  0.54320  0.62460  Biso   1.000  C
  C21      1.0000 0.45680  0.41240  0.62460  Biso   1.000  C
  C22      1.0000 0.25427  0.37773  0.95793  Biso   1.000  C
  C23      1.0000 0.62227  0.87653  0.95793  Biso   1.000  C
  C24      1.0000 0.12347  0.74573  0.95793  Biso   1.000  C
  C25      1.0000 0.92093  0.71107  0.29127  Biso   1.000  C
  C26      1.0000 0.28893  0.20987  0.29127  Biso   1.000  C
  C27      1.0000 0.79013  0.07907  0.29127  Biso   1.000  C
  C28      1.0000 0.41240  0.95560  0.37540  Biso   1.000  C
  C29      1.0000 0.04440  0.45680  0.37540  Biso   1.000  C
  C30      1.0000 0.54320  0.58760  0.37540  Biso   1.000  C
  C31      1.0000 0.07907  0.28893  0.70873  Biso   1.000  C
  C32      1.0000 0.71107  0.79013  0.70873  Biso   1.000  C
  C33      1.0000 0.20987  0.92093  0.70873  Biso   1.000  C
  C34      1.0000 0.74573  0.62227  0.04207  Biso   1.000  C
  C35      1.0000 0.37773  0.12347  0.04207  Biso   1.000  C
  C36      1.0000 0.87653  0.25427  0.04207  Biso   1.000  C
  H55      1.0000 0.57400  0.01790  0.66420  Biso   1.000  H
  H56      1.0000 0.98210  0.55610  0.66420  Biso   1.000  H
  H57      1.0000 0.44390  0.42600  0.66420  Biso   1.000  H
  H58      1.0000 0.24067  0.35123  0.99753  Biso   1.000  H
  H59      1.0000 0.64877  0.88943  0.99753  Biso   1.000  H
  H60      1.0000 0.11057  0.75933  0.99753  Biso   1.000  H
  H61      1.0000 0.90733  0.68457  0.33087  Biso   1.000  H
  H62      1.0000 0.31543  0.22277  0.33087  Biso   1.000  H
  H63      1.0000 0.77723  0.09267  0.33087  Biso   1.000  H
  H64      1.0000 0.42600  0.98210  0.33580  Biso   1.000  H
  H65      1.0000 0.01790  0.44390  0.33580  Biso   1.000  H
  H66      1.0000 0.55610  0.57400  0.33580  Biso   1.000  H
  H67      1.0000 0.09267  0.31543  0.66913  Biso   1.000  H
  H68      1.0000 0.68457  0.77723  0.66913  Biso   1.000  H
  H69      1.0000 0.22277  0.90733  0.66913  Biso   1.000  H
  H70      1.0000 0.75933  0.64877  0.00247  Biso   1.000  H
  H71      1.0000 0.35123  0.11057  0.00247  Biso   1.000  H
  H72      1.0000 0.88943  0.24067  0.00247  Biso   1.000  H
  N73      1.0000 0.70029  0.13229  0.88470  Biso   1.000  N
  N74      1.0000 0.86771  0.56800  0.88470  Biso   1.000  N
  N75      1.0000 0.43200  0.29971  0.88470  Biso   1.000  N
  N76      1.0000 0.36696  0.46562  0.21803  Biso   1.000  N
  N77      1.0000 0.53438  0.90133  0.21803  Biso   1.000  N
  N78      1.0000 0.09867  0.63304  0.21803  Biso   1.000  N
  N79      1.0000 0.03362  0.79896  0.55137  Biso   1.000  N
  N80      1.0000 0.20104  0.23467  0.55137  Biso   1.000  N
  N81      1.0000 0.76533  0.96638  0.55137  Biso   1.000  N
  N82      1.0000 0.29971  0.86771  0.11530  Biso   1.000  N
  N83      1.0000 0.13229  0.43200  0.11530  Biso   1.000  N
  N84      1.0000 0.56800  0.70029  0.11530  Biso   1.000  N
  N85      1.0000 0.96638  0.20104  0.44863  Biso   1.000  N
  N86      1.0000 0.79896  0.76533  0.44863  Biso   1.000  N
  N87      1.0000 0.23467  0.03362  0.44863  Biso   1.000  N
  N88      1.0000 0.63304  0.53438  0.78197  Biso   1.000  N
  N89      1.0000 0.46562  0.09867  0.78197  Biso   1.000  N
  N90      1.0000 0.90133  0.36696  0.78197  Biso   1.000  N
  N91      1.0000 0.63469  0.11595  0.57240  Biso   1.000  N
  N92      1.0000 0.88405  0.51874  0.57240  Biso   1.000  N
  N93      1.0000 0.48126  0.36531  0.57240  Biso   1.000  N
  N94      1.0000 0.30136  0.44928  0.90573  Biso   1.000  N
  N95      1.0000 0.55072  0.85207  0.90573  Biso   1.000  N
  N96      1.0000 0.14793  0.69864  0.90573  Biso   1.000  N
  N97      1.0000 0.96802  0.78262  0.23907  Biso   1.000  N
  N98      1.0000 0.21738  0.18541  0.23907  Biso   1.000  N
  N99      1.0000 0.81459  0.03198  0.23907  Biso   1.000  N
  N100     1.0000 0.36531  0.88405  0.42760  Biso   1.000  N
  N101     1.0000 0.11595  0.48126  0.42760  Biso   1.000  N
  N102     1.0000 0.51874  0.63469  0.42760  Biso   1.000  N
  N103     1.0000 0.03198  0.21738  0.76093  Biso   1.000  N
  N104     1.0000 0.78262  0.81459  0.76093  Biso   1.000  N
  N105     1.0000 0.18541  0.96802  0.76093  Biso   1.000  N
  N106     1.0000 0.69864  0.55072  0.09427  Biso   1.000  N
  N107     1.0000 0.44928  0.14793  0.09427  Biso   1.000  N
  N108     1.0000 0.85207  0.30136  0.09427  Biso   1.000  N
  C37      1.0000 0.72910  0.14420  0.03490  Biso   1.000  C
  C38      1.0000 0.85580  0.58490  0.03490  Biso   1.000  C
  C39      1.0000 0.41510  0.27090  0.03490  Biso   1.000  C
  C40      1.0000 0.39577  0.47753  0.36823  Biso   1.000  C
  C41      1.0000 0.52247  0.91823  0.36823  Biso   1.000  C
  C42      1.0000 0.08177  0.60423  0.36823  Biso   1.000  C
  C43      1.0000 0.06243  0.81087  0.70157  Biso   1.000  C
  C44      1.0000 0.18913  0.25157  0.70157  Biso   1.000  C
  C45      1.0000 0.74843  0.93757  0.70157  Biso   1.000  C
  C46      1.0000 0.27090  0.85580  0.96510  Biso   1.000  C
  C47      1.0000 0.14420  0.41510  0.96510  Biso   1.000  C
  C48      1.0000 0.58490  0.72910  0.96510  Biso   1.000  C
  C49      1.0000 0.93757  0.18913  0.29843  Biso   1.000  C
  C50      1.0000 0.81087  0.74843  0.29843  Biso   1.000  C
  C51      1.0000 0.25157  0.06243  0.29843  Biso   1.000  C
  C52      1.0000 0.60423  0.52247  0.63177  Biso   1.000  C
  C53      1.0000 0.47753  0.08177  0.63177  Biso   1.000  C
  C54      1.0000 0.91823  0.39577  0.63177  Biso   1.000  C
  H73      1.0000 0.73410  0.13920  0.09890  Biso   1.000  H
  H74      1.0000 0.86080  0.59490  0.09890  Biso   1.000  H
  H75      1.0000 0.40510  0.26590  0.09890  Biso   1.000  H
  H76      1.0000 0.40077  0.47253  0.43223  Biso   1.000  H
  H77      1.0000 0.52747  0.92823  0.43223  Biso   1.000  H
  H78      1.0000 0.07177  0.59923  0.43223  Biso   1.000  H
  H79      1.0000 0.06743  0.80587  0.76557  Biso   1.000  H
  H80      1.0000 0.19413  0.26157  0.76557  Biso   1.000  H
  H81      1.0000 0.73843  0.93257  0.76557  Biso   1.000  H
  H82      1.0000 0.26590  0.86080  0.90110  Biso   1.000  H
  H83      1.0000 0.13920  0.40510  0.90110  Biso   1.000  H
  H84      1.0000 0.59490  0.73410  0.90110  Biso   1.000  H
  H85      1.0000 0.93257  0.19413  0.23443  Biso   1.000  H
  H86      1.0000 0.80587  0.73843  0.23443  Biso   1.000  H
  H87      1.0000 0.26157  0.06743  0.23443  Biso   1.000  H
  H88      1.0000 0.59923  0.52747  0.56777  Biso   1.000  H
  H89      1.0000 0.47253  0.07177  0.56777  Biso   1.000  H
  H90      1.0000 0.92823  0.40077  0.56777  Biso   1.000  H
  C55      1.0000 0.69710  0.11160  0.97010  Biso   1.000  C
  C56      1.0000 0.88840  0.58550  0.97010  Biso   1.000  C
  C57      1.0000 0.41450  0.30290  0.97010  Biso   1.000  C
  C58      1.0000 0.36377  0.44493  0.30343  Biso   1.000  C
  C59      1.0000 0.55507  0.91883  0.30343  Biso   1.000  C
  C60      1.0000 0.08117  0.63623  0.30343  Biso   1.000  C
  C61      1.0000 0.03043  0.77827  0.63677  Biso   1.000  C
  C62      1.0000 0.22173  0.25217  0.63677  Biso   1.000  C
  C63      1.0000 0.74783  0.96957  0.63677  Biso   1.000  C
  C64      1.0000 0.30290  0.88840  0.02990  Biso   1.000  C
  C65      1.0000 0.11160  0.41450  0.02990  Biso   1.000  C
  C66      1.0000 0.58550  0.69710  0.02990  Biso   1.000  C
  C67      1.0000 0.96957  0.22173  0.36323  Biso   1.000  C
  C68      1.0000 0.77827  0.74783  0.36323  Biso   1.000  C
  C69      1.0000 0.25217  0.03043  0.36323  Biso   1.000  C
  C70      1.0000 0.63623  0.55507  0.69657  Biso   1.000  C
  C71      1.0000 0.44493  0.08117  0.69657  Biso   1.000  C
  C72      1.0000 0.91883  0.36377  0.69657  Biso   1.000  C
  H91      1.0000 0.67640  0.07990  0.98390  Biso   1.000  H
  H92      1.0000 0.92010  0.59650  0.98390  Biso   1.000  H
  H93      1.0000 0.40350  0.32360  0.98390  Biso   1.000  H
  H94      1.0000 0.34307  0.41323  0.31723  Biso   1.000  H
  H95      1.0000 0.58677  0.92983  0.31723  Biso   1.000  H
  H96      1.0000 0.07017  0.65693  0.31723  Biso   1.000  H
  H97      1.0000 0.00973  0.74657  0.65057  Biso   1.000  H
  H98      1.0000 0.25343  0.26317  0.65057  Biso   1.000  H
  H99      1.0000 0.73683  0.99027  0.65057  Biso   1.000  H
  H100     1.0000 0.32360  0.92010  0.01610  Biso   1.000  H
  H101     1.0000 0.07990  0.40350  0.01610  Biso   1.000  H
  H102     1.0000 0.59650  0.67640  0.01610  Biso   1.000  H
  H103     1.0000 0.99027  0.25343  0.34943  Biso   1.000  H
  H104     1.0000 0.74657  0.73683  0.34943  Biso   1.000  H
  H105     1.0000 0.26317  0.00973  0.34943  Biso   1.000  H
  H106     1.0000 0.65693  0.58677  0.68277  Biso   1.000  H
  H107     1.0000 0.41323  0.07017  0.68277  Biso   1.000  H
  H108     1.0000 0.92983  0.34307  0.68277  Biso   1.000  H
  C73      1.0000 0.75170  0.18580  0.98250  Biso   1.000  C
  C74      1.0000 0.81420  0.56590  0.98250  Biso   1.000  C
  C75      1.0000 0.43410  0.24830  0.98250  Biso   1.000  C
  C76      1.0000 0.41837  0.51913  0.31583  Biso   1.000  C
  C77      1.0000 0.48087  0.89923  0.31583  Biso   1.000  C
  C78      1.0000 0.10077  0.58163  0.31583  Biso   1.000  C
  C79      1.0000 0.08503  0.85247  0.64917  Biso   1.000  C
  C80      1.0000 0.14753  0.23257  0.64917  Biso   1.000  C
  C81      1.0000 0.76743  0.91497  0.64917  Biso   1.000  C
  C82      1.0000 0.24830  0.81420  0.01750  Biso   1.000  C
  C83      1.0000 0.18580  0.43410  0.01750  Biso   1.000  C
  C84      1.0000 0.56590  0.75170  0.01750  Biso   1.000  C
  C85      1.0000 0.91497  0.14753  0.35083  Biso   1.000  C
  C86      1.0000 0.85247  0.76743  0.35083  Biso   1.000  C
  C87      1.0000 0.23257  0.08503  0.35083  Biso   1.000  C
  C88      1.0000 0.58163  0.48087  0.68417  Biso   1.000  C
  C89      1.0000 0.51913  0.10077  0.68417  Biso   1.000  C
  C90      1.0000 0.89923  0.41837  0.68417  Biso   1.000  C
  H109     1.0000 0.77540  0.21460  0.00630  Biso   1.000  H
  H110     1.0000 0.78540  0.56080  0.00630  Biso   1.000  H
  H111     1.0000 0.43920  0.22460  0.00630  Biso   1.000  H
  H112     1.0000 0.44207  0.54793  0.33963  Biso   1.000  H
  H113     1.0000 0.45207  0.89413  0.33963  Biso   1.000  H
  H114     1.0000 0.10587  0.55793  0.33963  Biso   1.000  H
  H115     1.0000 0.10873  0.88127  0.67297  Biso   1.000  H
  H116     1.0000 0.11873  0.22747  0.67297  Biso   1.000  H
  H117     1.0000 0.77253  0.89127  0.67297  Biso   1.000  H
  H118     1.0000 0.22460  0.78540  0.99370  Biso   1.000  H
  H119     1.0000 0.21460  0.43920  0.99370  Biso   1.000  H
  H120     1.0000 0.56080  0.77540  0.99370  Biso   1.000  H
  H121     1.0000 0.89127  0.11873  0.32703  Biso   1.000  H
  H122     1.0000 0.88127  0.77253  0.32703  Biso   1.000  H
  H123     1.0000 0.22747  0.10873  0.32703  Biso   1.000  H
  H124     1.0000 0.55793  0.45207  0.66037  Biso   1.000  H
  H125     1.0000 0.54793  0.10587  0.66037  Biso   1.000  H
  H126     1.0000 0.89413  0.44207  0.66037  Biso   1.000  H
  C91      1.0000 0.60320  0.09230  0.50220  Biso   1.000  C
  C92      1.0000 0.90770  0.51090  0.50220  Biso   1.000  C
  C93      1.0000 0.48910  0.39680  0.50220  Biso   1.000  C
  C94      1.0000 0.26987  0.42563  0.83553  Biso   1.000  C
  C95      1.0000 0.57437  0.84423  0.83553  Biso   1.000  C
  C96      1.0000 0.15577  0.73013  0.83553  Biso   1.000  C
  C97      1.0000 0.93653  0.75897  0.16887  Biso   1.000  C
  C98      1.0000 0.24103  0.17757  0.16887  Biso   1.000  C
  C99      1.0000 0.82243  0.06347  0.16887  Biso   1.000  C
  C100     1.0000 0.39680  0.90770  0.49780  Biso   1.000  C
  C101     1.0000 0.09230  0.48910  0.49780  Biso   1.000  C
  C102     1.0000 0.51090  0.60320  0.49780  Biso   1.000  C
  C103     1.0000 0.06347  0.24103  0.83113  Biso   1.000  C
  C104     1.0000 0.75897  0.82243  0.83113  Biso   1.000  C
  C105     1.0000 0.17757  0.93653  0.83113  Biso   1.000  C
  C106     1.0000 0.73013  0.57437  0.16447  Biso   1.000  C
  C107     1.0000 0.42563  0.15577  0.16447  Biso   1.000  C
  C108     1.0000 0.84423  0.26987  0.16447  Biso   1.000  C
  H127     1.0000 0.60210  0.10470  0.44240  Biso   1.000  H
  H128     1.0000 0.89530  0.49740  0.44240  Biso   1.000  H
  H129     1.0000 0.50260  0.39790  0.44240  Biso   1.000  H
  H130     1.0000 0.26877  0.43803  0.77573  Biso   1.000  H
  H131     1.0000 0.56197  0.83073  0.77573  Biso   1.000  H
  H132     1.0000 0.16927  0.73123  0.77573  Biso   1.000  H
  H133     1.0000 0.93543  0.77137  0.10907  Biso   1.000  H
  H134     1.0000 0.22863  0.16407  0.10907  Biso   1.000  H
  H135     1.0000 0.83593  0.06457  0.10907  Biso   1.000  H
  H136     1.0000 0.39790  0.89530  0.55760  Biso   1.000  H
  H137     1.0000 0.10470  0.50260  0.55760  Biso   1.000  H
  H138     1.0000 0.49740  0.60210  0.55760  Biso   1.000  H
  H139     1.0000 0.06457  0.22863  0.89093  Biso   1.000  H
  H140     1.0000 0.77137  0.83593  0.89093  Biso   1.000  H
  H141     1.0000 0.16407  0.93543  0.89093  Biso   1.000  H
  H142     1.0000 0.73123  0.56197  0.22427  Biso   1.000  H
  H143     1.0000 0.43803  0.16927  0.22427  Biso   1.000  H
  H144     1.0000 0.83073  0.26877  0.22427  Biso   1.000  H
  C109     1.0000 0.68520  0.02870  0.76680  Biso   1.000  C
  C110     1.0000 0.97130  0.65650  0.76680  Biso   1.000  C
  C111     1.0000 0.34350  0.31480  0.76680  Biso   1.000  C
  C112     1.0000 0.35187  0.36203  0.10013  Biso   1.000  C
  C113     1.0000 0.63797  0.98983  0.10013  Biso   1.000  C
  C114     1.0000 0.01017  0.64813  0.10013  Biso   1.000  C
  C115     1.0000 0.01853  0.69537  0.43347  Biso   1.000  C
  C116     1.0000 0.30463  0.32317  0.43347  Biso   1.000  C
  C117     1.0000 0.67683  0.98147  0.43347  Biso   1.000  C
  C118     1.0000 0.31480  0.97130  0.23320  Biso   1.000  C
  C119     1.0000 0.02870  0.34350  0.23320  Biso   1.000  C
  C120     1.0000 0.65650  0.68520  0.23320  Biso   1.000  C
  C121     1.0000 0.98147  0.30463  0.56653  Biso   1.000  C
  C122     1.0000 0.69537  0.67683  0.56653  Biso   1.000  C
  C123     1.0000 0.32317  0.01853  0.56653  Biso   1.000  C
  C124     1.0000 0.64813  0.63797  0.89987  Biso   1.000  C
  C125     1.0000 0.36203  0.01017  0.89987  Biso   1.000  C
  C126     1.0000 0.98983  0.35187  0.89987  Biso   1.000  C
  H145     1.0000 0.71400  0.04660  0.73580  Biso   1.000  H
  H146     1.0000 0.95340  0.66740  0.73580  Biso   1.000  H
  H147     1.0000 0.33260  0.28600  0.73580  Biso   1.000  H
  H148     1.0000 0.38067  0.37993  0.06913  Biso   1.000  H
  H149     1.0000 0.62007  0.00073  0.06913  Biso   1.000  H
  H150     1.0000 0.99927  0.61933  0.06913  Biso   1.000  H
  H151     1.0000 0.04733  0.71327  0.40247  Biso   1.000  H
  H152     1.0000 0.28673  0.33407  0.40247  Biso   1.000  H
  H153     1.0000 0.66593  0.95267  0.40247  Biso   1.000  H
  H154     1.0000 0.28600  0.95340  0.26420  Biso   1.000  H
  H155     1.0000 0.04660  0.33260  0.26420  Biso   1.000  H
  H156     1.0000 0.66740  0.71400  0.26420  Biso   1.000  H
  H157     1.0000 0.95267  0.28673  0.59753  Biso   1.000  H
  H158     1.0000 0.71327  0.66593  0.59753  Biso   1.000  H
  H159     1.0000 0.33407  0.04733  0.59753  Biso   1.000  H
  H160     1.0000 0.61933  0.62007  0.93087  Biso   1.000  H
  H161     1.0000 0.37993  0.99927  0.93087  Biso   1.000  H
  H162     1.0000 0.00073  0.38067  0.93087  Biso   1.000  H
  C127     1.0000 0.66650  0.98180  0.79550  Biso   1.000  C
  C128     1.0000 0.01820  0.68470  0.79550  Biso   1.000  C
  C129     1.0000 0.31530  0.33350  0.79550  Biso   1.000  C
  C130     1.0000 0.33317  0.31513  0.12883  Biso   1.000  C
  C131     1.0000 0.68487  0.01803  0.12883  Biso   1.000  C
  C132     1.0000 0.98197  0.66683  0.12883  Biso   1.000  C
  C133     1.0000 0.99983  0.64847  0.46217  Biso   1.000  C
  C134     1.0000 0.35153  0.35137  0.46217  Biso   1.000  C
  C135     1.0000 0.64863  0.00017  0.46217  Biso   1.000  C
  C136     1.0000 0.33350  0.01820  0.20450  Biso   1.000  C
  C137     1.0000 0.98180  0.31530  0.20450  Biso   1.000  C
  C138     1.0000 0.68470  0.66650  0.20450  Biso   1.000  C
  C139     1.0000 0.00017  0.35153  0.53783  Biso   1.000  C
  C140     1.0000 0.64847  0.64863  0.53783  Biso   1.000  C
  C141     1.0000 0.35137  0.99983  0.53783  Biso   1.000  C
  C142     1.0000 0.66683  0.68487  0.87117  Biso   1.000  C
  C143     1.0000 0.31513  0.98197  0.87117  Biso   1.000  C
  C144     1.0000 0.01803  0.33317  0.87117  Biso   1.000  C
  H163     1.0000 0.67980  0.96270  0.78720  Biso   1.000  H
  H164     1.0000 0.03730  0.71710  0.78720  Biso   1.000  H
  H165     1.0000 0.28290  0.32020  0.78720  Biso   1.000  H
  H166     1.0000 0.34647  0.29603  0.12053  Biso   1.000  H
  H167     1.0000 0.70397  0.05043  0.12053  Biso   1.000  H
  H168     1.0000 0.94957  0.65353  0.12053  Biso   1.000  H
  H169     1.0000 0.01313  0.62937  0.45387  Biso   1.000  H
  H170     1.0000 0.37063  0.38377  0.45387  Biso   1.000  H
  H171     1.0000 0.61623  0.98687  0.45387  Biso   1.000  H
  H172     1.0000 0.32020  0.03730  0.21280  Biso   1.000  H
  H173     1.0000 0.96270  0.28290  0.21280  Biso   1.000  H
  H174     1.0000 0.71710  0.67980  0.21280  Biso   1.000  H
  H175     1.0000 0.98687  0.37063  0.54613  Biso   1.000  H
  H176     1.0000 0.62937  0.61623  0.54613  Biso   1.000  H
  H177     1.0000 0.38377  0.01313  0.54613  Biso   1.000  H
  H178     1.0000 0.65353  0.70397  0.87947  Biso   1.000  H
  H179     1.0000 0.29603  0.94957  0.87947  Biso   1.000  H
  H180     1.0000 0.05043  0.34647  0.87947  Biso   1.000  H
  N109     1.0000 0.59365  0.16430  0.99260  Biso   1.000  N
  N110     1.0000 0.83570  0.42935  0.99260  Biso   1.000  N
  N111     1.0000 0.57065  0.40635  0.99260  Biso   1.000  N
  N112     1.0000 0.26032  0.49763  0.32593  Biso   1.000  N
  N113     1.0000 0.50237  0.76268  0.32593  Biso   1.000  N
  N114     1.0000 0.23732  0.73968  0.32593  Biso   1.000  N
  N115     1.0000 0.92698  0.83097  0.65927  Biso   1.000  N
  N116     1.0000 0.16903  0.09602  0.65927  Biso   1.000  N
  N117     1.0000 0.90398  0.07302  0.65927  Biso   1.000  N
  N118     1.0000 0.40635  0.83570  0.00740  Biso   1.000  N
  N119     1.0000 0.16430  0.57065  0.00740  Biso   1.000  N
  N120     1.0000 0.42935  0.59365  0.00740  Biso   1.000  N
  N121     1.0000 0.07302  0.16903  0.34073  Biso   1.000  N
  N122     1.0000 0.83097  0.90398  0.34073  Biso   1.000  N
  N123     1.0000 0.09602  0.92698  0.34073  Biso   1.000  N
  N124     1.0000 0.73968  0.50237  0.67407  Biso   1.000  N
  N125     1.0000 0.49763  0.23732  0.67407  Biso   1.000  N
  N126     1.0000 0.76268  0.26032  0.67407  Biso   1.000  N
  C145     1.0000 0.57240  0.04630  0.53240  Biso   1.000  C
  C146     1.0000 0.95370  0.52610  0.53240  Biso   1.000  C
  C147     1.0000 0.47390  0.42760  0.53240  Biso   1.000  C
  C148     1.0000 0.23907  0.37963  0.86573  Biso   1.000  C
  C149     1.0000 0.62037  0.85943  0.86573  Biso   1.000  C
  C150     1.0000 0.14057  0.76093  0.86573  Biso   1.000  C
  C151     1.0000 0.90573  0.71297  0.19907  Biso   1.000  C
  C152     1.0000 0.28703  0.19277  0.19907  Biso   1.000  C
  C153     1.0000 0.80723  0.09427  0.19907  Biso   1.000  C
  C154     1.0000 0.42760  0.95370  0.46760  Biso   1.000  C
  C155     1.0000 0.04630  0.47390  0.46760  Biso   1.000  C
  C156     1.0000 0.52610  0.57240  0.46760  Biso   1.000  C
  C157     1.0000 0.09427  0.28703  0.80093  Biso   1.000  C
  C158     1.0000 0.71297  0.80723  0.80093  Biso   1.000  C
  C159     1.0000 0.19277  0.90573  0.80093  Biso   1.000  C
  C160     1.0000 0.76093  0.62037  0.13427  Biso   1.000  C
  C161     1.0000 0.37963  0.14057  0.13427  Biso   1.000  C
  C162     1.0000 0.85943  0.23907  0.13427  Biso   1.000  C
  H181     1.0000 0.54740  0.02240  0.49830  Biso   1.000  H
  H182     1.0000 0.97760  0.52500  0.49830  Biso   1.000  H
  H183     1.0000 0.47500  0.45260  0.49830  Biso   1.000  H
  H184     1.0000 0.21407  0.35573  0.83163  Biso   1.000  H
  H185     1.0000 0.64427  0.85833  0.83163  Biso   1.000  H
  H186     1.0000 0.14167  0.78593  0.83163  Biso   1.000  H
  H187     1.0000 0.88073  0.68907  0.16497  Biso   1.000  H
  H188     1.0000 0.31093  0.19167  0.16497  Biso   1.000  H
  H189     1.0000 0.80833  0.11927  0.16497  Biso   1.000  H
  H190     1.0000 0.45260  0.97760  0.50170  Biso   1.000  H
  H191     1.0000 0.02240  0.47500  0.50170  Biso   1.000  H
  H192     1.0000 0.52500  0.54740  0.50170  Biso   1.000  H
  H193     1.0000 0.11927  0.31093  0.83503  Biso   1.000  H
  H194     1.0000 0.68907  0.80833  0.83503  Biso   1.000  H
  H195     1.0000 0.19167  0.88073  0.83503  Biso   1.000  H
  H196     1.0000 0.78593  0.64427  0.16837  Biso   1.000  H
  H197     1.0000 0.35573  0.14167  0.16837  Biso   1.000  H
  H198     1.0000 0.85833  0.21407  0.16837  Biso   1.000  H
  N127     1.0000 0.57750  0.17290  0.07580  Biso   1.000  N
  N128     1.0000 0.82710  0.40460  0.07580  Biso   1.000  N
  N129     1.0000 0.59540  0.42250  0.07580  Biso   1.000  N
  N130     1.0000 0.24417  0.50623  0.40913  Biso   1.000  N
  N131     1.0000 0.49377  0.73793  0.40913  Biso   1.000  N
  N132     1.0000 0.26207  0.75583  0.40913  Biso   1.000  N
  N133     1.0000 0.91083  0.83957  0.74247  Biso   1.000  N
  N134     1.0000 0.16043  0.07127  0.74247  Biso   1.000  N
  N135     1.0000 0.92873  0.08917  0.74247  Biso   1.000  N
  N136     1.0000 0.42250  0.82710  0.92420  Biso   1.000  N
  N137     1.0000 0.17290  0.59540  0.92420  Biso   1.000  N
  N138     1.0000 0.40460  0.57750  0.92420  Biso   1.000  N
  N139     1.0000 0.08917  0.16043  0.25753  Biso   1.000  N
  N140     1.0000 0.83957  0.92873  0.25753  Biso   1.000  N
  N141     1.0000 0.07127  0.91083  0.25753  Biso   1.000  N
  N142     1.0000 0.75583  0.49377  0.59087  Biso   1.000  N
  N143     1.0000 0.50623  0.26207  0.59087  Biso   1.000  N
  N144     1.0000 0.73793  0.24417  0.59087  Biso   1.000  N
  C163     1.0000 0.62450  0.97000  0.83830  Biso   1.000  C
  C164     1.0000 0.03000  0.65450  0.83830  Biso   1.000  C
  C165     1.0000 0.34550  0.37550  0.83830  Biso   1.000  C
  C166     1.0000 0.29117  0.30333  0.17163  Biso   1.000  C
  C167     1.0000 0.69667  0.98783  0.17163  Biso   1.000  C
  C168     1.0000 0.01217  0.70883  0.17163  Biso   1.000  C
  C169     1.0000 0.95783  0.63667  0.50497  Biso   1.000  C
  C170     1.0000 0.36333  0.32117  0.50497  Biso   1.000  C
  C171     1.0000 0.67883  0.04217  0.50497  Biso   1.000  C
  C172     1.0000 0.37550  0.03000  0.16170  Biso   1.000  C
  C173     1.0000 0.97000  0.34550  0.16170  Biso   1.000  C
  C174     1.0000 0.65450  0.62450  0.16170  Biso   1.000  C
  C175     1.0000 0.04217  0.36333  0.49503  Biso   1.000  C
  C176     1.0000 0.63667  0.67883  0.49503  Biso   1.000  C
  C177     1.0000 0.32117  0.95783  0.49503  Biso   1.000  C
  C178     1.0000 0.70883  0.69667  0.82837  Biso   1.000  C
  C179     1.0000 0.30333  0.01217  0.82837  Biso   1.000  C
  C180     1.0000 0.98783  0.29117  0.82837  Biso   1.000  C
  H199     1.0000 0.60360  0.94100  0.86560  Biso   1.000  H
  H200     1.0000 0.05900  0.66260  0.86560  Biso   1.000  H
  H201     1.0000 0.33740  0.39640  0.86560  Biso   1.000  H
  H202     1.0000 0.27027  0.27433  0.19893  Biso   1.000  H
  H203     1.0000 0.72567  0.99593  0.19893  Biso   1.000  H
  H204     1.0000 0.00407  0.72973  0.19893  Biso   1.000  H
  H205     1.0000 0.93693  0.60767  0.53227  Biso   1.000  H
  H206     1.0000 0.39233  0.32927  0.53227  Biso   1.000  H
  H207     1.0000 0.67073  0.06307  0.53227  Biso   1.000  H
  H208     1.0000 0.39640  0.05900  0.13440  Biso   1.000  H
  H209     1.0000 0.94100  0.33740  0.13440  Biso   1.000  H
  H210     1.0000 0.66260  0.60360  0.13440  Biso   1.000  H
  H211     1.0000 0.06307  0.39233  0.46773  Biso   1.000  H
  H212     1.0000 0.60767  0.67073  0.46773  Biso   1.000  H
  H213     1.0000 0.32927  0.93693  0.46773  Biso   1.000  H
  H214     1.0000 0.72973  0.72567  0.80107  Biso   1.000  H
  H215     1.0000 0.27433  0.00407  0.80107  Biso   1.000  H
  H216     1.0000 0.99593  0.27027  0.80107  Biso   1.000  H
  C181     1.0000 0.65480  0.19950  0.09280  Biso   1.000  C
  C182     1.0000 0.80050  0.45530  0.09280  Biso   1.000  C
  C183     1.0000 0.54470  0.34520  0.09280  Biso   1.000  C
  C184     1.0000 0.32147  0.53283  0.42613  Biso   1.000  C
  C185     1.0000 0.46717  0.78863  0.42613  Biso   1.000  C
  C186     1.0000 0.21137  0.67853  0.42613  Biso   1.000  C
  C187     1.0000 0.98813  0.86617  0.75947  Biso   1.000  C
  C188     1.0000 0.13383  0.12197  0.75947  Biso   1.000  C
  C189     1.0000 0.87803  0.01187  0.75947  Biso   1.000  C
  C190     1.0000 0.34520  0.80050  0.90720  Biso   1.000  C
  C191     1.0000 0.19950  0.54470  0.90720  Biso   1.000  C
  C192     1.0000 0.45530  0.65480  0.90720  Biso   1.000  C
  C193     1.0000 0.01187  0.13383  0.24053  Biso   1.000  C
  C194     1.0000 0.86617  0.87803  0.24053  Biso   1.000  C
  C195     1.0000 0.12197  0.98813  0.24053  Biso   1.000  C
  C196     1.0000 0.67853  0.46717  0.57387  Biso   1.000  C
  C197     1.0000 0.53283  0.21137  0.57387  Biso   1.000  C
  C198     1.0000 0.78863  0.32147  0.57387  Biso   1.000  C
  H217     1.0000 0.68510  0.21370  0.11840  Biso   1.000  H
  H218     1.0000 0.78630  0.47140  0.11840  Biso   1.000  H
  H219     1.0000 0.52860  0.31490  0.11840  Biso   1.000  H
  H220     1.0000 0.35177  0.54703  0.45173  Biso   1.000  H
  H221     1.0000 0.45297  0.80473  0.45173  Biso   1.000  H
  H222     1.0000 0.19527  0.64823  0.45173  Biso   1.000  H
  H223     1.0000 0.01843  0.88037  0.78507  Biso   1.000  H
  H224     1.0000 0.11963  0.13807  0.78507  Biso   1.000  H
  H225     1.0000 0.86193  0.98157  0.78507  Biso   1.000  H
  H226     1.0000 0.31490  0.78630  0.88160  Biso   1.000  H
  H227     1.0000 0.21370  0.52860  0.88160  Biso   1.000  H
  H228     1.0000 0.47140  0.68510  0.88160  Biso   1.000  H
  H229     1.0000 0.98157  0.11963  0.21493  Biso   1.000  H
  H230     1.0000 0.88037  0.86193  0.21493  Biso   1.000  H
  H231     1.0000 0.13807  0.01843  0.21493  Biso   1.000  H
  H232     1.0000 0.64823  0.45297  0.54827  Biso   1.000  H
  H233     1.0000 0.54703  0.19527  0.54827  Biso   1.000  H
  H234     1.0000 0.80473  0.35177  0.54827  Biso   1.000  H
  C199     1.0000 0.61380  0.19310  0.13710  Biso   1.000  C
  C200     1.0000 0.80690  0.42070  0.13710  Biso   1.000  C
  C201     1.0000 0.57930  0.38620  0.13710  Biso   1.000  C
  C202     1.0000 0.28047  0.52643  0.47043  Biso   1.000  C
  C203     1.0000 0.47357  0.75403  0.47043  Biso   1.000  C
  C204     1.0000 0.24597  0.71953  0.47043  Biso   1.000  C
  C205     1.0000 0.94713  0.85977  0.80377  Biso   1.000  C
  C206     1.0000 0.14023  0.08737  0.80377  Biso   1.000  C
  C207     1.0000 0.91263  0.05287  0.80377  Biso   1.000  C
  C208     1.0000 0.38620  0.80690  0.86290  Biso   1.000  C
  C209     1.0000 0.19310  0.57930  0.86290  Biso   1.000  C
  C210     1.0000 0.42070  0.61380  0.86290  Biso   1.000  C
  C211     1.0000 0.05287  0.14023  0.19623  Biso   1.000  C
  C212     1.0000 0.85977  0.91263  0.19623  Biso   1.000  C
  C213     1.0000 0.08737  0.94713  0.19623  Biso   1.000  C
  C214     1.0000 0.71953  0.47357  0.52957  Biso   1.000  C
  C215     1.0000 0.52643  0.24597  0.52957  Biso   1.000  C
  C216     1.0000 0.75403  0.28047  0.52957  Biso   1.000  C
  H235     1.0000 0.61200  0.20160  0.20050  Biso   1.000  H
  H236     1.0000 0.79840  0.41040  0.20050  Biso   1.000  H
  H237     1.0000 0.58960  0.38800  0.20050  Biso   1.000  H
  H238     1.0000 0.27867  0.53493  0.53383  Biso   1.000  H
  H239     1.0000 0.46507  0.74373  0.53383  Biso   1.000  H
  H240     1.0000 0.25627  0.72133  0.53383  Biso   1.000  H
  H241     1.0000 0.94533  0.86827  0.86717  Biso   1.000  H
  H242     1.0000 0.13173  0.07707  0.86717  Biso   1.000  H
  H243     1.0000 0.92293  0.05467  0.86717  Biso   1.000  H
  H244     1.0000 0.38800  0.79840  0.79950  Biso   1.000  H
  H245     1.0000 0.20160  0.58960  0.79950  Biso   1.000  H
  H246     1.0000 0.41040  0.61200  0.79950  Biso   1.000  H
  H247     1.0000 0.05467  0.13173  0.13283  Biso   1.000  H
  H248     1.0000 0.86827  0.92293  0.13283  Biso   1.000  H
  H249     1.0000 0.07707  0.94533  0.13283  Biso   1.000  H
  H250     1.0000 0.72133  0.46507  0.46617  Biso   1.000  H
  H251     1.0000 0.53493  0.25627  0.46617  Biso   1.000  H
  H252     1.0000 0.74373  0.27867  0.46617  Biso   1.000  H
  N145     1.0000 0.70550  0.17840  0.43730  Biso   1.000  N
  N146     1.0000 0.82160  0.52710  0.43730  Biso   1.000  N
  N147     1.0000 0.47290  0.29450  0.43730  Biso   1.000  N
  N148     1.0000 0.37217  0.51173  0.77063  Biso   1.000  N
  N149     1.0000 0.48827  0.86043  0.77063  Biso   1.000  N
  N150     1.0000 0.13957  0.62783  0.77063  Biso   1.000  N
  N151     1.0000 0.03883  0.84507  0.10397  Biso   1.000  N
  N152     1.0000 0.15493  0.19377  0.10397  Biso   1.000  N
  N153     1.0000 0.80623  0.96117  0.10397  Biso   1.000  N
  N154     1.0000 0.29450  0.82160  0.56270  Biso   1.000  N
  N155     1.0000 0.17840  0.47290  0.56270  Biso   1.000  N
  N156     1.0000 0.52710  0.70550  0.56270  Biso   1.000  N
  N157     1.0000 0.96117  0.15493  0.89603  Biso   1.000  N
  N158     1.0000 0.84507  0.80623  0.89603  Biso   1.000  N
  N159     1.0000 0.19377  0.03883  0.89603  Biso   1.000  N
  N160     1.0000 0.62783  0.48827  0.22937  Biso   1.000  N
  N161     1.0000 0.51173  0.13957  0.22937  Biso   1.000  N
  N162     1.0000 0.86043  0.37217  0.22937  Biso   1.000  N
  N163     1.0000 0.74250  0.17040  0.41620  Biso   1.000  N
  N164     1.0000 0.82960  0.57210  0.41620  Biso   1.000  N
  N165     1.0000 0.42790  0.25750  0.41620  Biso   1.000  N
  N166     1.0000 0.40917  0.50373  0.74953  Biso   1.000  N
  N167     1.0000 0.49627  0.90543  0.74953  Biso   1.000  N
  N168     1.0000 0.09457  0.59083  0.74953  Biso   1.000  N
  N169     1.0000 0.07583  0.83707  0.08287  Biso   1.000  N
  N170     1.0000 0.16293  0.23877  0.08287  Biso   1.000  N
  N171     1.0000 0.76123  0.92417  0.08287  Biso   1.000  N
  N172     1.0000 0.25750  0.82960  0.58380  Biso   1.000  N
  N173     1.0000 0.17040  0.42790  0.58380  Biso   1.000  N
  N174     1.0000 0.57210  0.74250  0.58380  Biso   1.000  N
  N175     1.0000 0.92417  0.16293  0.91713  Biso   1.000  N
  N176     1.0000 0.83707  0.76123  0.91713  Biso   1.000  N
  N177     1.0000 0.23877  0.07583  0.91713  Biso   1.000  N
  N178     1.0000 0.59083  0.49627  0.25047  Biso   1.000  N
  N179     1.0000 0.50373  0.09457  0.25047  Biso   1.000  N
  N180     1.0000 0.90543  0.40917  0.25047  Biso   1.000  N
  H253     1.0000 0.75610  0.16200  0.45850  Biso   1.000  H
  H254     1.0000 0.83800  0.59410  0.45850  Biso   1.000  H
  H255     1.0000 0.40590  0.24390  0.45850  Biso   1.000  H
  H256     1.0000 0.42277  0.49533  0.79183  Biso   1.000  H
  H257     1.0000 0.50467  0.92743  0.79183  Biso   1.000  H
  H258     1.0000 0.07257  0.57723  0.79183  Biso   1.000  H
  H259     1.0000 0.08943  0.82867  0.12517  Biso   1.000  H
  H260     1.0000 0.17133  0.26077  0.12517  Biso   1.000  H
  H261     1.0000 0.73923  0.91057  0.12517  Biso   1.000  H
  H262     1.0000 0.24390  0.83800  0.54150  Biso   1.000  H
  H263     1.0000 0.16200  0.40590  0.54150  Biso   1.000  H
  H264     1.0000 0.59410  0.75610  0.54150  Biso   1.000  H
  H265     1.0000 0.91057  0.17133  0.87483  Biso   1.000  H
  H266     1.0000 0.82867  0.73923  0.87483  Biso   1.000  H
  H267     1.0000 0.26077  0.08943  0.87483  Biso   1.000  H
  H268     1.0000 0.57723  0.50467  0.20817  Biso   1.000  H
  H269     1.0000 0.49533  0.07257  0.20817  Biso   1.000  H
  H270     1.0000 0.92743  0.42277  0.20817  Biso   1.000  H
  C217     1.0000 0.69790  0.19060  0.36070  Biso   1.000  C
  C218     1.0000 0.80940  0.50730  0.36070  Biso   1.000  C
  C219     1.0000 0.49270  0.30210  0.36070  Biso   1.000  C
  C220     1.0000 0.36457  0.52393  0.69403  Biso   1.000  C
  C221     1.0000 0.47607  0.84063  0.69403  Biso   1.000  C
  C222     1.0000 0.15937  0.63543  0.69403  Biso   1.000  C
  C223     1.0000 0.03123  0.85727  0.02737  Biso   1.000  C
  C224     1.0000 0.14273  0.17397  0.02737  Biso   1.000  C
  C225     1.0000 0.82603  0.96877  0.02737  Biso   1.000  C
  C226     1.0000 0.30210  0.80940  0.63930  Biso   1.000  C
  C227     1.0000 0.19060  0.49270  0.63930  Biso   1.000  C
  C228     1.0000 0.50730  0.69790  0.63930  Biso   1.000  C
  C229     1.0000 0.96877  0.14273  0.97263  Biso   1.000  C
  C230     1.0000 0.85727  0.82603  0.97263  Biso   1.000  C
  C231     1.0000 0.17397  0.03123  0.97263  Biso   1.000  C
  C232     1.0000 0.63543  0.47607  0.30597  Biso   1.000  C
  C233     1.0000 0.52393  0.15937  0.30597  Biso   1.000  C
  C234     1.0000 0.84063  0.36457  0.30597  Biso   1.000  C
  H271     1.0000 0.67420  0.19820  0.35300  Biso   1.000  H
  H272     1.0000 0.80180  0.47600  0.35300  Biso   1.000  H
  H273     1.0000 0.52400  0.32580  0.35300  Biso   1.000  H
  H274     1.0000 0.34087  0.53153  0.68633  Biso   1.000  H
  H275     1.0000 0.46847  0.80933  0.68633  Biso   1.000  H
  H276     1.0000 0.19067  0.65913  0.68633  Biso   1.000  H
  H277     1.0000 0.00753  0.86487  0.01967  Biso   1.000  H
  H278     1.0000 0.13513  0.14267  0.01967  Biso   1.000  H
  H279     1.0000 0.85733  0.99247  0.01967  Biso   1.000  H
  H280     1.0000 0.32580  0.80180  0.64700  Biso   1.000  H
  H281     1.0000 0.19820  0.52400  0.64700  Biso   1.000  H
  H282     1.0000 0.47600  0.67420  0.64700  Biso   1.000  H
  H283     1.0000 0.99247  0.13513  0.98033  Biso   1.000  H
  H284     1.0000 0.86487  0.85733  0.98033  Biso   1.000  H
  H285     1.0000 0.14267  0.00753  0.98033  Biso   1.000  H
  H286     1.0000 0.65913  0.46847  0.31367  Biso   1.000  H
  H287     1.0000 0.53153  0.19067  0.31367  Biso   1.000  H
  H288     1.0000 0.80933  0.34087  0.31367  Biso   1.000  H
  C235     1.0000 0.75370  0.17690  0.32580  Biso   1.000  C
  C236     1.0000 0.82310  0.57680  0.32580  Biso   1.000  C
  C237     1.0000 0.42320  0.24630  0.32580  Biso   1.000  C
  C238     1.0000 0.42037  0.51023  0.65913  Biso   1.000  C
  C239     1.0000 0.48977  0.91013  0.65913  Biso   1.000  C
  C240     1.0000 0.08987  0.57963  0.65913  Biso   1.000  C
  C241     1.0000 0.08703  0.84357  0.99247  Biso   1.000  C
  C242     1.0000 0.15643  0.24347  0.99247  Biso   1.000  C
  C243     1.0000 0.75653  0.91297  0.99247  Biso   1.000  C
  C244     1.0000 0.24630  0.82310  0.67420  Biso   1.000  C
  C245     1.0000 0.17690  0.42320  0.67420  Biso   1.000  C
  C246     1.0000 0.57680  0.75370  0.67420  Biso   1.000  C
  C247     1.0000 0.91297  0.15643  0.00753  Biso   1.000  C
  C248     1.0000 0.84357  0.75653  0.00753  Biso   1.000  C
  C249     1.0000 0.24347  0.08703  0.00753  Biso   1.000  C
  C250     1.0000 0.57963  0.48977  0.34087  Biso   1.000  C
  C251     1.0000 0.51023  0.08987  0.34087  Biso   1.000  C
  C252     1.0000 0.91013  0.42037  0.34087  Biso   1.000  C
  H289     1.0000 0.77600  0.17200  0.29440  Biso   1.000  H
  H290     1.0000 0.82800  0.60400  0.29440  Biso   1.000  H
  H291     1.0000 0.39600  0.22400  0.29440  Biso   1.000  H
  H292     1.0000 0.44267  0.50533  0.62773  Biso   1.000  H
  H293     1.0000 0.49467  0.93733  0.62773  Biso   1.000  H
  H294     1.0000 0.06267  0.55733  0.62773  Biso   1.000  H
  H295     1.0000 0.10933  0.83867  0.96107  Biso   1.000  H
  H296     1.0000 0.16133  0.27067  0.96107  Biso   1.000  H
  H297     1.0000 0.72933  0.89067  0.96107  Biso   1.000  H
  H298     1.0000 0.22400  0.82800  0.70560  Biso   1.000  H
  H299     1.0000 0.17200  0.39600  0.70560  Biso   1.000  H
  H300     1.0000 0.60400  0.77600  0.70560  Biso   1.000  H
  H301     1.0000 0.89067  0.16133  0.03893  Biso   1.000  H
  H302     1.0000 0.83867  0.72933  0.03893  Biso   1.000  H
  H303     1.0000 0.27067  0.10933  0.03893  Biso   1.000  H
  H304     1.0000 0.55733  0.49467  0.37227  Biso   1.000  H
  H305     1.0000 0.50533  0.06267  0.37227  Biso   1.000  H
  H306     1.0000 0.93733  0.44267  0.37227  Biso   1.000  H
  C253     1.0000 0.72580  0.19280  0.28620  Biso   1.000  C
  C254     1.0000 0.80720  0.53300  0.28620  Biso   1.000  C
  C255     1.0000 0.46700  0.27420  0.28620  Biso   1.000  C
  C256     1.0000 0.39247  0.52613  0.61953  Biso   1.000  C
  C257     1.0000 0.47387  0.86633  0.61953  Biso   1.000  C
  C258     1.0000 0.13367  0.60753  0.61953  Biso   1.000  C
  C259     1.0000 0.05913  0.85947  0.95287  Biso   1.000  C
  C260     1.0000 0.14053  0.19967  0.95287  Biso   1.000  C
  C261     1.0000 0.80033  0.94087  0.95287  Biso   1.000  C
  C262     1.0000 0.27420  0.80720  0.71380  Biso   1.000  C
  C263     1.0000 0.19280  0.46700  0.71380  Biso   1.000  C
  C264     1.0000 0.53300  0.72580  0.71380  Biso   1.000  C
  C265     1.0000 0.94087  0.14053  0.04713  Biso   1.000  C
  C266     1.0000 0.85947  0.80033  0.04713  Biso   1.000  C
  C267     1.0000 0.19967  0.05913  0.04713  Biso   1.000  C
  C268     1.0000 0.60753  0.47387  0.38047  Biso   1.000  C
  C269     1.0000 0.52613  0.13367  0.38047  Biso   1.000  C
  C270     1.0000 0.86633  0.39247  0.38047  Biso   1.000  C
  H307     1.0000 0.72580  0.20260  0.22300  Biso   1.000  H
  H308     1.0000 0.79740  0.52320  0.22300  Biso   1.000  H
  H309     1.0000 0.47680  0.27420  0.22300  Biso   1.000  H
  H310     1.0000 0.39247  0.53593  0.55633  Biso   1.000  H
  H311     1.0000 0.46407  0.85653  0.55633  Biso   1.000  H
  H312     1.0000 0.14347  0.60753  0.55633  Biso   1.000  H
  H313     1.0000 0.05913  0.86927  0.88967  Biso   1.000  H
  H314     1.0000 0.13073  0.18987  0.88967  Biso   1.000  H
  H315     1.0000 0.81013  0.94087  0.88967  Biso   1.000  H
  H316     1.0000 0.27420  0.79740  0.77700  Biso   1.000  H
  H317     1.0000 0.20260  0.47680  0.77700  Biso   1.000  H
  H318     1.0000 0.52320  0.72580  0.77700  Biso   1.000  H
  H319     1.0000 0.94087  0.13073  0.11033  Biso   1.000  H
  H320     1.0000 0.86927  0.81013  0.11033  Biso   1.000  H
  H321     1.0000 0.18987  0.05913  0.11033  Biso   1.000  H
  H322     1.0000 0.60753  0.46407  0.44367  Biso   1.000  H
  H323     1.0000 0.53593  0.14347  0.44367  Biso   1.000  H
  H324     1.0000 0.85653  0.39247  0.44367  Biso   1.000  H
  Cu55     1.0000 0.50000  0.00000  0.00000  Biso   1.000  Cu
  Cu56     1.0000 0.00000  0.50000  0.00000  Biso   1.000  Cu
  Cu57     1.0000 0.50000  0.50000  0.00000  Biso   1.000  Cu
  Cu58     1.0000 0.16667  0.33333  0.33333  Biso   1.000  Cu
  Cu59     1.0000 0.66667  0.83333  0.33333  Biso   1.000  Cu
  Cu60     1.0000 0.16667  0.83333  0.33333  Biso   1.000  Cu
  Cu61     1.0000 0.83333  0.66667  0.66667  Biso   1.000  Cu
  Cu62     1.0000 0.33333  0.16667  0.66667  Biso   1.000  Cu
  Cu63     1.0000 0.83333  0.16667  0.66667  Biso   1.000  Cu
  N181     1.0000 0.45600  0.97200  0.89120  Biso   1.000  N
  N182     1.0000 0.02800  0.48400  0.89120  Biso   1.000  N
  N183     1.0000 0.51600  0.54400  0.89120  Biso   1.000  N
  N184     1.0000 0.12267  0.30533  0.22453  Biso   1.000  N
  N185     1.0000 0.69467  0.81733  0.22453  Biso   1.000  N
  N186     1.0000 0.18267  0.87733  0.22453  Biso   1.000  N
  N187     1.0000 0.78933  0.63867  0.55787  Biso   1.000  N
  N188     1.0000 0.36133  0.15067  0.55787  Biso   1.000  N
  N189     1.0000 0.84933  0.21067  0.55787  Biso   1.000  N
  N190     1.0000 0.54400  0.02800  0.10880  Biso   1.000  N
  N191     1.0000 0.97200  0.51600  0.10880  Biso   1.000  N
  N192     1.0000 0.48400  0.45600  0.10880  Biso   1.000  N
  N193     1.0000 0.21067  0.36133  0.44213  Biso   1.000  N
  N194     1.0000 0.63867  0.84933  0.44213  Biso   1.000  N
  N195     1.0000 0.15067  0.78933  0.44213  Biso   1.000  N
  N196     1.0000 0.87733  0.69467  0.77547  Biso   1.000  N
  N197     1.0000 0.30533  0.18267  0.77547  Biso   1.000  N
  N198     1.0000 0.81733  0.12267  0.77547  Biso   1.000  N
  N199     1.0000 0.45520  0.98980  0.80470  Biso   1.000  N
  N200     1.0000 0.01020  0.46540  0.80470  Biso   1.000  N
  N201     1.0000 0.53460  0.54480  0.80470  Biso   1.000  N
  N202     1.0000 0.12187  0.32313  0.13803  Biso   1.000  N
  N203     1.0000 0.67687  0.79873  0.13803  Biso   1.000  N
  N204     1.0000 0.20127  0.87813  0.13803  Biso   1.000  N
  N205     1.0000 0.78853  0.65647  0.47137  Biso   1.000  N
  N206     1.0000 0.34353  0.13207  0.47137  Biso   1.000  N
  N207     1.0000 0.86793  0.21147  0.47137  Biso   1.000  N
  N208     1.0000 0.54480  0.01020  0.19530  Biso   1.000  N
  N209     1.0000 0.98980  0.53460  0.19530  Biso   1.000  N
  N210     1.0000 0.46540  0.45520  0.19530  Biso   1.000  N
  N211     1.0000 0.21147  0.34353  0.52863  Biso   1.000  N
  N212     1.0000 0.65647  0.86793  0.52863  Biso   1.000  N
  N213     1.0000 0.13207  0.78853  0.52863  Biso   1.000  N
  N214     1.0000 0.87813  0.67687  0.86197  Biso   1.000  N
  N215     1.0000 0.32313  0.20127  0.86197  Biso   1.000  N
  N216     1.0000 0.79873  0.12187  0.86197  Biso   1.000  N
  H325     1.0000 0.47610  0.01700  0.78350  Biso   1.000  H
  H326     1.0000 0.98300  0.45910  0.78350  Biso   1.000  H
  H327     1.0000 0.54090  0.52390  0.78350  Biso   1.000  H
  H328     1.0000 0.14277  0.35033  0.11683  Biso   1.000  H
  H329     1.0000 0.64967  0.79243  0.11683  Biso   1.000  H
  H330     1.0000 0.20757  0.85723  0.11683  Biso   1.000  H
  H331     1.0000 0.80943  0.68367  0.45017  Biso   1.000  H
  H332     1.0000 0.31633  0.12577  0.45017  Biso   1.000  H
  H333     1.0000 0.87423  0.19057  0.45017  Biso   1.000  H
  H334     1.0000 0.52390  0.98300  0.21650  Biso   1.000  H
  H335     1.0000 0.01700  0.54090  0.21650  Biso   1.000  H
  H336     1.0000 0.45910  0.47610  0.21650  Biso   1.000  H
  H337     1.0000 0.19057  0.31633  0.54983  Biso   1.000  H
  H338     1.0000 0.68367  0.87423  0.54983  Biso   1.000  H
  H339     1.0000 0.12577  0.80943  0.54983  Biso   1.000  H
  H340     1.0000 0.85723  0.64967  0.88317  Biso   1.000  H
  H341     1.0000 0.35033  0.20757  0.88317  Biso   1.000  H
  H342     1.0000 0.79243  0.14277  0.88317  Biso   1.000  H
  C271     1.0000 0.41720  0.92920  0.89480  Biso   1.000  C
  C272     1.0000 0.07080  0.48800  0.89480  Biso   1.000  C
  C273     1.0000 0.51200  0.58280  0.89480  Biso   1.000  C
  C274     1.0000 0.08387  0.26253  0.22813  Biso   1.000  C
  C275     1.0000 0.73747  0.82133  0.22813  Biso   1.000  C
  C276     1.0000 0.17867  0.91613  0.22813  Biso   1.000  C
  C277     1.0000 0.75053  0.59587  0.56147  Biso   1.000  C
  C278     1.0000 0.40413  0.15467  0.56147  Biso   1.000  C
  C279     1.0000 0.84533  0.24947  0.56147  Biso   1.000  C
  C280     1.0000 0.58280  0.07080  0.10520  Biso   1.000  C
  C281     1.0000 0.92920  0.51200  0.10520  Biso   1.000  C
  C282     1.0000 0.48800  0.41720  0.10520  Biso   1.000  C
  C283     1.0000 0.24947  0.40413  0.43853  Biso   1.000  C
  C284     1.0000 0.59587  0.84533  0.43853  Biso   1.000  C
  C285     1.0000 0.15467  0.75053  0.43853  Biso   1.000  C
  C286     1.0000 0.91613  0.73747  0.77187  Biso   1.000  C
  C287     1.0000 0.26253  0.17867  0.77187  Biso   1.000  C
  C288     1.0000 0.82133  0.08387  0.77187  Biso   1.000  C
  H343     1.0000 0.40870  0.90890  0.94760  Biso   1.000  H
  H344     1.0000 0.09110  0.49980  0.94760  Biso   1.000  H
  H345     1.0000 0.50020  0.59130  0.94760  Biso   1.000  H
  H346     1.0000 0.07537  0.24223  0.28093  Biso   1.000  H
  H347     1.0000 0.75777  0.83313  0.28093  Biso   1.000  H
  H348     1.0000 0.16687  0.92463  0.28093  Biso   1.000  H
  H349     1.0000 0.74203  0.57557  0.61427  Biso   1.000  H
  H350     1.0000 0.42443  0.16647  0.61427  Biso   1.000  H
  H351     1.0000 0.83353  0.25797  0.61427  Biso   1.000  H
  H352     1.0000 0.59130  0.09110  0.05240  Biso   1.000  H
  H353     1.0000 0.90890  0.50020  0.05240  Biso   1.000  H
  H354     1.0000 0.49980  0.40870  0.05240  Biso   1.000  H
  H355     1.0000 0.25797  0.42443  0.38573  Biso   1.000  H
  H356     1.0000 0.57557  0.83353  0.38573  Biso   1.000  H
  H357     1.0000 0.16647  0.74203  0.38573  Biso   1.000  H
  H358     1.0000 0.92463  0.75777  0.71907  Biso   1.000  H
  H359     1.0000 0.24223  0.16687  0.71907  Biso   1.000  H
  H360     1.0000 0.83313  0.07537  0.71907  Biso   1.000  H
  C289     1.0000 0.39210  0.91930  0.81280  Biso   1.000  C
  C290     1.0000 0.08070  0.47280  0.81280  Biso   1.000  C
  C291     1.0000 0.52720  0.60790  0.81280  Biso   1.000  C
  C292     1.0000 0.05877  0.25263  0.14613  Biso   1.000  C
  C293     1.0000 0.74737  0.80613  0.14613  Biso   1.000  C
  C294     1.0000 0.19387  0.94123  0.14613  Biso   1.000  C
  C295     1.0000 0.72543  0.58597  0.47947  Biso   1.000  C
  C296     1.0000 0.41403  0.13947  0.47947  Biso   1.000  C
  C297     1.0000 0.86053  0.27457  0.47947  Biso   1.000  C
  C298     1.0000 0.60790  0.08070  0.18720  Biso   1.000  C
  C299     1.0000 0.91930  0.52720  0.18720  Biso   1.000  C
  C300     1.0000 0.47280  0.39210  0.18720  Biso   1.000  C
  C301     1.0000 0.27457  0.41403  0.52053  Biso   1.000  C
  C302     1.0000 0.58597  0.86053  0.52053  Biso   1.000  C
  C303     1.0000 0.13947  0.72543  0.52053  Biso   1.000  C
  C304     1.0000 0.94123  0.74737  0.85387  Biso   1.000  C
  C305     1.0000 0.25263  0.19387  0.85387  Biso   1.000  C
  C306     1.0000 0.80613  0.05877  0.85387  Biso   1.000  C
  H361     1.0000 0.36420  0.89160  0.79900  Biso   1.000  H
  H362     1.0000 0.10840  0.47260  0.79900  Biso   1.000  H
  H363     1.0000 0.52740  0.63580  0.79900  Biso   1.000  H
  H364     1.0000 0.03087  0.22493  0.13233  Biso   1.000  H
  H365     1.0000 0.77507  0.80593  0.13233  Biso   1.000  H
  H366     1.0000 0.19407  0.96913  0.13233  Biso   1.000  H
  H367     1.0000 0.69753  0.55827  0.46567  Biso   1.000  H
  H368     1.0000 0.44173  0.13927  0.46567  Biso   1.000  H
  H369     1.0000 0.86073  0.30247  0.46567  Biso   1.000  H
  H370     1.0000 0.63580  0.10840  0.20100  Biso   1.000  H
  H371     1.0000 0.89160  0.52740  0.20100  Biso   1.000  H
  H372     1.0000 0.47260  0.36420  0.20100  Biso   1.000  H
  H373     1.0000 0.30247  0.44173  0.53433  Biso   1.000  H
  H374     1.0000 0.55827  0.86073  0.53433  Biso   1.000  H
  H375     1.0000 0.13927  0.69753  0.53433  Biso   1.000  H
  H376     1.0000 0.96913  0.77507  0.86767  Biso   1.000  H
  H377     1.0000 0.22493  0.19407  0.86767  Biso   1.000  H
  H378     1.0000 0.80593  0.03087  0.86767  Biso   1.000  H
  C307     1.0000 0.41490  0.95700  0.75380  Biso   1.000  C
  C308     1.0000 0.04300  0.45790  0.75380  Biso   1.000  C
  C309     1.0000 0.54210  0.58510  0.75380  Biso   1.000  C
  C310     1.0000 0.08157  0.29033  0.08713  Biso   1.000  C
  C311     1.0000 0.70967  0.79123  0.08713  Biso   1.000  C
  C312     1.0000 0.20877  0.91843  0.08713  Biso   1.000  C
  C313     1.0000 0.74823  0.62367  0.42047  Biso   1.000  C
  C314     1.0000 0.37633  0.12457  0.42047  Biso   1.000  C
  C315     1.0000 0.87543  0.25177  0.42047  Biso   1.000  C
  C316     1.0000 0.58510  0.04300  0.24620  Biso   1.000  C
  C317     1.0000 0.95700  0.54210  0.24620  Biso   1.000  C
  C318     1.0000 0.45790  0.41490  0.24620  Biso   1.000  C
  C319     1.0000 0.25177  0.37633  0.57953  Biso   1.000  C
  C320     1.0000 0.62367  0.87543  0.57953  Biso   1.000  C
  C321     1.0000 0.12457  0.74823  0.57953  Biso   1.000  C
  C322     1.0000 0.91843  0.70967  0.91287  Biso   1.000  C
  C323     1.0000 0.29033  0.20877  0.91287  Biso   1.000  C
  C324     1.0000 0.79123  0.08157  0.91287  Biso   1.000  C
  H379     1.0000 0.40580  0.96060  0.69210  Biso   1.000  H
  H380     1.0000 0.03940  0.44520  0.69210  Biso   1.000  H
  H381     1.0000 0.55480  0.59420  0.69210  Biso   1.000  H
  H382     1.0000 0.07247  0.29393  0.02543  Biso   1.000  H
  H383     1.0000 0.70607  0.77853  0.02543  Biso   1.000  H
  H384     1.0000 0.22147  0.92753  0.02543  Biso   1.000  H
  H385     1.0000 0.73913  0.62727  0.35877  Biso   1.000  H
  H386     1.0000 0.37273  0.11187  0.35877  Biso   1.000  H
  H387     1.0000 0.88813  0.26087  0.35877  Biso   1.000  H
  H388     1.0000 0.59420  0.03940  0.30790  Biso   1.000  H
  H389     1.0000 0.96060  0.55480  0.30790  Biso   1.000  H
  H390     1.0000 0.44520  0.40580  0.30790  Biso   1.000  H
  H391     1.0000 0.26087  0.37273  0.64123  Biso   1.000  H
  H392     1.0000 0.62727  0.88813  0.64123  Biso   1.000  H
  H393     1.0000 0.11187  0.73913  0.64123  Biso   1.000  H
  H394     1.0000 0.92753  0.70607  0.97457  Biso   1.000  H
  H395     1.0000 0.29393  0.22147  0.97457  Biso   1.000  H
  H396     1.0000 0.77853  0.07247  0.97457  Biso   1.000  H
