data_image0
_cell_length_a       34.8581
_cell_length_b       20.3238
_cell_length_c       30.9326
_cell_angle_alpha    90
_cell_angle_beta     97.984
_cell_angle_gamma    90

_symmetry_space_group_name_H-M    "P 1"
_symmetry_int_tables_number       1

loop_
  _symmetry_equiv_pos_as_xyz
  'x, y, z'

loop_
  _atom_site_label
  _atom_site_occupancy
  _atom_site_fract_x
  _atom_site_fract_y
  _atom_site_fract_z
  _atom_site_thermal_displace_type
  _atom_site_B_iso_or_equiv
  _atom_site_type_symbol
  Cu1      1.0000 0.25034  0.61744  0.74723  Biso   1.000  Cu
  Cu2      1.0000 0.74965  0.61744  0.75277  Biso   1.000  Cu
  Cu3      1.0000 0.75035  0.11744  0.74723  Biso   1.000  Cu
  Cu4      1.0000 0.24966  0.11744  0.75277  Biso   1.000  Cu
  Cu5      1.0000 0.74965  0.38256  0.25277  Biso   1.000  Cu
  Cu6      1.0000 0.25034  0.38256  0.24723  Biso   1.000  Cu
  Cu7      1.0000 0.24966  0.88256  0.25277  Biso   1.000  Cu
  Cu8      1.0000 0.75035  0.88256  0.24723  Biso   1.000  Cu
  O1       1.0000 0.22003  0.51780  0.77157  Biso   1.000  O
  O2       1.0000 0.77997  0.51780  0.72843  Biso   1.000  O
  O3       1.0000 0.72003  0.01780  0.77157  Biso   1.000  O
  O4       1.0000 0.27997  0.01780  0.72843  Biso   1.000  O
  O5       1.0000 0.77997  0.48220  0.22843  Biso   1.000  O
  O6       1.0000 0.22003  0.48220  0.27157  Biso   1.000  O
  O7       1.0000 0.27997  0.98220  0.22843  Biso   1.000  O
  O8       1.0000 0.72003  0.98220  0.27157  Biso   1.000  O
  O9       1.0000 0.28206  0.71530  0.72254  Biso   1.000  O
  O10      1.0000 0.71794  0.71530  0.77746  Biso   1.000  O
  O11      1.0000 0.78206  0.21530  0.72254  Biso   1.000  O
  O12      1.0000 0.21794  0.21530  0.77746  Biso   1.000  O
  O13      1.0000 0.71794  0.28470  0.27746  Biso   1.000  O
  O14      1.0000 0.28206  0.28470  0.22254  Biso   1.000  O
  O15      1.0000 0.21794  0.78470  0.27746  Biso   1.000  O
  O16      1.0000 0.78206  0.78470  0.22254  Biso   1.000  O
  N1       1.0000 0.29746  0.59790  0.79269  Biso   1.000  N
  N2       1.0000 0.70254  0.59790  0.70731  Biso   1.000  N
  N3       1.0000 0.79746  0.09790  0.79269  Biso   1.000  N
  N4       1.0000 0.20254  0.09790  0.70731  Biso   1.000  N
  N5       1.0000 0.70254  0.40210  0.20731  Biso   1.000  N
  N6       1.0000 0.29746  0.40210  0.29269  Biso   1.000  N
  N7       1.0000 0.20254  0.90210  0.20731  Biso   1.000  N
  N8       1.0000 0.79746  0.90210  0.29269  Biso   1.000  N
  N9       1.0000 0.72631  0.56790  0.79895  Biso   1.000  N
  N10      1.0000 0.27369  0.56790  0.70105  Biso   1.000  N
  N11      1.0000 0.22631  0.06790  0.79895  Biso   1.000  N
  N12      1.0000 0.77369  0.06790  0.70105  Biso   1.000  N
  N13      1.0000 0.27369  0.43210  0.20105  Biso   1.000  N
  N14      1.0000 0.72631  0.43210  0.29895  Biso   1.000  N
  N15      1.0000 0.77369  0.93210  0.20105  Biso   1.000  N
  N16      1.0000 0.22631  0.93210  0.29895  Biso   1.000  N
  N17      1.0000 0.72801  0.17390  0.79191  Biso   1.000  N
  N18      1.0000 0.27199  0.17390  0.70809  Biso   1.000  N
  N19      1.0000 0.22801  0.67390  0.79191  Biso   1.000  N
  N20      1.0000 0.77199  0.67390  0.70809  Biso   1.000  N
  N21      1.0000 0.27199  0.82610  0.20809  Biso   1.000  N
  N22      1.0000 0.72801  0.82610  0.29191  Biso   1.000  N
  N23      1.0000 0.77199  0.32610  0.20809  Biso   1.000  N
  N24      1.0000 0.22801  0.32610  0.29191  Biso   1.000  N
  N25      1.0000 0.29846  0.13130  0.79505  Biso   1.000  N
  N26      1.0000 0.70154  0.13130  0.70495  Biso   1.000  N
  N27      1.0000 0.79846  0.63130  0.79505  Biso   1.000  N
  N28      1.0000 0.20154  0.63130  0.70495  Biso   1.000  N
  N29      1.0000 0.70154  0.86870  0.20495  Biso   1.000  N
  N30      1.0000 0.29846  0.86870  0.29505  Biso   1.000  N
  N31      1.0000 0.20154  0.36870  0.20495  Biso   1.000  N
  N32      1.0000 0.79846  0.36870  0.29505  Biso   1.000  N
  C1       1.0000 0.33346  0.60300  0.78471  Biso   1.000  C
  C2       1.0000 0.66654  0.60300  0.71529  Biso   1.000  C
  C3       1.0000 0.83346  0.10300  0.78471  Biso   1.000  C
  C4       1.0000 0.16654  0.10300  0.71529  Biso   1.000  C
  C5       1.0000 0.66654  0.39700  0.21529  Biso   1.000  C
  C6       1.0000 0.33346  0.39700  0.28471  Biso   1.000  C
  C7       1.0000 0.16654  0.89700  0.21529  Biso   1.000  C
  C8       1.0000 0.83346  0.89700  0.28471  Biso   1.000  C
  C9       1.0000 0.29055  0.57430  0.83115  Biso   1.000  C
  C10      1.0000 0.70945  0.57430  0.66885  Biso   1.000  C
  C11      1.0000 0.79055  0.07430  0.83115  Biso   1.000  C
  C12      1.0000 0.20945  0.07430  0.66885  Biso   1.000  C
  C13      1.0000 0.70945  0.42570  0.16885  Biso   1.000  C
  C14      1.0000 0.29055  0.42570  0.33115  Biso   1.000  C
  C15      1.0000 0.20945  0.92570  0.16885  Biso   1.000  C
  C16      1.0000 0.79055  0.92570  0.33115  Biso   1.000  C
  C17      1.0000 0.71011  0.50680  0.79166  Biso   1.000  C
  C18      1.0000 0.28989  0.50680  0.70834  Biso   1.000  C
  C19      1.0000 0.21011  0.00680  0.79166  Biso   1.000  C
  C20      1.0000 0.78989  0.00680  0.70834  Biso   1.000  C
  C21      1.0000 0.28989  0.49320  0.20834  Biso   1.000  C
  C22      1.0000 0.71011  0.49320  0.29166  Biso   1.000  C
  C23      1.0000 0.78989  0.99320  0.20834  Biso   1.000  C
  C24      1.0000 0.21011  0.99320  0.29166  Biso   1.000  C
  C25      1.0000 0.72714  0.59370  0.83891  Biso   1.000  C
  C26      1.0000 0.27286  0.59370  0.66109  Biso   1.000  C
  C27      1.0000 0.22714  0.09370  0.83891  Biso   1.000  C
  C28      1.0000 0.77286  0.09370  0.66109  Biso   1.000  C
  C29      1.0000 0.27286  0.40630  0.16109  Biso   1.000  C
  C30      1.0000 0.72714  0.40630  0.33891  Biso   1.000  C
  C31      1.0000 0.77286  0.90630  0.16109  Biso   1.000  C
  C32      1.0000 0.22714  0.90630  0.33891  Biso   1.000  C
  C33      1.0000 0.36462  0.58550  0.81433  Biso   1.000  C
  C34      1.0000 0.63538  0.58550  0.68567  Biso   1.000  C
  C35      1.0000 0.86462  0.08550  0.81433  Biso   1.000  C
  C36      1.0000 0.13538  0.08550  0.68567  Biso   1.000  C
  C37      1.0000 0.63538  0.41450  0.18567  Biso   1.000  C
  C38      1.0000 0.36462  0.41450  0.31433  Biso   1.000  C
  C39      1.0000 0.13538  0.91450  0.18567  Biso   1.000  C
  C40      1.0000 0.86462  0.91450  0.31433  Biso   1.000  C
  H1       1.0000 0.33800  0.61970  0.75720  Biso   1.000  H
  H2       1.0000 0.66200  0.61970  0.74280  Biso   1.000  H
  H3       1.0000 0.83800  0.11970  0.75720  Biso   1.000  H
  H4       1.0000 0.16200  0.11970  0.74280  Biso   1.000  H
  H5       1.0000 0.66200  0.38030  0.24280  Biso   1.000  H
  H6       1.0000 0.33800  0.38030  0.25720  Biso   1.000  H
  H7       1.0000 0.16200  0.88030  0.24280  Biso   1.000  H
  H8       1.0000 0.83800  0.88030  0.25720  Biso   1.000  H
  H9       1.0000 0.26450  0.56960  0.83660  Biso   1.000  H
  H10      1.0000 0.73550  0.56960  0.66340  Biso   1.000  H
  H11      1.0000 0.76450  0.06960  0.83660  Biso   1.000  H
  H12      1.0000 0.23550  0.06960  0.66340  Biso   1.000  H
  H13      1.0000 0.73550  0.43040  0.16340  Biso   1.000  H
  H14      1.0000 0.26450  0.43040  0.33660  Biso   1.000  H
  H15      1.0000 0.23550  0.93040  0.16340  Biso   1.000  H
  H16      1.0000 0.76450  0.93040  0.33660  Biso   1.000  H
  C41      1.0000 0.32030  0.55660  0.86305  Biso   1.000  C
  C42      1.0000 0.67970  0.55660  0.63695  Biso   1.000  C
  C43      1.0000 0.82030  0.05660  0.86305  Biso   1.000  C
  C44      1.0000 0.17970  0.05660  0.63695  Biso   1.000  C
  C45      1.0000 0.67970  0.44340  0.13695  Biso   1.000  C
  C46      1.0000 0.32030  0.44340  0.36305  Biso   1.000  C
  C47      1.0000 0.17970  0.94340  0.13695  Biso   1.000  C
  C48      1.0000 0.82030  0.94340  0.36305  Biso   1.000  C
  C49      1.0000 0.69295  0.47510  0.82242  Biso   1.000  C
  C50      1.0000 0.30705  0.47510  0.67758  Biso   1.000  C
  C51      1.0000 0.19295  0.97510  0.82242  Biso   1.000  C
  C52      1.0000 0.80705  0.97510  0.67758  Biso   1.000  C
  C53      1.0000 0.30705  0.52490  0.17758  Biso   1.000  C
  C54      1.0000 0.69295  0.52490  0.32242  Biso   1.000  C
  C55      1.0000 0.80705  0.02490  0.17758  Biso   1.000  C
  C56      1.0000 0.19295  0.02490  0.32242  Biso   1.000  C
  H17      1.0000 0.71090  0.48610  0.76430  Biso   1.000  H
  H18      1.0000 0.28910  0.48610  0.73570  Biso   1.000  H
  H19      1.0000 0.21090  0.98610  0.76430  Biso   1.000  H
  H20      1.0000 0.78910  0.98610  0.73570  Biso   1.000  H
  H21      1.0000 0.28910  0.51390  0.23570  Biso   1.000  H
  H22      1.0000 0.71090  0.51390  0.26430  Biso   1.000  H
  H23      1.0000 0.78910  0.01390  0.23570  Biso   1.000  H
  H24      1.0000 0.21090  0.01390  0.26430  Biso   1.000  H
  H25      1.0000 0.73920  0.63520  0.84510  Biso   1.000  H
  H26      1.0000 0.26080  0.63520  0.65490  Biso   1.000  H
  H27      1.0000 0.23920  0.13520  0.84510  Biso   1.000  H
  H28      1.0000 0.76080  0.13520  0.65490  Biso   1.000  H
  H29      1.0000 0.26080  0.36480  0.15490  Biso   1.000  H
  H30      1.0000 0.73920  0.36480  0.34510  Biso   1.000  H
  H31      1.0000 0.76080  0.86480  0.15490  Biso   1.000  H
  H32      1.0000 0.23920  0.86480  0.34510  Biso   1.000  H
  C57      1.0000 0.71088  0.56150  0.87149  Biso   1.000  C
  C58      1.0000 0.28912  0.56150  0.62851  Biso   1.000  C
  C59      1.0000 0.21088  0.06150  0.87149  Biso   1.000  C
  C60      1.0000 0.78912  0.06150  0.62851  Biso   1.000  C
  C61      1.0000 0.28912  0.43850  0.12851  Biso   1.000  C
  C62      1.0000 0.71088  0.43850  0.37149  Biso   1.000  C
  C63      1.0000 0.78912  0.93850  0.12851  Biso   1.000  C
  C64      1.0000 0.21088  0.93850  0.37149  Biso   1.000  C
  C65      1.0000 0.35789  0.55950  0.85428  Biso   1.000  C
  C66      1.0000 0.64211  0.55950  0.64572  Biso   1.000  C
  C67      1.0000 0.85789  0.05950  0.85428  Biso   1.000  C
  C68      1.0000 0.14211  0.05950  0.64572  Biso   1.000  C
  C69      1.0000 0.64211  0.44050  0.14572  Biso   1.000  C
  C70      1.0000 0.35789  0.44050  0.35428  Biso   1.000  C
  C71      1.0000 0.14211  0.94050  0.14572  Biso   1.000  C
  C72      1.0000 0.85789  0.94050  0.35428  Biso   1.000  C
  H33      1.0000 0.39030  0.59080  0.80780  Biso   1.000  H
  H34      1.0000 0.60970  0.59080  0.69220  Biso   1.000  H
  H35      1.0000 0.89030  0.09080  0.80780  Biso   1.000  H
  H36      1.0000 0.10970  0.09080  0.69220  Biso   1.000  H
  H37      1.0000 0.60970  0.40920  0.19220  Biso   1.000  H
  H38      1.0000 0.39030  0.40920  0.30780  Biso   1.000  H
  H39      1.0000 0.10970  0.90920  0.19220  Biso   1.000  H
  H40      1.0000 0.89030  0.90920  0.30780  Biso   1.000  H
  H41      1.0000 0.31490  0.54260  0.89090  Biso   1.000  H
  H42      1.0000 0.68510  0.54260  0.60910  Biso   1.000  H
  H43      1.0000 0.81490  0.04260  0.89090  Biso   1.000  H
  H44      1.0000 0.18510  0.04260  0.60910  Biso   1.000  H
  H45      1.0000 0.68510  0.45740  0.10910  Biso   1.000  H
  H46      1.0000 0.31490  0.45740  0.39090  Biso   1.000  H
  H47      1.0000 0.18510  0.95740  0.10910  Biso   1.000  H
  H48      1.0000 0.81490  0.95740  0.39090  Biso   1.000  H
  C73      1.0000 0.69351  0.50190  0.86256  Biso   1.000  C
  C74      1.0000 0.30649  0.50190  0.63744  Biso   1.000  C
  C75      1.0000 0.19351  0.00190  0.86256  Biso   1.000  C
  C76      1.0000 0.80649  0.00190  0.63744  Biso   1.000  C
  C77      1.0000 0.30649  0.49810  0.13744  Biso   1.000  C
  C78      1.0000 0.69351  0.49810  0.36256  Biso   1.000  C
  C79      1.0000 0.80649  0.99810  0.13744  Biso   1.000  C
  C80      1.0000 0.19351  0.99810  0.36256  Biso   1.000  C
  H49      1.0000 0.68050  0.43410  0.81580  Biso   1.000  H
  H50      1.0000 0.31950  0.43410  0.68420  Biso   1.000  H
  H51      1.0000 0.18050  0.93410  0.81580  Biso   1.000  H
  H52      1.0000 0.81950  0.93410  0.68420  Biso   1.000  H
  H53      1.0000 0.31950  0.56590  0.18420  Biso   1.000  H
  H54      1.0000 0.68050  0.56590  0.31580  Biso   1.000  H
  H55      1.0000 0.81950  0.06590  0.18420  Biso   1.000  H
  H56      1.0000 0.18050  0.06590  0.31580  Biso   1.000  H
  H57      1.0000 0.71180  0.58070  0.89960  Biso   1.000  H
  H58      1.0000 0.28820  0.58070  0.60040  Biso   1.000  H
  H59      1.0000 0.21180  0.08070  0.89960  Biso   1.000  H
  H60      1.0000 0.78820  0.08070  0.60040  Biso   1.000  H
  H61      1.0000 0.28820  0.41930  0.10040  Biso   1.000  H
  H62      1.0000 0.71180  0.41930  0.39960  Biso   1.000  H
  H63      1.0000 0.78820  0.91930  0.10040  Biso   1.000  H
  H64      1.0000 0.21180  0.91930  0.39960  Biso   1.000  H
  C81      1.0000 0.38949  0.53990  0.88864  Biso   1.000  C
  C82      1.0000 0.61051  0.53990  0.61136  Biso   1.000  C
  C83      1.0000 0.88949  0.03990  0.88864  Biso   1.000  C
  C84      1.0000 0.11051  0.03990  0.61136  Biso   1.000  C
  C85      1.0000 0.61051  0.46010  0.11136  Biso   1.000  C
  C86      1.0000 0.38949  0.46010  0.38864  Biso   1.000  C
  C87      1.0000 0.11051  0.96010  0.11136  Biso   1.000  C
  C88      1.0000 0.88949  0.96010  0.38864  Biso   1.000  C
  C89      1.0000 0.67514  0.47070  0.89864  Biso   1.000  C
  C90      1.0000 0.32486  0.47070  0.60136  Biso   1.000  C
  C91      1.0000 0.17514  0.97070  0.89864  Biso   1.000  C
  C92      1.0000 0.82486  0.97070  0.60136  Biso   1.000  C
  C93      1.0000 0.32486  0.52930  0.10136  Biso   1.000  C
  C94      1.0000 0.67514  0.52930  0.39864  Biso   1.000  C
  C95      1.0000 0.82486  0.02930  0.10136  Biso   1.000  C
  C96      1.0000 0.17514  0.02930  0.39864  Biso   1.000  C
  O17      1.0000 0.42169  0.52229  0.87223  Biso   1.000  O
  O18      1.0000 0.57831  0.52229  0.62777  Biso   1.000  O
  O19      1.0000 0.92169  0.02229  0.87223  Biso   1.000  O
  O20      1.0000 0.07831  0.02229  0.62777  Biso   1.000  O
  O21      1.0000 0.57831  0.47771  0.12777  Biso   1.000  O
  O22      1.0000 0.42169  0.47771  0.37223  Biso   1.000  O
  O23      1.0000 0.07831  0.97771  0.12777  Biso   1.000  O
  O24      1.0000 0.92169  0.97771  0.37223  Biso   1.000  O
  O25      1.0000 0.38597  0.53721  0.92725  Biso   1.000  O
  O26      1.0000 0.61403  0.53721  0.57275  Biso   1.000  O
  O27      1.0000 0.88597  0.03721  0.92725  Biso   1.000  O
  O28      1.0000 0.11403  0.03721  0.57275  Biso   1.000  O
  O29      1.0000 0.61403  0.46279  0.07275  Biso   1.000  O
  O30      1.0000 0.38597  0.46279  0.42725  Biso   1.000  O
  O31      1.0000 0.11403  0.96279  0.07275  Biso   1.000  O
  O32      1.0000 0.88597  0.96279  0.42725  Biso   1.000  O
  O33      1.0000 0.64826  0.42625  0.88150  Biso   1.000  O
  O34      1.0000 0.35174  0.42625  0.61850  Biso   1.000  O
  O35      1.0000 0.14826  0.92625  0.88150  Biso   1.000  O
  O36      1.0000 0.85174  0.92625  0.61850  Biso   1.000  O
  O37      1.0000 0.35174  0.57375  0.11850  Biso   1.000  O
  O38      1.0000 0.64826  0.57375  0.38150  Biso   1.000  O
  O39      1.0000 0.85174  0.07375  0.11850  Biso   1.000  O
  O40      1.0000 0.14826  0.07375  0.38150  Biso   1.000  O
  O41      1.0000 0.68390  0.48195  0.93635  Biso   1.000  O
  O42      1.0000 0.31610  0.48195  0.56365  Biso   1.000  O
  O43      1.0000 0.18390  0.98195  0.93635  Biso   1.000  O
  O44      1.0000 0.81610  0.98195  0.56365  Biso   1.000  O
  O45      1.0000 0.31610  0.51805  0.06365  Biso   1.000  O
  O46      1.0000 0.68390  0.51805  0.43635  Biso   1.000  O
  O47      1.0000 0.81610  0.01805  0.06365  Biso   1.000  O
  O48      1.0000 0.18390  0.01805  0.43635  Biso   1.000  O
  C97      1.0000 0.45361  0.50125  0.90173  Biso   1.000  C
  C98      1.0000 0.54639  0.50125  0.59827  Biso   1.000  C
  C99      1.0000 0.95361  0.00125  0.90173  Biso   1.000  C
  C100     1.0000 0.04639  0.00125  0.59827  Biso   1.000  C
  C101     1.0000 0.54639  0.49875  0.09827  Biso   1.000  C
  C102     1.0000 0.45361  0.49875  0.40173  Biso   1.000  C
  C103     1.0000 0.04639  0.99875  0.09827  Biso   1.000  C
  C104     1.0000 0.95361  0.99875  0.40173  Biso   1.000  C
  C105     1.0000 0.62671  0.39493  0.91013  Biso   1.000  C
  C106     1.0000 0.37329  0.39493  0.58987  Biso   1.000  C
  C107     1.0000 0.12671  0.89493  0.91013  Biso   1.000  C
  C108     1.0000 0.87329  0.89493  0.58987  Biso   1.000  C
  C109     1.0000 0.37329  0.60507  0.08987  Biso   1.000  C
  C110     1.0000 0.62671  0.60507  0.41013  Biso   1.000  C
  C111     1.0000 0.87329  0.10507  0.08987  Biso   1.000  C
  C112     1.0000 0.12671  0.10507  0.41013  Biso   1.000  C
  C113     1.0000 0.48804  0.53467  0.90255  Biso   1.000  C
  C114     1.0000 0.51196  0.53467  0.59745  Biso   1.000  C
  C115     1.0000 0.98804  0.03467  0.90255  Biso   1.000  C
  C116     1.0000 0.01196  0.03467  0.59745  Biso   1.000  C
  C117     1.0000 0.51196  0.46533  0.09745  Biso   1.000  C
  C118     1.0000 0.48804  0.46533  0.40255  Biso   1.000  C
  C119     1.0000 0.01196  0.96533  0.09745  Biso   1.000  C
  C120     1.0000 0.98804  0.96533  0.40255  Biso   1.000  C
  C121     1.0000 0.45158  0.44824  0.92889  Biso   1.000  C
  C122     1.0000 0.54842  0.44824  0.57111  Biso   1.000  C
  C123     1.0000 0.95158  0.94824  0.92889  Biso   1.000  C
  C124     1.0000 0.04842  0.94824  0.57111  Biso   1.000  C
  C125     1.0000 0.54842  0.55176  0.07111  Biso   1.000  C
  C126     1.0000 0.45158  0.55176  0.42889  Biso   1.000  C
  C127     1.0000 0.04842  0.05176  0.07111  Biso   1.000  C
  C128     1.0000 0.95158  0.05176  0.42889  Biso   1.000  C
  C129     1.0000 0.62604  0.32664  0.91167  Biso   1.000  C
  C130     1.0000 0.37396  0.32664  0.58833  Biso   1.000  C
  C131     1.0000 0.12604  0.82664  0.91167  Biso   1.000  C
  C132     1.0000 0.87396  0.82664  0.58833  Biso   1.000  C
  C133     1.0000 0.37396  0.67336  0.08833  Biso   1.000  C
  C134     1.0000 0.62604  0.67336  0.41167  Biso   1.000  C
  C135     1.0000 0.87396  0.17336  0.08833  Biso   1.000  C
  C136     1.0000 0.12604  0.17336  0.41167  Biso   1.000  C
  C137     1.0000 0.60466  0.42993  0.93596  Biso   1.000  C
  C138     1.0000 0.39534  0.42993  0.56404  Biso   1.000  C
  C139     1.0000 0.10466  0.92993  0.93596  Biso   1.000  C
  C140     1.0000 0.89534  0.92993  0.56404  Biso   1.000  C
  C141     1.0000 0.39534  0.57007  0.06404  Biso   1.000  C
  C142     1.0000 0.60466  0.57007  0.43596  Biso   1.000  C
  C143     1.0000 0.89534  0.07007  0.06404  Biso   1.000  C
  C144     1.0000 0.10466  0.07007  0.43596  Biso   1.000  C
  O49      1.0000 0.49190  0.58768  0.87443  Biso   1.000  O
  O50      1.0000 0.50810  0.58768  0.62557  Biso   1.000  O
  O51      1.0000 0.99190  0.08768  0.87443  Biso   1.000  O
  O52      1.0000 0.00810  0.08768  0.62557  Biso   1.000  O
  O53      1.0000 0.50810  0.41232  0.12557  Biso   1.000  O
  O54      1.0000 0.49190  0.41232  0.37443  Biso   1.000  O
  O55      1.0000 0.00810  0.91232  0.12557  Biso   1.000  O
  O56      1.0000 0.99190  0.91232  0.37443  Biso   1.000  O
  C145     1.0000 0.52056  0.51489  0.93032  Biso   1.000  C
  C146     1.0000 0.47944  0.51489  0.56968  Biso   1.000  C
  C147     1.0000 0.02056  0.01489  0.93032  Biso   1.000  C
  C148     1.0000 0.97944  0.01489  0.56968  Biso   1.000  C
  C149     1.0000 0.47944  0.48511  0.06968  Biso   1.000  C
  C150     1.0000 0.52056  0.48511  0.43032  Biso   1.000  C
  C151     1.0000 0.97944  0.98511  0.06968  Biso   1.000  C
  C152     1.0000 0.02056  0.98511  0.43032  Biso   1.000  C
  H65      1.0000 0.42770  0.42540  0.92830  Biso   1.000  H
  H66      1.0000 0.57230  0.42540  0.57170  Biso   1.000  H
  H67      1.0000 0.92770  0.92540  0.92830  Biso   1.000  H
  H68      1.0000 0.07230  0.92540  0.57170  Biso   1.000  H
  H69      1.0000 0.57230  0.57460  0.07170  Biso   1.000  H
  H70      1.0000 0.42770  0.57460  0.42830  Biso   1.000  H
  H71      1.0000 0.07230  0.07460  0.07170  Biso   1.000  H
  H72      1.0000 0.92770  0.07460  0.42830  Biso   1.000  H
  C153     1.0000 0.48386  0.42731  0.95736  Biso   1.000  C
  C154     1.0000 0.51614  0.42731  0.54264  Biso   1.000  C
  C155     1.0000 0.98386  0.92731  0.95736  Biso   1.000  C
  C156     1.0000 0.01614  0.92731  0.54264  Biso   1.000  C
  C157     1.0000 0.51614  0.57269  0.04264  Biso   1.000  C
  C158     1.0000 0.48386  0.57269  0.45736  Biso   1.000  C
  C159     1.0000 0.01614  0.07269  0.04264  Biso   1.000  C
  C160     1.0000 0.98386  0.07269  0.45736  Biso   1.000  C
  O57      1.0000 0.64544  0.28985  0.88290  Biso   1.000  O
  O58      1.0000 0.35456  0.28985  0.61710  Biso   1.000  O
  O59      1.0000 0.14544  0.78985  0.88290  Biso   1.000  O
  O60      1.0000 0.85456  0.78985  0.61710  Biso   1.000  O
  O61      1.0000 0.35456  0.71015  0.11710  Biso   1.000  O
  O62      1.0000 0.64544  0.71015  0.38290  Biso   1.000  O
  O63      1.0000 0.85456  0.21015  0.11710  Biso   1.000  O
  O64      1.0000 0.14544  0.21015  0.38290  Biso   1.000  O
  C161     1.0000 0.60355  0.29452  0.93777  Biso   1.000  C
  C162     1.0000 0.39645  0.29452  0.56223  Biso   1.000  C
  C163     1.0000 0.10355  0.79452  0.93777  Biso   1.000  C
  C164     1.0000 0.89645  0.79452  0.56223  Biso   1.000  C
  C165     1.0000 0.39645  0.70548  0.06223  Biso   1.000  C
  C166     1.0000 0.60355  0.70548  0.43777  Biso   1.000  C
  C167     1.0000 0.89645  0.20548  0.06223  Biso   1.000  C
  C168     1.0000 0.10355  0.20548  0.43777  Biso   1.000  C
  H73      1.0000 0.60570  0.47660  0.93580  Biso   1.000  H
  H74      1.0000 0.39430  0.47660  0.56420  Biso   1.000  H
  H75      1.0000 0.10570  0.97660  0.93580  Biso   1.000  H
  H76      1.0000 0.89430  0.97660  0.56420  Biso   1.000  H
  H77      1.0000 0.39430  0.52340  0.06420  Biso   1.000  H
  H78      1.0000 0.60570  0.52340  0.43580  Biso   1.000  H
  H79      1.0000 0.89430  0.02340  0.06420  Biso   1.000  H
  H80      1.0000 0.10570  0.02340  0.43580  Biso   1.000  H
  C169     1.0000 0.58102  0.39866  0.96223  Biso   1.000  C
  C170     1.0000 0.41898  0.39866  0.53777  Biso   1.000  C
  C171     1.0000 0.08102  0.89866  0.96223  Biso   1.000  C
  C172     1.0000 0.91898  0.89866  0.53777  Biso   1.000  C
  C173     1.0000 0.41898  0.60134  0.03777  Biso   1.000  C
  C174     1.0000 0.58102  0.60134  0.46223  Biso   1.000  C
  C175     1.0000 0.91898  0.10134  0.03777  Biso   1.000  C
  C176     1.0000 0.08102  0.10134  0.46223  Biso   1.000  C
  C177     1.0000 0.47279  0.64352  0.88129  Biso   1.000  C
  C178     1.0000 0.52721  0.64352  0.61871  Biso   1.000  C
  C179     1.0000 0.97279  0.14352  0.88129  Biso   1.000  C
  C180     1.0000 0.02721  0.14352  0.61871  Biso   1.000  C
  C181     1.0000 0.52721  0.35648  0.11871  Biso   1.000  C
  C182     1.0000 0.47279  0.35648  0.38129  Biso   1.000  C
  C183     1.0000 0.02721  0.85648  0.11871  Biso   1.000  C
  C184     1.0000 0.97279  0.85648  0.38129  Biso   1.000  C
  C185     1.0000 0.51926  0.46193  0.95773  Biso   1.000  C
  C186     1.0000 0.48074  0.46193  0.54227  Biso   1.000  C
  C187     1.0000 0.01926  0.96193  0.95773  Biso   1.000  C
  C188     1.0000 0.98074  0.96193  0.54227  Biso   1.000  C
  C189     1.0000 0.48074  0.53807  0.04227  Biso   1.000  C
  C190     1.0000 0.51926  0.53807  0.45773  Biso   1.000  C
  C191     1.0000 0.98074  0.03807  0.04227  Biso   1.000  C
  C192     1.0000 0.01926  0.03807  0.45773  Biso   1.000  C
  H81      1.0000 0.54420  0.53830  0.93040  Biso   1.000  H
  H82      1.0000 0.45580  0.53830  0.56960  Biso   1.000  H
  H83      1.0000 0.04420  0.03830  0.93040  Biso   1.000  H
  H84      1.0000 0.95580  0.03830  0.56960  Biso   1.000  H
  H85      1.0000 0.45580  0.46170  0.06960  Biso   1.000  H
  H86      1.0000 0.54420  0.46170  0.43040  Biso   1.000  H
  H87      1.0000 0.95580  0.96170  0.06960  Biso   1.000  H
  H88      1.0000 0.04420  0.96170  0.43040  Biso   1.000  H
  C193     1.0000 0.47929  0.36805  0.98574  Biso   1.000  C
  C194     1.0000 0.52071  0.36805  0.51426  Biso   1.000  C
  C195     1.0000 0.97929  0.86805  0.98574  Biso   1.000  C
  C196     1.0000 0.02071  0.86805  0.51426  Biso   1.000  C
  C197     1.0000 0.52071  0.63195  0.01426  Biso   1.000  C
  C198     1.0000 0.47929  0.63195  0.48574  Biso   1.000  C
  C199     1.0000 0.02071  0.13195  0.01426  Biso   1.000  C
  C200     1.0000 0.97929  0.13195  0.48574  Biso   1.000  C
  C201     1.0000 0.68391  0.29360  0.88645  Biso   1.000  C
  C202     1.0000 0.31609  0.29360  0.61355  Biso   1.000  C
  C203     1.0000 0.18391  0.79360  0.88645  Biso   1.000  C
  C204     1.0000 0.81609  0.79360  0.61355  Biso   1.000  C
  C205     1.0000 0.31609  0.70640  0.11355  Biso   1.000  C
  C206     1.0000 0.68391  0.70640  0.38645  Biso   1.000  C
  C207     1.0000 0.81609  0.20640  0.11355  Biso   1.000  C
  C208     1.0000 0.18391  0.20640  0.38645  Biso   1.000  C
  C209     1.0000 0.58070  0.32966  0.96333  Biso   1.000  C
  C210     1.0000 0.41930  0.32966  0.53667  Biso   1.000  C
  C211     1.0000 0.08070  0.82966  0.96333  Biso   1.000  C
  C212     1.0000 0.91930  0.82966  0.53667  Biso   1.000  C
  C213     1.0000 0.41930  0.67034  0.03667  Biso   1.000  C
  C214     1.0000 0.58070  0.67034  0.46333  Biso   1.000  C
  C215     1.0000 0.91930  0.17034  0.03667  Biso   1.000  C
  C216     1.0000 0.08070  0.17034  0.46333  Biso   1.000  C
  H89      1.0000 0.60350  0.24780  0.93850  Biso   1.000  H
  H90      1.0000 0.39650  0.24780  0.56150  Biso   1.000  H
  H91      1.0000 0.10350  0.74780  0.93850  Biso   1.000  H
  H92      1.0000 0.89650  0.74780  0.56150  Biso   1.000  H
  H93      1.0000 0.39650  0.75220  0.06150  Biso   1.000  H
  H94      1.0000 0.60350  0.75220  0.43850  Biso   1.000  H
  H95      1.0000 0.89650  0.25220  0.06150  Biso   1.000  H
  H96      1.0000 0.10350  0.25220  0.43850  Biso   1.000  H
  C217     1.0000 0.55623  0.44173  0.98693  Biso   1.000  C
  C218     1.0000 0.44377  0.44173  0.51307  Biso   1.000  C
  C219     1.0000 0.05623  0.94173  0.98693  Biso   1.000  C
  C220     1.0000 0.94377  0.94173  0.51307  Biso   1.000  C
  C221     1.0000 0.44377  0.55827  0.01307  Biso   1.000  C
  C222     1.0000 0.55623  0.55827  0.48693  Biso   1.000  C
  C223     1.0000 0.94377  0.05827  0.01307  Biso   1.000  C
  C224     1.0000 0.05623  0.05827  0.48693  Biso   1.000  C
  O65      1.0000 0.45208  0.64922  0.90905  Biso   1.000  O
  O66      1.0000 0.54792  0.64922  0.59095  Biso   1.000  O
  O67      1.0000 0.95208  0.14922  0.90905  Biso   1.000  O
  O68      1.0000 0.04792  0.14922  0.59095  Biso   1.000  O
  O69      1.0000 0.54792  0.35078  0.09095  Biso   1.000  O
  O70      1.0000 0.45208  0.35078  0.40905  Biso   1.000  O
  O71      1.0000 0.04792  0.85078  0.09095  Biso   1.000  O
  O72      1.0000 0.95208  0.85078  0.40905  Biso   1.000  O
  C225     1.0000 0.48197  0.69730  0.85135  Biso   1.000  C
  C226     1.0000 0.51803  0.69730  0.64865  Biso   1.000  C
  C227     1.0000 0.98197  0.19730  0.85135  Biso   1.000  C
  C228     1.0000 0.01803  0.19730  0.64865  Biso   1.000  C
  C229     1.0000 0.51803  0.30270  0.14865  Biso   1.000  C
  C230     1.0000 0.48197  0.30270  0.35135  Biso   1.000  C
  C231     1.0000 0.01803  0.80270  0.14865  Biso   1.000  C
  C232     1.0000 0.98197  0.80270  0.35135  Biso   1.000  C
  H97      1.0000 0.49920  0.36960  0.01190  Biso   1.000  H
  H98      1.0000 0.50080  0.36960  0.48810  Biso   1.000  H
  H99      1.0000 0.99920  0.86960  0.01190  Biso   1.000  H
  H100     1.0000 0.00080  0.86960  0.48810  Biso   1.000  H
  H101     1.0000 0.50080  0.63040  0.98810  Biso   1.000  H
  H102     1.0000 0.49920  0.63040  0.51190  Biso   1.000  H
  H103     1.0000 0.00080  0.13040  0.98810  Biso   1.000  H
  H104     1.0000 0.99920  0.13040  0.51190  Biso   1.000  H
  H105     1.0000 0.45350  0.36950  0.99570  Biso   1.000  H
  H106     1.0000 0.54650  0.36950  0.50430  Biso   1.000  H
  H107     1.0000 0.95350  0.86950  0.99570  Biso   1.000  H
  H108     1.0000 0.04650  0.86950  0.50430  Biso   1.000  H
  H109     1.0000 0.54650  0.63050  0.00430  Biso   1.000  H
  H110     1.0000 0.45350  0.63050  0.49570  Biso   1.000  H
  H111     1.0000 0.04650  0.13050  0.00430  Biso   1.000  H
  H112     1.0000 0.95350  0.13050  0.49570  Biso   1.000  H
  C233     1.0000 0.48329  0.30473  0.96152  Biso   1.000  C
  C234     1.0000 0.51671  0.30473  0.53848  Biso   1.000  C
  C235     1.0000 0.98329  0.80473  0.96152  Biso   1.000  C
  C236     1.0000 0.01671  0.80473  0.53848  Biso   1.000  C
  C237     1.0000 0.51671  0.69527  0.03848  Biso   1.000  C
  C238     1.0000 0.48329  0.69527  0.46152  Biso   1.000  C
  C239     1.0000 0.01671  0.19527  0.03848  Biso   1.000  C
  C240     1.0000 0.98329  0.19527  0.46152  Biso   1.000  C
  O73      1.0000 0.70366  0.32680  0.91245  Biso   1.000  O
  O74      1.0000 0.29634  0.32680  0.58755  Biso   1.000  O
  O75      1.0000 0.20366  0.82680  0.91245  Biso   1.000  O
  O76      1.0000 0.79634  0.82680  0.58755  Biso   1.000  O
  O77      1.0000 0.29634  0.67320  0.08755  Biso   1.000  O
  O78      1.0000 0.70366  0.67320  0.41245  Biso   1.000  O
  O79      1.0000 0.79634  0.17320  0.08755  Biso   1.000  O
  O80      1.0000 0.20366  0.17320  0.41245  Biso   1.000  O
  C241     1.0000 0.69876  0.25040  0.85305  Biso   1.000  C
  C242     1.0000 0.30124  0.25040  0.64695  Biso   1.000  C
  C243     1.0000 0.19876  0.75040  0.85305  Biso   1.000  C
  C244     1.0000 0.80124  0.75040  0.64695  Biso   1.000  C
  C245     1.0000 0.30124  0.74960  0.14695  Biso   1.000  C
  C246     1.0000 0.69876  0.74960  0.35305  Biso   1.000  C
  C247     1.0000 0.80124  0.24960  0.14695  Biso   1.000  C
  C248     1.0000 0.19876  0.24960  0.35305  Biso   1.000  C
  C249     1.0000 0.55551  0.29019  0.99029  Biso   1.000  C
  C250     1.0000 0.44449  0.29019  0.50971  Biso   1.000  C
  C251     1.0000 0.05551  0.79019  0.99029  Biso   1.000  C
  C252     1.0000 0.94449  0.79019  0.50971  Biso   1.000  C
  C253     1.0000 0.44449  0.70981  0.00971  Biso   1.000  C
  C254     1.0000 0.55551  0.70981  0.49029  Biso   1.000  C
  C255     1.0000 0.94449  0.20981  0.00971  Biso   1.000  C
  C256     1.0000 0.05551  0.20981  0.49029  Biso   1.000  C
  H113     1.0000 0.57100  0.48150  0.99750  Biso   1.000  H
  H114     1.0000 0.42900  0.48150  0.50250  Biso   1.000  H
  H115     1.0000 0.07100  0.98150  0.99750  Biso   1.000  H
  H116     1.0000 0.92900  0.98150  0.50250  Biso   1.000  H
  H117     1.0000 0.42900  0.51850  0.00250  Biso   1.000  H
  H118     1.0000 0.57100  0.51850  0.49750  Biso   1.000  H
  H119     1.0000 0.92900  0.01850  0.00250  Biso   1.000  H
  H120     1.0000 0.07100  0.01850  0.49750  Biso   1.000  H
  H121     1.0000 0.54950  0.41750  0.01260  Biso   1.000  H
  H122     1.0000 0.45050  0.41750  0.48740  Biso   1.000  H
  H123     1.0000 0.04950  0.91750  0.01260  Biso   1.000  H
  H124     1.0000 0.95050  0.91750  0.48740  Biso   1.000  H
  H125     1.0000 0.45050  0.58250  0.98740  Biso   1.000  H
  H126     1.0000 0.54950  0.58250  0.51260  Biso   1.000  H
  H127     1.0000 0.95050  0.08250  0.98740  Biso   1.000  H
  H128     1.0000 0.04950  0.08250  0.51260  Biso   1.000  H
  C257     1.0000 0.51251  0.69410  0.82768  Biso   1.000  C
  C258     1.0000 0.48749  0.69410  0.67232  Biso   1.000  C
  C259     1.0000 0.01251  0.19410  0.82768  Biso   1.000  C
  C260     1.0000 0.98749  0.19410  0.67232  Biso   1.000  C
  C261     1.0000 0.48749  0.30590  0.17232  Biso   1.000  C
  C262     1.0000 0.51251  0.30590  0.32768  Biso   1.000  C
  C263     1.0000 0.98749  0.80590  0.17232  Biso   1.000  C
  C264     1.0000 0.01251  0.80590  0.32768  Biso   1.000  C
  C265     1.0000 0.45885  0.75160  0.84774  Biso   1.000  C
  C266     1.0000 0.54115  0.75160  0.65226  Biso   1.000  C
  C267     1.0000 0.95885  0.25160  0.84774  Biso   1.000  C
  C268     1.0000 0.04115  0.25160  0.65226  Biso   1.000  C
  C269     1.0000 0.54115  0.24840  0.15226  Biso   1.000  C
  C270     1.0000 0.45885  0.24840  0.34774  Biso   1.000  C
  C271     1.0000 0.04115  0.74840  0.15226  Biso   1.000  C
  C272     1.0000 0.95885  0.74840  0.34774  Biso   1.000  C
  C273     1.0000 0.51784  0.26877  0.96314  Biso   1.000  C
  C274     1.0000 0.48216  0.26877  0.53686  Biso   1.000  C
  C275     1.0000 0.01784  0.76877  0.96314  Biso   1.000  C
  C276     1.0000 0.98216  0.76877  0.53686  Biso   1.000  C
  C277     1.0000 0.48216  0.73123  0.03686  Biso   1.000  C
  C278     1.0000 0.51784  0.73123  0.46314  Biso   1.000  C
  C279     1.0000 0.98216  0.23123  0.03686  Biso   1.000  C
  C280     1.0000 0.01784  0.23123  0.46314  Biso   1.000  C
  C281     1.0000 0.45041  0.28238  0.93425  Biso   1.000  C
  C282     1.0000 0.54959  0.28238  0.56575  Biso   1.000  C
  C283     1.0000 0.95041  0.78238  0.93425  Biso   1.000  C
  C284     1.0000 0.04959  0.78238  0.56575  Biso   1.000  C
  C285     1.0000 0.54959  0.71762  0.06575  Biso   1.000  C
  C286     1.0000 0.45041  0.71762  0.43425  Biso   1.000  C
  C287     1.0000 0.04959  0.21762  0.06575  Biso   1.000  C
  C288     1.0000 0.95041  0.21762  0.43425  Biso   1.000  C
  C289     1.0000 0.67661  0.20010  0.83247  Biso   1.000  C
  C290     1.0000 0.32339  0.20010  0.66753  Biso   1.000  C
  C291     1.0000 0.17661  0.70010  0.83247  Biso   1.000  C
  C292     1.0000 0.82339  0.70010  0.66753  Biso   1.000  C
  C293     1.0000 0.32339  0.79990  0.16753  Biso   1.000  C
  C294     1.0000 0.67661  0.79990  0.33247  Biso   1.000  C
  C295     1.0000 0.82339  0.29990  0.16753  Biso   1.000  C
  C296     1.0000 0.17661  0.29990  0.33247  Biso   1.000  C
  C297     1.0000 0.73553  0.26380  0.84201  Biso   1.000  C
  C298     1.0000 0.26447  0.26380  0.65799  Biso   1.000  C
  C299     1.0000 0.23553  0.76380  0.84201  Biso   1.000  C
  C300     1.0000 0.76447  0.76380  0.65799  Biso   1.000  C
  C301     1.0000 0.26447  0.73620  0.15799  Biso   1.000  C
  C302     1.0000 0.73553  0.73620  0.34201  Biso   1.000  C
  C303     1.0000 0.76447  0.23620  0.15799  Biso   1.000  C
  C304     1.0000 0.23553  0.23620  0.34201  Biso   1.000  C
  H129     1.0000 0.56990  0.25080  0.00230  Biso   1.000  H
  H130     1.0000 0.43010  0.25080  0.49770  Biso   1.000  H
  H131     1.0000 0.06990  0.75080  0.00230  Biso   1.000  H
  H132     1.0000 0.93010  0.75080  0.49770  Biso   1.000  H
  H133     1.0000 0.43010  0.74920  0.99770  Biso   1.000  H
  H134     1.0000 0.56990  0.74920  0.50230  Biso   1.000  H
  H135     1.0000 0.93010  0.24920  0.99770  Biso   1.000  H
  H136     1.0000 0.06990  0.24920  0.50230  Biso   1.000  H
  H137     1.0000 0.54960  0.31730  0.01510  Biso   1.000  H
  H138     1.0000 0.45040  0.31730  0.48490  Biso   1.000  H
  H139     1.0000 0.04960  0.81730  0.01510  Biso   1.000  H
  H140     1.0000 0.95040  0.81730  0.48490  Biso   1.000  H
  H141     1.0000 0.45040  0.68270  0.98490  Biso   1.000  H
  H142     1.0000 0.54960  0.68270  0.51510  Biso   1.000  H
  H143     1.0000 0.95040  0.18270  0.98490  Biso   1.000  H
  H144     1.0000 0.04960  0.18270  0.51510  Biso   1.000  H
  H145     1.0000 0.52930  0.65700  0.83040  Biso   1.000  H
  H146     1.0000 0.47070  0.65700  0.66960  Biso   1.000  H
  H147     1.0000 0.02930  0.15700  0.83040  Biso   1.000  H
  H148     1.0000 0.97070  0.15700  0.66960  Biso   1.000  H
  H149     1.0000 0.47070  0.34300  0.16960  Biso   1.000  H
  H150     1.0000 0.52930  0.34300  0.33040  Biso   1.000  H
  H151     1.0000 0.97070  0.84300  0.16960  Biso   1.000  H
  H152     1.0000 0.02930  0.84300  0.33040  Biso   1.000  H
  C305     1.0000 0.51859  0.74500  0.79994  Biso   1.000  C
  C306     1.0000 0.48141  0.74500  0.70006  Biso   1.000  C
  C307     1.0000 0.01859  0.24500  0.79994  Biso   1.000  C
  C308     1.0000 0.98141  0.24500  0.70006  Biso   1.000  C
  C309     1.0000 0.48141  0.25500  0.20006  Biso   1.000  C
  C310     1.0000 0.51859  0.25500  0.29994  Biso   1.000  C
  C311     1.0000 0.98141  0.75500  0.20006  Biso   1.000  C
  C312     1.0000 0.01859  0.75500  0.29994  Biso   1.000  C
  C313     1.0000 0.46613  0.80070  0.81990  Biso   1.000  C
  C314     1.0000 0.53387  0.80070  0.68010  Biso   1.000  C
  C315     1.0000 0.96613  0.30070  0.81990  Biso   1.000  C
  C316     1.0000 0.03387  0.30070  0.68010  Biso   1.000  C
  C317     1.0000 0.53387  0.19930  0.18010  Biso   1.000  C
  C318     1.0000 0.46613  0.19930  0.31990  Biso   1.000  C
  C319     1.0000 0.03387  0.69930  0.18010  Biso   1.000  C
  C320     1.0000 0.96613  0.69930  0.31990  Biso   1.000  C
  H153     1.0000 0.43800  0.75520  0.86430  Biso   1.000  H
  H154     1.0000 0.56200  0.75520  0.63570  Biso   1.000  H
  H155     1.0000 0.93800  0.25520  0.86430  Biso   1.000  H
  H156     1.0000 0.06200  0.25520  0.63570  Biso   1.000  H
  H157     1.0000 0.56200  0.24480  0.13570  Biso   1.000  H
  H158     1.0000 0.43800  0.24480  0.36430  Biso   1.000  H
  H159     1.0000 0.06200  0.74480  0.13570  Biso   1.000  H
  H160     1.0000 0.93800  0.74480  0.36430  Biso   1.000  H
  C321     1.0000 0.51902  0.21289  0.93779  Biso   1.000  C
  C322     1.0000 0.48098  0.21289  0.56221  Biso   1.000  C
  C323     1.0000 0.01902  0.71289  0.93779  Biso   1.000  C
  C324     1.0000 0.98098  0.71289  0.56221  Biso   1.000  C
  C325     1.0000 0.48098  0.78711  0.06221  Biso   1.000  C
  C326     1.0000 0.51902  0.78711  0.43779  Biso   1.000  C
  C327     1.0000 0.98098  0.28711  0.06221  Biso   1.000  C
  C328     1.0000 0.01902  0.28711  0.43779  Biso   1.000  C
  H161     1.0000 0.42680  0.30610  0.93280  Biso   1.000  H
  H162     1.0000 0.57320  0.30610  0.56720  Biso   1.000  H
  H163     1.0000 0.92680  0.80610  0.93280  Biso   1.000  H
  H164     1.0000 0.07320  0.80610  0.56720  Biso   1.000  H
  H165     1.0000 0.57320  0.69390  0.06720  Biso   1.000  H
  H166     1.0000 0.42680  0.69390  0.43280  Biso   1.000  H
  H167     1.0000 0.07320  0.19390  0.06720  Biso   1.000  H
  H168     1.0000 0.92680  0.19390  0.43280  Biso   1.000  H
  C329     1.0000 0.45204  0.22624  0.90946  Biso   1.000  C
  C330     1.0000 0.54796  0.22624  0.59054  Biso   1.000  C
  C331     1.0000 0.95204  0.72624  0.90946  Biso   1.000  C
  C332     1.0000 0.04796  0.72624  0.59054  Biso   1.000  C
  C333     1.0000 0.54796  0.77376  0.09054  Biso   1.000  C
  C334     1.0000 0.45204  0.77376  0.40946  Biso   1.000  C
  C335     1.0000 0.04796  0.27376  0.09054  Biso   1.000  C
  C336     1.0000 0.95204  0.27376  0.40946  Biso   1.000  C
  H169     1.0000 0.65120  0.19180  0.83890  Biso   1.000  H
  H170     1.0000 0.34880  0.19180  0.66110  Biso   1.000  H
  H171     1.0000 0.15120  0.69180  0.83890  Biso   1.000  H
  H172     1.0000 0.84880  0.69180  0.66110  Biso   1.000  H
  H173     1.0000 0.34880  0.80820  0.16110  Biso   1.000  H
  H174     1.0000 0.65120  0.80820  0.33890  Biso   1.000  H
  H175     1.0000 0.84880  0.30820  0.16110  Biso   1.000  H
  H176     1.0000 0.15120  0.30820  0.33890  Biso   1.000  H
  C337     1.0000 0.69250  0.16150  0.80182  Biso   1.000  C
  C338     1.0000 0.30750  0.16150  0.69818  Biso   1.000  C
  C339     1.0000 0.19250  0.66150  0.80182  Biso   1.000  C
  C340     1.0000 0.80750  0.66150  0.69818  Biso   1.000  C
  C341     1.0000 0.30750  0.83850  0.19818  Biso   1.000  C
  C342     1.0000 0.69250  0.83850  0.30182  Biso   1.000  C
  C343     1.0000 0.80750  0.33850  0.19818  Biso   1.000  C
  C344     1.0000 0.19250  0.33850  0.30182  Biso   1.000  C
  C345     1.0000 0.74933  0.22380  0.81232  Biso   1.000  C
  C346     1.0000 0.25067  0.22380  0.68768  Biso   1.000  C
  C347     1.0000 0.24933  0.72380  0.81232  Biso   1.000  C
  C348     1.0000 0.75067  0.72380  0.68768  Biso   1.000  C
  C349     1.0000 0.25067  0.77620  0.18768  Biso   1.000  C
  C350     1.0000 0.74933  0.77620  0.31232  Biso   1.000  C
  C351     1.0000 0.75067  0.27620  0.18768  Biso   1.000  C
  C352     1.0000 0.24933  0.27620  0.31232  Biso   1.000  C
  H177     1.0000 0.75040  0.29970  0.85480  Biso   1.000  H
  H178     1.0000 0.24960  0.29970  0.64520  Biso   1.000  H
  H179     1.0000 0.25040  0.79970  0.85480  Biso   1.000  H
  H180     1.0000 0.74960  0.79970  0.64520  Biso   1.000  H
  H181     1.0000 0.24960  0.70030  0.14520  Biso   1.000  H
  H182     1.0000 0.75040  0.70030  0.35480  Biso   1.000  H
  H183     1.0000 0.74960  0.20030  0.14520  Biso   1.000  H
  H184     1.0000 0.25040  0.20030  0.35480  Biso   1.000  H
  N33      1.0000 0.49552  0.79803  0.79543  Biso   1.000  N
  N34      1.0000 0.50448  0.79803  0.70457  Biso   1.000  N
  N35      1.0000 0.99552  0.29803  0.79543  Biso   1.000  N
  N36      1.0000 0.00448  0.29803  0.70457  Biso   1.000  N
  N37      1.0000 0.50448  0.20197  0.20457  Biso   1.000  N
  N38      1.0000 0.49552  0.20197  0.29543  Biso   1.000  N
  N39      1.0000 0.00448  0.70197  0.20457  Biso   1.000  N
  N40      1.0000 0.99552  0.70197  0.29543  Biso   1.000  N
  H185     1.0000 0.53970  0.74240  0.78360  Biso   1.000  H
  H186     1.0000 0.46030  0.74240  0.71640  Biso   1.000  H
  H187     1.0000 0.03970  0.24240  0.78360  Biso   1.000  H
  H188     1.0000 0.96030  0.24240  0.71640  Biso   1.000  H
  H189     1.0000 0.46030  0.25760  0.21640  Biso   1.000  H
  H190     1.0000 0.53970  0.25760  0.28360  Biso   1.000  H
  H191     1.0000 0.96030  0.75760  0.21640  Biso   1.000  H
  H192     1.0000 0.03970  0.75760  0.28360  Biso   1.000  H
  H193     1.0000 0.44990  0.83850  0.81760  Biso   1.000  H
  H194     1.0000 0.55010  0.83850  0.68240  Biso   1.000  H
  H195     1.0000 0.94990  0.33850  0.81760  Biso   1.000  H
  H196     1.0000 0.05010  0.33850  0.68240  Biso   1.000  H
  H197     1.0000 0.55010  0.16150  0.18240  Biso   1.000  H
  H198     1.0000 0.44990  0.16150  0.31760  Biso   1.000  H
  H199     1.0000 0.05010  0.66150  0.18240  Biso   1.000  H
  H200     1.0000 0.94990  0.66150  0.31760  Biso   1.000  H
  C353     1.0000 0.48597  0.19262  0.91034  Biso   1.000  C
  C354     1.0000 0.51403  0.19262  0.58966  Biso   1.000  C
  C355     1.0000 0.98597  0.69262  0.91034  Biso   1.000  C
  C356     1.0000 0.01403  0.69262  0.58966  Biso   1.000  C
  C357     1.0000 0.51403  0.80738  0.08966  Biso   1.000  C
  C358     1.0000 0.48597  0.80738  0.41034  Biso   1.000  C
  C359     1.0000 0.01403  0.30738  0.08966  Biso   1.000  C
  C360     1.0000 0.98597  0.30738  0.41034  Biso   1.000  C
  H201     1.0000 0.54230  0.18830  0.93910  Biso   1.000  H
  H202     1.0000 0.45770  0.18830  0.56090  Biso   1.000  H
  H203     1.0000 0.04230  0.68830  0.93910  Biso   1.000  H
  H204     1.0000 0.95770  0.68830  0.56090  Biso   1.000  H
  H205     1.0000 0.45770  0.81170  0.06090  Biso   1.000  H
  H206     1.0000 0.54230  0.81170  0.43910  Biso   1.000  H
  H207     1.0000 0.95770  0.31170  0.06090  Biso   1.000  H
  H208     1.0000 0.04230  0.31170  0.43910  Biso   1.000  H
  O81      1.0000 0.41866  0.21037  0.88069  Biso   1.000  O
  O82      1.0000 0.58134  0.21037  0.61931  Biso   1.000  O
  O83      1.0000 0.91866  0.71037  0.88069  Biso   1.000  O
  O84      1.0000 0.08134  0.71037  0.61931  Biso   1.000  O
  O85      1.0000 0.58134  0.78963  0.11931  Biso   1.000  O
  O86      1.0000 0.41866  0.78963  0.38069  Biso   1.000  O
  O87      1.0000 0.08134  0.28963  0.11931  Biso   1.000  O
  O88      1.0000 0.91866  0.28963  0.38069  Biso   1.000  O
  H209     1.0000 0.67790  0.12610  0.78790  Biso   1.000  H
  H210     1.0000 0.32210  0.12610  0.71210  Biso   1.000  H
  H211     1.0000 0.17790  0.62610  0.78790  Biso   1.000  H
  H212     1.0000 0.82210  0.62610  0.71210  Biso   1.000  H
  H213     1.0000 0.32210  0.87390  0.21210  Biso   1.000  H
  H214     1.0000 0.67790  0.87390  0.28790  Biso   1.000  H
  H215     1.0000 0.82210  0.37390  0.21210  Biso   1.000  H
  H216     1.0000 0.17790  0.37390  0.28790  Biso   1.000  H
  H217     1.0000 0.77480  0.23110  0.80560  Biso   1.000  H
  H218     1.0000 0.22520  0.23110  0.69440  Biso   1.000  H
  H219     1.0000 0.27480  0.73110  0.80560  Biso   1.000  H
  H220     1.0000 0.72520  0.73110  0.69440  Biso   1.000  H
  H221     1.0000 0.22520  0.76890  0.19440  Biso   1.000  H
  H222     1.0000 0.77480  0.76890  0.30560  Biso   1.000  H
  H223     1.0000 0.72520  0.26890  0.19440  Biso   1.000  H
  H224     1.0000 0.27480  0.26890  0.30560  Biso   1.000  H
  Cu9      1.0000 0.50000  0.86838  0.75000  Biso   1.000  Cu
  Cu10     1.0000 0.00000  0.36838  0.75000  Biso   1.000  Cu
  Cu11     1.0000 0.50000  0.13162  0.25000  Biso   1.000  Cu
  Cu12     1.0000 0.00000  0.63162  0.25000  Biso   1.000  Cu
  O89      1.0000 0.48682  0.14005  0.88167  Biso   1.000  O
  O90      1.0000 0.51318  0.14005  0.61833  Biso   1.000  O
  O91      1.0000 0.98682  0.64005  0.88167  Biso   1.000  O
  O92      1.0000 0.01318  0.64005  0.61833  Biso   1.000  O
  O93      1.0000 0.51318  0.85995  0.11833  Biso   1.000  O
  O94      1.0000 0.48682  0.85995  0.38167  Biso   1.000  O
  O95      1.0000 0.01318  0.35995  0.11833  Biso   1.000  O
  O96      1.0000 0.98682  0.35995  0.38167  Biso   1.000  O
  C361     1.0000 0.40198  0.15220  0.88487  Biso   1.000  C
  C362     1.0000 0.59802  0.15220  0.61513  Biso   1.000  C
  C363     1.0000 0.90198  0.65220  0.88487  Biso   1.000  C
  C364     1.0000 0.09802  0.65220  0.61513  Biso   1.000  C
  C365     1.0000 0.59802  0.84780  0.11513  Biso   1.000  C
  C366     1.0000 0.40198  0.84780  0.38487  Biso   1.000  C
  C367     1.0000 0.09802  0.34780  0.11513  Biso   1.000  C
  C368     1.0000 0.90198  0.34780  0.38487  Biso   1.000  C
  O97      1.0000 0.56980  0.86824  0.76772  Biso   1.000  O
  O98      1.0000 0.43020  0.86824  0.73228  Biso   1.000  O
  O99      1.0000 0.06980  0.36824  0.76772  Biso   1.000  O
  O100     1.0000 0.93020  0.36824  0.73228  Biso   1.000  O
  O101     1.0000 0.43020  0.13176  0.23228  Biso   1.000  O
  O102     1.0000 0.56980  0.13176  0.26772  Biso   1.000  O
  O103     1.0000 0.93020  0.63176  0.23228  Biso   1.000  O
  O104     1.0000 0.06980  0.63176  0.26772  Biso   1.000  O
  N41      1.0000 0.49892  0.93840  0.79673  Biso   1.000  N
  N42      1.0000 0.50108  0.93840  0.70327  Biso   1.000  N
  N43      1.0000 0.99892  0.43840  0.79673  Biso   1.000  N
  N44      1.0000 0.00108  0.43840  0.70327  Biso   1.000  N
  N45      1.0000 0.50108  0.06160  0.20327  Biso   1.000  N
  N46      1.0000 0.49892  0.06160  0.29673  Biso   1.000  N
  N47      1.0000 0.00108  0.56160  0.20327  Biso   1.000  N
  N48      1.0000 0.99892  0.56160  0.29673  Biso   1.000  N
  C369     1.0000 0.49992  0.08130  0.89785  Biso   1.000  C
  C370     1.0000 0.50008  0.08130  0.60215  Biso   1.000  C
  C371     1.0000 0.99992  0.58130  0.89785  Biso   1.000  C
  C372     1.0000 0.00008  0.58130  0.60215  Biso   1.000  C
  C373     1.0000 0.50008  0.91870  0.10215  Biso   1.000  C
  C374     1.0000 0.49992  0.91870  0.39785  Biso   1.000  C
  C375     1.0000 0.00008  0.41870  0.10215  Biso   1.000  C
  C376     1.0000 0.99992  0.41870  0.39785  Biso   1.000  C
  O105     1.0000 0.41467  0.11081  0.91046  Biso   1.000  O
  O106     1.0000 0.58533  0.11081  0.58954  Biso   1.000  O
  O107     1.0000 0.91467  0.61081  0.91046  Biso   1.000  O
  O108     1.0000 0.08533  0.61081  0.58954  Biso   1.000  O
  O109     1.0000 0.58533  0.88919  0.08954  Biso   1.000  O
  O110     1.0000 0.41467  0.88919  0.41046  Biso   1.000  O
  O111     1.0000 0.08533  0.38919  0.08954  Biso   1.000  O
  O112     1.0000 0.91467  0.38919  0.41046  Biso   1.000  O
  C377     1.0000 0.36538  0.14690  0.85280  Biso   1.000  C
  C378     1.0000 0.63462  0.14690  0.64720  Biso   1.000  C
  C379     1.0000 0.86538  0.64690  0.85280  Biso   1.000  C
  C380     1.0000 0.13462  0.64690  0.64720  Biso   1.000  C
  C381     1.0000 0.63462  0.85310  0.14720  Biso   1.000  C
  C382     1.0000 0.36538  0.85310  0.35280  Biso   1.000  C
  C383     1.0000 0.13462  0.35310  0.14720  Biso   1.000  C
  C384     1.0000 0.86538  0.35310  0.35280  Biso   1.000  C
  C385     1.0000 0.47502  0.98840  0.79150  Biso   1.000  C
  C386     1.0000 0.52498  0.98840  0.70850  Biso   1.000  C
  C387     1.0000 0.97502  0.48840  0.79150  Biso   1.000  C
  C388     1.0000 0.02498  0.48840  0.70850  Biso   1.000  C
  C389     1.0000 0.52498  0.01160  0.20850  Biso   1.000  C
  C390     1.0000 0.47502  0.01160  0.29150  Biso   1.000  C
  C391     1.0000 0.02498  0.51160  0.20850  Biso   1.000  C
  C392     1.0000 0.97502  0.51160  0.29150  Biso   1.000  C
  C393     1.0000 0.52430  0.93520  0.83327  Biso   1.000  C
  C394     1.0000 0.47570  0.93520  0.66673  Biso   1.000  C
  C395     1.0000 0.02430  0.43520  0.83327  Biso   1.000  C
  C396     1.0000 0.97570  0.43520  0.66673  Biso   1.000  C
  C397     1.0000 0.47570  0.06480  0.16673  Biso   1.000  C
  C398     1.0000 0.52430  0.06480  0.33327  Biso   1.000  C
  C399     1.0000 0.97570  0.56480  0.16673  Biso   1.000  C
  C400     1.0000 0.02430  0.56480  0.33327  Biso   1.000  C
  O113     1.0000 0.50969  0.06997  0.93523  Biso   1.000  O
  O114     1.0000 0.49031  0.06997  0.56477  Biso   1.000  O
  O115     1.0000 0.00969  0.56997  0.93523  Biso   1.000  O
  O116     1.0000 0.99031  0.56997  0.56477  Biso   1.000  O
  O117     1.0000 0.49031  0.93003  0.06477  Biso   1.000  O
  O118     1.0000 0.50969  0.93003  0.43523  Biso   1.000  O
  O119     1.0000 0.99031  0.43003  0.06477  Biso   1.000  O
  O120     1.0000 0.00969  0.43003  0.43523  Biso   1.000  O
  C401     1.0000 0.49947  0.03200  0.86129  Biso   1.000  C
  C402     1.0000 0.50053  0.03200  0.63871  Biso   1.000  C
  C403     1.0000 0.99947  0.53200  0.86129  Biso   1.000  C
  C404     1.0000 0.00053  0.53200  0.63871  Biso   1.000  C
  C405     1.0000 0.50053  0.96800  0.13871  Biso   1.000  C
  C406     1.0000 0.49947  0.96800  0.36129  Biso   1.000  C
  C407     1.0000 0.00053  0.46800  0.13871  Biso   1.000  C
  C408     1.0000 0.99947  0.46800  0.36129  Biso   1.000  C
  C409     1.0000 0.34744  0.20040  0.83341  Biso   1.000  C
  C410     1.0000 0.65256  0.20040  0.66659  Biso   1.000  C
  C411     1.0000 0.84744  0.70040  0.83341  Biso   1.000  C
  C412     1.0000 0.15256  0.70040  0.66659  Biso   1.000  C
  C413     1.0000 0.65256  0.79960  0.16659  Biso   1.000  C
  C414     1.0000 0.34744  0.79960  0.33341  Biso   1.000  C
  C415     1.0000 0.15256  0.29960  0.16659  Biso   1.000  C
  C416     1.0000 0.84744  0.29960  0.33341  Biso   1.000  C
  C417     1.0000 0.35032  0.08440  0.84382  Biso   1.000  C
  C418     1.0000 0.64968  0.08440  0.65618  Biso   1.000  C
  C419     1.0000 0.85032  0.58440  0.84382  Biso   1.000  C
  C420     1.0000 0.14968  0.58440  0.65618  Biso   1.000  C
  C421     1.0000 0.64968  0.91560  0.15618  Biso   1.000  C
  C422     1.0000 0.35032  0.91560  0.34382  Biso   1.000  C
  C423     1.0000 0.14968  0.41560  0.15618  Biso   1.000  C
  C424     1.0000 0.85032  0.41560  0.34382  Biso   1.000  C
  C425     1.0000 0.31333  0.19090  0.80393  Biso   1.000  C
  C426     1.0000 0.68667  0.19090  0.69607  Biso   1.000  C
  C427     1.0000 0.81333  0.69090  0.80393  Biso   1.000  C
  C428     1.0000 0.18667  0.69090  0.69607  Biso   1.000  C
  C429     1.0000 0.68667  0.80910  0.19607  Biso   1.000  C
  C430     1.0000 0.31333  0.80910  0.30393  Biso   1.000  C
  C431     1.0000 0.18667  0.30910  0.19607  Biso   1.000  C
  C432     1.0000 0.81333  0.30910  0.30393  Biso   1.000  C
  C433     1.0000 0.31728  0.07830  0.81510  Biso   1.000  C
  C434     1.0000 0.68272  0.07830  0.68490  Biso   1.000  C
  C435     1.0000 0.81728  0.57830  0.81510  Biso   1.000  C
  C436     1.0000 0.18272  0.57830  0.68490  Biso   1.000  C
  C437     1.0000 0.68272  0.92170  0.18490  Biso   1.000  C
  C438     1.0000 0.31728  0.92170  0.31510  Biso   1.000  C
  C439     1.0000 0.18272  0.42170  0.18490  Biso   1.000  C
  C440     1.0000 0.81728  0.42170  0.31510  Biso   1.000  C
  C441     1.0000 0.47433  0.03770  0.82270  Biso   1.000  C
  C442     1.0000 0.52567  0.03770  0.67730  Biso   1.000  C
  C443     1.0000 0.97433  0.53770  0.82270  Biso   1.000  C
  C444     1.0000 0.02567  0.53770  0.67730  Biso   1.000  C
  C445     1.0000 0.52567  0.96230  0.17730  Biso   1.000  C
  C446     1.0000 0.47433  0.96230  0.32270  Biso   1.000  C
  C447     1.0000 0.02567  0.46230  0.17730  Biso   1.000  C
  C448     1.0000 0.97433  0.46230  0.32270  Biso   1.000  C
  C449     1.0000 0.52440  0.97940  0.86747  Biso   1.000  C
  C450     1.0000 0.47560  0.97940  0.63253  Biso   1.000  C
  C451     1.0000 0.02440  0.47940  0.86747  Biso   1.000  C
  C452     1.0000 0.97560  0.47940  0.63253  Biso   1.000  C
  C453     1.0000 0.47560  0.02060  0.13253  Biso   1.000  C
  C454     1.0000 0.52440  0.02060  0.36747  Biso   1.000  C
  C455     1.0000 0.97560  0.52060  0.13253  Biso   1.000  C
  C456     1.0000 0.02440  0.52060  0.36747  Biso   1.000  C
  H225     1.0000 0.35760  0.24330  0.83950  Biso   1.000  H
  H226     1.0000 0.64240  0.24330  0.66050  Biso   1.000  H
  H227     1.0000 0.85760  0.74330  0.83950  Biso   1.000  H
  H228     1.0000 0.14240  0.74330  0.66050  Biso   1.000  H
  H229     1.0000 0.64240  0.75670  0.16050  Biso   1.000  H
  H230     1.0000 0.35760  0.75670  0.33950  Biso   1.000  H
  H231     1.0000 0.14240  0.25670  0.16050  Biso   1.000  H
  H232     1.0000 0.85760  0.25670  0.33950  Biso   1.000  H
  H233     1.0000 0.36280  0.04670  0.85740  Biso   1.000  H
  H234     1.0000 0.63720  0.04670  0.64260  Biso   1.000  H
  H235     1.0000 0.86280  0.54670  0.85740  Biso   1.000  H
  H236     1.0000 0.13720  0.54670  0.64260  Biso   1.000  H
  H237     1.0000 0.63720  0.95330  0.14260  Biso   1.000  H
  H238     1.0000 0.36280  0.95330  0.35740  Biso   1.000  H
  H239     1.0000 0.13720  0.45330  0.14260  Biso   1.000  H
  H240     1.0000 0.86280  0.45330  0.35740  Biso   1.000  H
  H241     1.0000 0.30060  0.22810  0.79000  Biso   1.000  H
  H242     1.0000 0.69940  0.22810  0.71000  Biso   1.000  H
  H243     1.0000 0.80060  0.72810  0.79000  Biso   1.000  H
  H244     1.0000 0.19940  0.72810  0.71000  Biso   1.000  H
  H245     1.0000 0.69940  0.77190  0.21000  Biso   1.000  H
  H246     1.0000 0.30060  0.77190  0.29000  Biso   1.000  H
  H247     1.0000 0.19940  0.27190  0.21000  Biso   1.000  H
  H248     1.0000 0.80060  0.27190  0.29000  Biso   1.000  H
  H249     1.0000 0.30690  0.03560  0.80870  Biso   1.000  H
  H250     1.0000 0.69310  0.03560  0.69130  Biso   1.000  H
  H251     1.0000 0.80690  0.53560  0.80870  Biso   1.000  H
  H252     1.0000 0.19310  0.53560  0.69130  Biso   1.000  H
  H253     1.0000 0.69310  0.96440  0.19130  Biso   1.000  H
  H254     1.0000 0.30690  0.96440  0.30870  Biso   1.000  H
  H255     1.0000 0.19310  0.46440  0.19130  Biso   1.000  H
  H256     1.0000 0.80690  0.46440  0.30870  Biso   1.000  H
  H257     1.0000 0.45720  0.07410  0.81760  Biso   1.000  H
  H258     1.0000 0.54280  0.07410  0.68240  Biso   1.000  H
  H259     1.0000 0.95720  0.57410  0.81760  Biso   1.000  H
  H260     1.0000 0.04280  0.57410  0.68240  Biso   1.000  H
  H261     1.0000 0.54280  0.92590  0.18240  Biso   1.000  H
  H262     1.0000 0.45720  0.92590  0.31760  Biso   1.000  H
  H263     1.0000 0.04280  0.42590  0.18240  Biso   1.000  H
  H264     1.0000 0.95720  0.42590  0.31760  Biso   1.000  H
  H265     1.0000 0.54110  0.97360  0.89420  Biso   1.000  H
  H266     1.0000 0.45890  0.97360  0.60580  Biso   1.000  H
  H267     1.0000 0.04110  0.47360  0.89420  Biso   1.000  H
  H268     1.0000 0.95890  0.47360  0.60580  Biso   1.000  H
  H269     1.0000 0.45890  0.02640  0.10580  Biso   1.000  H
  H270     1.0000 0.54110  0.02640  0.39420  Biso   1.000  H
  H271     1.0000 0.95890  0.52640  0.10580  Biso   1.000  H
  H272     1.0000 0.04110  0.52640  0.39420  Biso   1.000  H
  H273     1.0000 0.45730  0.99110  0.76530  Biso   1.000  H
  H274     1.0000 0.54270  0.99110  0.73470  Biso   1.000  H
  H275     1.0000 0.95730  0.49110  0.76530  Biso   1.000  H
  H276     1.0000 0.04270  0.49110  0.73470  Biso   1.000  H
  H277     1.0000 0.54270  0.00890  0.23470  Biso   1.000  H
  H278     1.0000 0.45730  0.00890  0.26530  Biso   1.000  H
  H279     1.0000 0.04270  0.50890  0.23470  Biso   1.000  H
  H280     1.0000 0.95730  0.50890  0.26530  Biso   1.000  H
  H281     1.0000 0.54310  0.90110  0.83600  Biso   1.000  H
  H282     1.0000 0.45690  0.90110  0.66400  Biso   1.000  H
  H283     1.0000 0.04310  0.40110  0.83600  Biso   1.000  H
  H284     1.0000 0.95690  0.40110  0.66400  Biso   1.000  H
  H285     1.0000 0.45690  0.09890  0.16400  Biso   1.000  H
  H286     1.0000 0.54310  0.09890  0.33600  Biso   1.000  H
  H287     1.0000 0.95690  0.59890  0.16400  Biso   1.000  H
  H288     1.0000 0.04310  0.59890  0.33600  Biso   1.000  H
