data_image0
_cell_length_a       27.798
_cell_length_b       16.2
_cell_length_c       19.129
_cell_angle_alpha    90
_cell_angle_beta     98.338
_cell_angle_gamma    90

_symmetry_space_group_name_H-M    "P 1"
_symmetry_int_tables_number       1

loop_
  _symmetry_equiv_pos_as_xyz
  'x, y, z'

loop_
  _atom_site_label
  _atom_site_occupancy
  _atom_site_fract_x
  _atom_site_fract_y
  _atom_site_fract_z
  _atom_site_thermal_displace_type
  _atom_site_B_iso_or_equiv
  _atom_site_type_symbol
  Gd1      1.0000 0.00000  0.37599  0.25000  Biso   1.000  Gd
  Gd2      1.0000 0.50000  0.87599  0.25000  Biso   1.000  Gd
  Gd3      1.0000 0.00000  0.62401  0.75000  Biso   1.000  Gd
  Gd4      1.0000 0.50000  0.12401  0.75000  Biso   1.000  Gd
  Cu1      1.0000 0.02180  0.38099  0.07243  Biso   1.000  Cu
  Cu2      1.0000 0.52180  0.88099  0.07243  Biso   1.000  Cu
  Cu3      1.0000 0.97820  0.38099  0.42757  Biso   1.000  Cu
  Cu4      1.0000 0.47820  0.88099  0.42757  Biso   1.000  Cu
  Cu5      1.0000 0.97820  0.61901  0.92757  Biso   1.000  Cu
  Cu6      1.0000 0.47820  0.11901  0.92757  Biso   1.000  Cu
  Cu7      1.0000 0.02180  0.61901  0.57243  Biso   1.000  Cu
  Cu8      1.0000 0.52180  0.11901  0.57243  Biso   1.000  Cu
  Cl1      1.0000 0.34385  0.23647  0.06891  Biso   1.000  Cl
  Cl2      1.0000 0.84385  0.73647  0.06891  Biso   1.000  Cl
  Cl3      1.0000 0.65615  0.23647  0.43109  Biso   1.000  Cl
  Cl4      1.0000 0.15615  0.73647  0.43109  Biso   1.000  Cl
  Cl5      1.0000 0.65615  0.76353  0.93109  Biso   1.000  Cl
  Cl6      1.0000 0.15615  0.26353  0.93109  Biso   1.000  Cl
  Cl7      1.0000 0.34385  0.76353  0.56891  Biso   1.000  Cl
  Cl8      1.0000 0.84385  0.26353  0.56891  Biso   1.000  Cl
  Cl9      1.0000 0.97674  0.87054  0.12005  Biso   1.000  Cl
  Cl10     1.0000 0.47674  0.37054  0.12005  Biso   1.000  Cl
  Cl11     1.0000 0.02326  0.87054  0.37995  Biso   1.000  Cl
  Cl12     1.0000 0.52326  0.37054  0.37995  Biso   1.000  Cl
  Cl13     1.0000 0.02326  0.12946  0.87995  Biso   1.000  Cl
  Cl14     1.0000 0.52326  0.62946  0.87995  Biso   1.000  Cl
  Cl15     1.0000 0.97674  0.12946  0.62005  Biso   1.000  Cl
  Cl16     1.0000 0.47674  0.62946  0.62005  Biso   1.000  Cl
  Cl17     1.0000 0.75984  0.47251  0.79750  Biso   1.000  Cl
  Cl18     1.0000 0.25984  0.97251  0.79750  Biso   1.000  Cl
  Cl19     1.0000 0.24016  0.47251  0.70250  Biso   1.000  Cl
  Cl20     1.0000 0.74016  0.97251  0.70250  Biso   1.000  Cl
  Cl21     1.0000 0.24016  0.52749  0.20250  Biso   1.000  Cl
  Cl22     1.0000 0.74016  0.02749  0.20250  Biso   1.000  Cl
  Cl23     1.0000 0.75984  0.52749  0.29750  Biso   1.000  Cl
  Cl24     1.0000 0.25984  0.02749  0.29750  Biso   1.000  Cl
  Cl25     1.0000 0.80409  0.26179  0.00848  Biso   1.000  Cl
  Cl26     1.0000 0.30409  0.76179  0.00848  Biso   1.000  Cl
  Cl27     1.0000 0.19591  0.26179  0.49152  Biso   1.000  Cl
  Cl28     1.0000 0.69591  0.76179  0.49152  Biso   1.000  Cl
  Cl29     1.0000 0.19591  0.73821  0.99152  Biso   1.000  Cl
  Cl30     1.0000 0.69591  0.23821  0.99152  Biso   1.000  Cl
  Cl31     1.0000 0.80409  0.73821  0.50848  Biso   1.000  Cl
  Cl32     1.0000 0.30409  0.23821  0.50848  Biso   1.000  Cl
  O1       1.0000 0.03783  0.37195  0.96314  Biso   1.000  O
  O2       1.0000 0.53783  0.87195  0.96314  Biso   1.000  O
  O3       1.0000 0.96217  0.37195  0.53686  Biso   1.000  O
  O4       1.0000 0.46217  0.87195  0.53686  Biso   1.000  O
  O5       1.0000 0.96217  0.62805  0.03686  Biso   1.000  O
  O6       1.0000 0.46217  0.12805  0.03686  Biso   1.000  O
  O7       1.0000 0.03783  0.62805  0.46314  Biso   1.000  O
  O8       1.0000 0.53783  0.12805  0.46314  Biso   1.000  O
  O9       1.0000 0.99275  0.27159  0.06301  Biso   1.000  O
  O10      1.0000 0.49275  0.77159  0.06301  Biso   1.000  O
  O11      1.0000 0.00725  0.27159  0.43699  Biso   1.000  O
  O12      1.0000 0.50725  0.77159  0.43699  Biso   1.000  O
  O13      1.0000 0.00725  0.72841  0.93699  Biso   1.000  O
  O14      1.0000 0.50725  0.22841  0.93699  Biso   1.000  O
  O15      1.0000 0.99275  0.72841  0.56301  Biso   1.000  O
  O16      1.0000 0.49275  0.22841  0.56301  Biso   1.000  O
  O17      1.0000 0.03496  0.06618  0.20305  Biso   1.000  O
  O18      1.0000 0.53496  0.56618  0.20305  Biso   1.000  O
  O19      1.0000 0.96504  0.06618  0.29695  Biso   1.000  O
  O20      1.0000 0.46504  0.56618  0.29695  Biso   1.000  O
  O21      1.0000 0.96504  0.93382  0.79695  Biso   1.000  O
  O22      1.0000 0.46504  0.43382  0.79695  Biso   1.000  O
  O23      1.0000 0.03496  0.93382  0.70305  Biso   1.000  O
  O24      1.0000 0.53496  0.43382  0.70305  Biso   1.000  O
  O25      1.0000 0.99200  0.25729  0.17791  Biso   1.000  O
  O26      1.0000 0.49200  0.75729  0.17791  Biso   1.000  O
  O27      1.0000 0.00800  0.25729  0.32209  Biso   1.000  O
  O28      1.0000 0.50800  0.75729  0.32209  Biso   1.000  O
  O29      1.0000 0.00800  0.74271  0.82209  Biso   1.000  O
  O30      1.0000 0.50800  0.24271  0.82209  Biso   1.000  O
  O31      1.0000 0.99200  0.74271  0.67791  Biso   1.000  O
  O32      1.0000 0.49200  0.24271  0.67791  Biso   1.000  O
  O33      1.0000 0.57085  0.10556  0.84456  Biso   1.000  O
  O34      1.0000 0.07085  0.60556  0.84456  Biso   1.000  O
  O35      1.0000 0.42915  0.10556  0.65544  Biso   1.000  O
  O36      1.0000 0.92915  0.60556  0.65544  Biso   1.000  O
  O37      1.0000 0.42915  0.89444  0.15544  Biso   1.000  O
  O38      1.0000 0.92915  0.39444  0.15544  Biso   1.000  O
  O39      1.0000 0.57085  0.89444  0.34456  Biso   1.000  O
  O40      1.0000 0.07085  0.39444  0.34456  Biso   1.000  O
  O41      1.0000 0.65816  0.46712  0.63378  Biso   1.000  O
  O42      1.0000 0.15816  0.96712  0.63378  Biso   1.000  O
  O43      1.0000 0.34184  0.46712  0.86622  Biso   1.000  O
  O44      1.0000 0.84184  0.96712  0.86622  Biso   1.000  O
  O45      1.0000 0.34184  0.53288  0.36622  Biso   1.000  O
  O46      1.0000 0.84184  0.03288  0.36622  Biso   1.000  O
  O47      1.0000 0.65816  0.53288  0.13378  Biso   1.000  O
  O48      1.0000 0.15816  0.03288  0.13378  Biso   1.000  O
  O49      1.0000 0.54486  0.07305  0.94669  Biso   1.000  O
  O50      1.0000 0.04486  0.57305  0.94669  Biso   1.000  O
  O51      1.0000 0.45514  0.07305  0.55331  Biso   1.000  O
  O52      1.0000 0.95514  0.57305  0.55331  Biso   1.000  O
  O53      1.0000 0.45514  0.92695  0.05331  Biso   1.000  O
  O54      1.0000 0.95514  0.42695  0.05331  Biso   1.000  O
  O55      1.0000 0.54486  0.92695  0.44669  Biso   1.000  O
  O56      1.0000 0.04486  0.42695  0.44669  Biso   1.000  O
  O57      1.0000 0.07949  0.14052  0.09673  Biso   1.000  O
  O58      1.0000 0.57949  0.64052  0.09673  Biso   1.000  O
  O59      1.0000 0.92051  0.14052  0.40327  Biso   1.000  O
  O60      1.0000 0.42051  0.64052  0.40327  Biso   1.000  O
  O61      1.0000 0.92051  0.85948  0.90327  Biso   1.000  O
  O62      1.0000 0.42051  0.35948  0.90327  Biso   1.000  O
  O63      1.0000 0.07949  0.85948  0.59673  Biso   1.000  O
  O64      1.0000 0.57949  0.35948  0.59673  Biso   1.000  O
  O65      1.0000 0.04752  0.49197  0.09276  Biso   1.000  O
  O66      1.0000 0.54752  0.99197  0.09276  Biso   1.000  O
  O67      1.0000 0.95248  0.49197  0.40724  Biso   1.000  O
  O68      1.0000 0.45248  0.99197  0.40724  Biso   1.000  O
  O69      1.0000 0.95248  0.50803  0.90724  Biso   1.000  O
  O70      1.0000 0.45248  0.00803  0.90724  Biso   1.000  O
  O71      1.0000 0.04752  0.50803  0.59276  Biso   1.000  O
  O72      1.0000 0.54752  0.00803  0.59276  Biso   1.000  O
  O73      1.0000 0.01080  0.50054  0.19137  Biso   1.000  O
  O74      1.0000 0.51080  0.00054  0.19137  Biso   1.000  O
  O75      1.0000 0.98920  0.50054  0.30863  Biso   1.000  O
  O76      1.0000 0.48920  0.00054  0.30863  Biso   1.000  O
  O77      1.0000 0.98920  0.49946  0.80863  Biso   1.000  O
  O78      1.0000 0.48920  0.99946  0.80863  Biso   1.000  O
  O79      1.0000 0.01080  0.49946  0.69137  Biso   1.000  O
  O80      1.0000 0.51080  0.99946  0.69137  Biso   1.000  O
  O81      1.0000 0.41397  0.83481  0.39006  Biso   1.000  O
  O82      1.0000 0.91397  0.33481  0.39006  Biso   1.000  O
  O83      1.0000 0.58603  0.83481  0.10994  Biso   1.000  O
  O84      1.0000 0.08603  0.33481  0.10994  Biso   1.000  O
  O85      1.0000 0.58603  0.16519  0.60994  Biso   1.000  O
  O86      1.0000 0.08603  0.66519  0.60994  Biso   1.000  O
  O87      1.0000 0.41397  0.16519  0.89006  Biso   1.000  O
  O88      1.0000 0.91397  0.66519  0.89006  Biso   1.000  O
  O89      1.0000 0.42444  0.86220  0.27662  Biso   1.000  O
  O90      1.0000 0.92444  0.36220  0.27662  Biso   1.000  O
  O91      1.0000 0.57556  0.86220  0.22338  Biso   1.000  O
  O92      1.0000 0.07556  0.36220  0.22338  Biso   1.000  O
  O93      1.0000 0.57556  0.13780  0.72338  Biso   1.000  O
  O94      1.0000 0.07556  0.63780  0.72338  Biso   1.000  O
  O95      1.0000 0.42444  0.13780  0.77662  Biso   1.000  O
  O96      1.0000 0.92444  0.63780  0.77662  Biso   1.000  O
  O97      1.0000 0.37290  0.16874  0.09700  Biso   1.000  O
  O98      1.0000 0.87290  0.66874  0.09700  Biso   1.000  O
  O99      1.0000 0.62710  0.16874  0.40300  Biso   1.000  O
  O100     1.0000 0.12710  0.66874  0.40300  Biso   1.000  O
  O101     1.0000 0.62710  0.83126  0.90300  Biso   1.000  O
  O102     1.0000 0.12710  0.33126  0.90300  Biso   1.000  O
  O103     1.0000 0.37290  0.83126  0.59700  Biso   1.000  O
  O104     1.0000 0.87290  0.33126  0.59700  Biso   1.000  O
  O105     1.0000 0.36402  0.27021  0.01079  Biso   1.000  O
  O106     1.0000 0.86402  0.77021  0.01079  Biso   1.000  O
  O107     1.0000 0.63598  0.27021  0.48921  Biso   1.000  O
  O108     1.0000 0.13598  0.77021  0.48921  Biso   1.000  O
  O109     1.0000 0.63598  0.72979  0.98921  Biso   1.000  O
  O110     1.0000 0.13598  0.22979  0.98921  Biso   1.000  O
  O111     1.0000 0.36402  0.72979  0.51079  Biso   1.000  O
  O112     1.0000 0.86402  0.22979  0.51079  Biso   1.000  O
  O113     1.0000 0.34326  0.29935  0.12188  Biso   1.000  O
  O114     1.0000 0.84326  0.79935  0.12188  Biso   1.000  O
  O115     1.0000 0.65674  0.29935  0.37812  Biso   1.000  O
  O116     1.0000 0.15674  0.79935  0.37812  Biso   1.000  O
  O117     1.0000 0.65674  0.70065  0.87812  Biso   1.000  O
  O118     1.0000 0.15674  0.20065  0.87812  Biso   1.000  O
  O119     1.0000 0.34326  0.70065  0.62188  Biso   1.000  O
  O120     1.0000 0.84326  0.20065  0.62188  Biso   1.000  O
  O121     1.0000 0.29533  0.21025  0.04445  Biso   1.000  O
  O122     1.0000 0.79533  0.71025  0.04445  Biso   1.000  O
  O123     1.0000 0.70467  0.21025  0.45555  Biso   1.000  O
  O124     1.0000 0.20467  0.71025  0.45555  Biso   1.000  O
  O125     1.0000 0.70467  0.78975  0.95555  Biso   1.000  O
  O126     1.0000 0.20467  0.28975  0.95555  Biso   1.000  O
  O127     1.0000 0.29533  0.78975  0.54445  Biso   1.000  O
  O128     1.0000 0.79533  0.28975  0.54445  Biso   1.000  O
  O129     1.0000 0.98050  0.78262  0.12901  Biso   1.000  O
  O130     1.0000 0.48050  0.28262  0.12901  Biso   1.000  O
  O131     1.0000 0.01950  0.78262  0.37099  Biso   1.000  O
  O132     1.0000 0.51950  0.28262  0.37099  Biso   1.000  O
  O133     1.0000 0.01950  0.21738  0.87099  Biso   1.000  O
  O134     1.0000 0.51950  0.71738  0.87099  Biso   1.000  O
  O135     1.0000 0.98050  0.21738  0.62901  Biso   1.000  O
  O136     1.0000 0.48050  0.71738  0.62901  Biso   1.000  O
  O137     1.0000 0.95490  0.89045  0.04974  Biso   1.000  O
  O138     1.0000 0.45490  0.39045  0.04974  Biso   1.000  O
  O139     1.0000 0.04510  0.89045  0.45026  Biso   1.000  O
  O140     1.0000 0.54510  0.39045  0.45026  Biso   1.000  O
  O141     1.0000 0.04510  0.10955  0.95026  Biso   1.000  O
  O142     1.0000 0.54510  0.60955  0.95026  Biso   1.000  O
  O143     1.0000 0.95490  0.10955  0.54974  Biso   1.000  O
  O144     1.0000 0.45490  0.60955  0.54974  Biso   1.000  O
  O145     1.0000 0.94786  0.90385  0.16917  Biso   1.000  O
  O146     1.0000 0.44786  0.40385  0.16917  Biso   1.000  O
  O147     1.0000 0.05214  0.90385  0.33083  Biso   1.000  O
  O148     1.0000 0.55214  0.40385  0.33083  Biso   1.000  O
  O149     1.0000 0.05214  0.09615  0.83083  Biso   1.000  O
  O150     1.0000 0.55214  0.59615  0.83083  Biso   1.000  O
  O151     1.0000 0.94786  0.09615  0.66917  Biso   1.000  O
  O152     1.0000 0.44786  0.59615  0.66917  Biso   1.000  O
  O153     1.0000 0.02474  0.90540  0.13177  Biso   1.000  O
  O154     1.0000 0.52474  0.40540  0.13177  Biso   1.000  O
  O155     1.0000 0.97526  0.90540  0.36823  Biso   1.000  O
  O156     1.0000 0.47526  0.40540  0.36823  Biso   1.000  O
  O157     1.0000 0.97526  0.09460  0.86823  Biso   1.000  O
  O158     1.0000 0.47526  0.59460  0.86823  Biso   1.000  O
  O159     1.0000 0.02474  0.09460  0.63177  Biso   1.000  O
  O160     1.0000 0.52474  0.59460  0.63177  Biso   1.000  O
  O161     1.0000 0.78736  0.42521  0.84509  Biso   1.000  O
  O162     1.0000 0.28736  0.92521  0.84509  Biso   1.000  O
  O163     1.0000 0.21264  0.42521  0.65491  Biso   1.000  O
  O164     1.0000 0.71264  0.92521  0.65491  Biso   1.000  O
  O165     1.0000 0.21264  0.57479  0.15491  Biso   1.000  O
  O166     1.0000 0.71264  0.07479  0.15491  Biso   1.000  O
  O167     1.0000 0.78736  0.57479  0.34509  Biso   1.000  O
  O168     1.0000 0.28736  0.07479  0.34509  Biso   1.000  O
  O169     1.0000 0.78259  0.53110  0.75830  Biso   1.000  O
  O170     1.0000 0.28259  0.03110  0.75830  Biso   1.000  O
  O171     1.0000 0.21741  0.53110  0.74170  Biso   1.000  O
  O172     1.0000 0.71741  0.03110  0.74170  Biso   1.000  O
  O173     1.0000 0.21741  0.46890  0.24170  Biso   1.000  O
  O174     1.0000 0.71741  0.96890  0.24170  Biso   1.000  O
  O175     1.0000 0.78259  0.46890  0.25830  Biso   1.000  O
  O176     1.0000 0.28259  0.96890  0.25830  Biso   1.000  O
  O177     1.0000 0.74005  0.41869  0.74527  Biso   1.000  O
  O178     1.0000 0.24005  0.91869  0.74527  Biso   1.000  O
  O179     1.0000 0.25995  0.41869  0.75473  Biso   1.000  O
  O180     1.0000 0.75995  0.91869  0.75473  Biso   1.000  O
  O181     1.0000 0.25995  0.58131  0.25473  Biso   1.000  O
  O182     1.0000 0.75995  0.08131  0.25473  Biso   1.000  O
  O183     1.0000 0.74005  0.58131  0.24527  Biso   1.000  O
  O184     1.0000 0.24005  0.08131  0.24527  Biso   1.000  O
  O185     1.0000 0.73322  0.52307  0.83459  Biso   1.000  O
  O186     1.0000 0.23322  0.02307  0.83459  Biso   1.000  O
  O187     1.0000 0.26678  0.52307  0.66541  Biso   1.000  O
  O188     1.0000 0.76678  0.02307  0.66541  Biso   1.000  O
  O189     1.0000 0.26678  0.47693  0.16541  Biso   1.000  O
  O190     1.0000 0.76678  0.97693  0.16541  Biso   1.000  O
  O191     1.0000 0.73322  0.47693  0.33459  Biso   1.000  O
  O192     1.0000 0.23322  0.97693  0.33459  Biso   1.000  O
  O193     1.0000 0.80990  0.20718  0.06565  Biso   1.000  O
  O194     1.0000 0.30990  0.70718  0.06565  Biso   1.000  O
  O195     1.0000 0.19010  0.20718  0.43435  Biso   1.000  O
  O196     1.0000 0.69010  0.70718  0.43435  Biso   1.000  O
  O197     1.0000 0.19010  0.79282  0.93435  Biso   1.000  O
  O198     1.0000 0.69010  0.29282  0.93435  Biso   1.000  O
  O199     1.0000 0.80990  0.79282  0.56565  Biso   1.000  O
  O200     1.0000 0.30990  0.29282  0.56565  Biso   1.000  O
  O201     1.0000 0.77428  0.32655  0.02673  Biso   1.000  O
  O202     1.0000 0.27428  0.82655  0.02673  Biso   1.000  O
  O203     1.0000 0.22572  0.32655  0.47327  Biso   1.000  O
  O204     1.0000 0.72572  0.82655  0.47327  Biso   1.000  O
  O205     1.0000 0.22572  0.67345  0.97327  Biso   1.000  O
  O206     1.0000 0.72572  0.17345  0.97327  Biso   1.000  O
  O207     1.0000 0.77428  0.67345  0.52673  Biso   1.000  O
  O208     1.0000 0.27428  0.17345  0.52673  Biso   1.000  O
  O209     1.0000 0.83646  0.28990  0.98290  Biso   1.000  O
  O210     1.0000 0.33646  0.78990  0.98290  Biso   1.000  O
  O211     1.0000 0.16354  0.28990  0.51710  Biso   1.000  O
  O212     1.0000 0.66354  0.78990  0.51710  Biso   1.000  O
  O213     1.0000 0.16354  0.71010  0.01710  Biso   1.000  O
  O214     1.0000 0.66354  0.21010  0.01710  Biso   1.000  O
  O215     1.0000 0.83646  0.71010  0.48290  Biso   1.000  O
  O216     1.0000 0.33646  0.21010  0.48290  Biso   1.000  O
  O217     1.0000 0.79580  0.23240  0.94816  Biso   1.000  O
  O218     1.0000 0.29580  0.73240  0.94816  Biso   1.000  O
  O219     1.0000 0.20420  0.23240  0.55184  Biso   1.000  O
  O220     1.0000 0.70420  0.73240  0.55184  Biso   1.000  O
  O221     1.0000 0.20420  0.76760  0.05184  Biso   1.000  O
  O222     1.0000 0.70420  0.26760  0.05184  Biso   1.000  O
  O223     1.0000 0.79580  0.76760  0.44816  Biso   1.000  O
  O224     1.0000 0.29580  0.26760  0.44816  Biso   1.000  O
  O225     1.0000 0.05411  0.47469  0.20500  Biso   1.000  O
  O226     1.0000 0.55411  0.97469  0.20500  Biso   1.000  O
  O227     1.0000 0.94589  0.47469  0.29500  Biso   1.000  O
  O228     1.0000 0.44589  0.97469  0.29500  Biso   1.000  O
  O229     1.0000 0.94589  0.52531  0.79500  Biso   1.000  O
  O230     1.0000 0.44589  0.02531  0.79500  Biso   1.000  O
  O231     1.0000 0.05411  0.52531  0.70500  Biso   1.000  O
  O232     1.0000 0.55411  0.02531  0.70500  Biso   1.000  O
  O233     1.0000 0.96777  0.28036  0.16529  Biso   1.000  O
  O234     1.0000 0.46777  0.78036  0.16529  Biso   1.000  O
  O235     1.0000 0.03223  0.28036  0.33471  Biso   1.000  O
  O236     1.0000 0.53223  0.78036  0.33471  Biso   1.000  O
  O237     1.0000 0.03223  0.71964  0.83471  Biso   1.000  O
  O238     1.0000 0.53223  0.21964  0.83471  Biso   1.000  O
  O239     1.0000 0.96777  0.71964  0.66529  Biso   1.000  O
  O240     1.0000 0.46777  0.21964  0.66529  Biso   1.000  O
  O241     1.0000 0.54689  0.04562  0.83701  Biso   1.000  O
  O242     1.0000 0.04689  0.54562  0.83701  Biso   1.000  O
  O243     1.0000 0.45311  0.04562  0.66299  Biso   1.000  O
  O244     1.0000 0.95311  0.54562  0.66299  Biso   1.000  O
  O245     1.0000 0.45311  0.95438  0.16299  Biso   1.000  O
  O246     1.0000 0.95311  0.45438  0.16299  Biso   1.000  O
  O247     1.0000 0.54689  0.95438  0.33701  Biso   1.000  O
  O248     1.0000 0.04689  0.45438  0.33701  Biso   1.000  O
  O249     1.0000 0.43004  0.80173  0.28759  Biso   1.000  O
  O250     1.0000 0.93004  0.30173  0.28759  Biso   1.000  O
  O251     1.0000 0.56996  0.80173  0.21241  Biso   1.000  O
  O252     1.0000 0.06996  0.30173  0.21241  Biso   1.000  O
  O253     1.0000 0.56996  0.19827  0.71241  Biso   1.000  O
  O254     1.0000 0.06996  0.69827  0.71241  Biso   1.000  O
  O255     1.0000 0.43004  0.19827  0.78759  Biso   1.000  O
  O256     1.0000 0.93004  0.69827  0.78759  Biso   1.000  O
  N1       1.0000 0.88216  0.03728  0.06301  Biso   1.000  N
  N2       1.0000 0.38216  0.53728  0.06301  Biso   1.000  N
  N3       1.0000 0.11784  0.03728  0.43699  Biso   1.000  N
  N4       1.0000 0.61784  0.53728  0.43699  Biso   1.000  N
  N5       1.0000 0.11784  0.96272  0.93699  Biso   1.000  N
  N6       1.0000 0.61784  0.46272  0.93699  Biso   1.000  N
  N7       1.0000 0.88216  0.96272  0.56301  Biso   1.000  N
  N8       1.0000 0.38216  0.46272  0.56301  Biso   1.000  N
  N9       1.0000 0.71287  0.96975  0.96578  Biso   1.000  N
  N10      1.0000 0.21287  0.46975  0.96578  Biso   1.000  N
  N11      1.0000 0.28713  0.96975  0.53422  Biso   1.000  N
  N12      1.0000 0.78713  0.46975  0.53422  Biso   1.000  N
  N13      1.0000 0.28713  0.03025  0.03422  Biso   1.000  N
  N14      1.0000 0.78713  0.53025  0.03422  Biso   1.000  N
  N15      1.0000 0.71287  0.03025  0.46578  Biso   1.000  N
  N16      1.0000 0.21287  0.53025  0.46578  Biso   1.000  N
  N17      1.0000 0.09851  0.76595  0.19028  Biso   1.000  N
  N18      1.0000 0.59851  0.26595  0.19028  Biso   1.000  N
  N19      1.0000 0.90149  0.76595  0.30972  Biso   1.000  N
  N20      1.0000 0.40149  0.26595  0.30972  Biso   1.000  N
  N21      1.0000 0.90149  0.23405  0.80972  Biso   1.000  N
  N22      1.0000 0.40149  0.73405  0.80972  Biso   1.000  N
  N23      1.0000 0.09851  0.23405  0.69028  Biso   1.000  N
  N24      1.0000 0.59851  0.73405  0.69028  Biso   1.000  N
  N25      1.0000 0.25314  0.76833  0.25876  Biso   1.000  N
  N26      1.0000 0.75314  0.26833  0.25876  Biso   1.000  N
  N27      1.0000 0.74686  0.76833  0.24124  Biso   1.000  N
  N28      1.0000 0.24686  0.26833  0.24124  Biso   1.000  N
  N29      1.0000 0.74686  0.23167  0.74124  Biso   1.000  N
  N30      1.0000 0.24686  0.73167  0.74124  Biso   1.000  N
  N31      1.0000 0.25314  0.23167  0.75876  Biso   1.000  N
  N32      1.0000 0.75314  0.73167  0.75876  Biso   1.000  N
  C1       1.0000 0.97527  0.24119  0.11251  Biso   1.000  C
  C2       1.0000 0.47527  0.74119  0.11251  Biso   1.000  C
  C3       1.0000 0.02473  0.24119  0.38749  Biso   1.000  C
  C4       1.0000 0.52473  0.74119  0.38749  Biso   1.000  C
  C5       1.0000 0.02473  0.75881  0.88749  Biso   1.000  C
  C6       1.0000 0.52473  0.25881  0.88749  Biso   1.000  C
  C7       1.0000 0.97527  0.75881  0.61251  Biso   1.000  C
  C8       1.0000 0.47527  0.25881  0.61251  Biso   1.000  C
  C9       1.0000 0.94437  0.16559  0.09637  Biso   1.000  C
  C10      1.0000 0.44437  0.66559  0.09637  Biso   1.000  C
  C11      1.0000 0.05563  0.16559  0.40363  Biso   1.000  C
  C12      1.0000 0.55563  0.66559  0.40363  Biso   1.000  C
  C13      1.0000 0.05563  0.83441  0.90363  Biso   1.000  C
  C14      1.0000 0.55563  0.33441  0.90363  Biso   1.000  C
  C15      1.0000 0.94437  0.83441  0.59637  Biso   1.000  C
  C16      1.0000 0.44437  0.33441  0.59637  Biso   1.000  C
  C17      1.0000 0.91624  0.13627  0.14512  Biso   1.000  C
  C18      1.0000 0.41624  0.63627  0.14512  Biso   1.000  C
  C19      1.0000 0.08376  0.13627  0.35488  Biso   1.000  C
  C20      1.0000 0.58376  0.63627  0.35488  Biso   1.000  C
  C21      1.0000 0.08376  0.86373  0.85488  Biso   1.000  C
  C22      1.0000 0.58376  0.36373  0.85488  Biso   1.000  C
  C23      1.0000 0.91624  0.86373  0.64512  Biso   1.000  C
  C24      1.0000 0.41624  0.36373  0.64512  Biso   1.000  C
  H1       1.0000 0.91850  0.16000  0.18970  Biso   1.000  H
  H2       1.0000 0.41850  0.66000  0.18970  Biso   1.000  H
  H3       1.0000 0.08150  0.16000  0.31030  Biso   1.000  H
  H4       1.0000 0.58150  0.66000  0.31030  Biso   1.000  H
  H5       1.0000 0.08150  0.84000  0.81030  Biso   1.000  H
  H6       1.0000 0.58150  0.34000  0.81030  Biso   1.000  H
  H7       1.0000 0.91850  0.84000  0.68970  Biso   1.000  H
  H8       1.0000 0.41850  0.34000  0.68970  Biso   1.000  H
  C25      1.0000 0.88503  0.07178  0.12668  Biso   1.000  C
  C26      1.0000 0.38503  0.57178  0.12668  Biso   1.000  C
  C27      1.0000 0.11497  0.07178  0.37332  Biso   1.000  C
  C28      1.0000 0.61497  0.57178  0.37332  Biso   1.000  C
  C29      1.0000 0.11497  0.92822  0.87332  Biso   1.000  C
  C30      1.0000 0.61497  0.42822  0.87332  Biso   1.000  C
  C31      1.0000 0.88503  0.92822  0.62668  Biso   1.000  C
  C32      1.0000 0.38503  0.42822  0.62668  Biso   1.000  C
  H9       1.0000 0.86570  0.05200  0.15880  Biso   1.000  H
  H10      1.0000 0.36570  0.55200  0.15880  Biso   1.000  H
  H11      1.0000 0.13430  0.05200  0.34120  Biso   1.000  H
  H12      1.0000 0.63430  0.55200  0.34120  Biso   1.000  H
  H13      1.0000 0.13430  0.94800  0.84120  Biso   1.000  H
  H14      1.0000 0.63430  0.44800  0.84120  Biso   1.000  H
  H15      1.0000 0.86570  0.94800  0.65880  Biso   1.000  H
  H16      1.0000 0.36570  0.44800  0.65880  Biso   1.000  H
  C33      1.0000 0.91047  0.06268  0.01581  Biso   1.000  C
  C34      1.0000 0.41047  0.56268  0.01581  Biso   1.000  C
  C35      1.0000 0.08953  0.06268  0.48419  Biso   1.000  C
  C36      1.0000 0.58953  0.56268  0.48419  Biso   1.000  C
  C37      1.0000 0.08953  0.93732  0.98419  Biso   1.000  C
  C38      1.0000 0.58953  0.43732  0.98419  Biso   1.000  C
  C39      1.0000 0.91047  0.93732  0.51581  Biso   1.000  C
  C40      1.0000 0.41047  0.43732  0.51581  Biso   1.000  C
  H17      1.0000 0.90870  0.03630  0.97230  Biso   1.000  H
  H18      1.0000 0.40870  0.53630  0.97230  Biso   1.000  H
  H19      1.0000 0.09130  0.03630  0.52770  Biso   1.000  H
  H20      1.0000 0.59130  0.53630  0.52770  Biso   1.000  H
  H21      1.0000 0.09130  0.96370  0.02770  Biso   1.000  H
  H22      1.0000 0.59130  0.46370  0.02770  Biso   1.000  H
  H23      1.0000 0.90870  0.96370  0.47230  Biso   1.000  H
  H24      1.0000 0.40870  0.46370  0.47230  Biso   1.000  H
  C41      1.0000 0.94189  0.12726  0.03170  Biso   1.000  C
  C42      1.0000 0.44189  0.62726  0.03170  Biso   1.000  C
  C43      1.0000 0.05811  0.12726  0.46830  Biso   1.000  C
  C44      1.0000 0.55811  0.62726  0.46830  Biso   1.000  C
  C45      1.0000 0.05811  0.87274  0.96830  Biso   1.000  C
  C46      1.0000 0.55811  0.37274  0.96830  Biso   1.000  C
  C47      1.0000 0.94189  0.87274  0.53170  Biso   1.000  C
  C48      1.0000 0.44189  0.37274  0.53170  Biso   1.000  C
  H25      1.0000 0.96140  0.14510  0.99910  Biso   1.000  H
  H26      1.0000 0.46140  0.64510  0.99910  Biso   1.000  H
  H27      1.0000 0.03860  0.14510  0.50090  Biso   1.000  H
  H28      1.0000 0.53860  0.64510  0.50090  Biso   1.000  H
  H29      1.0000 0.03860  0.85490  0.00090  Biso   1.000  H
  H30      1.0000 0.53860  0.35490  0.00090  Biso   1.000  H
  H31      1.0000 0.96140  0.85490  0.49910  Biso   1.000  H
  H32      1.0000 0.46140  0.35490  0.49910  Biso   1.000  H
  C49      1.0000 0.84620  0.97110  0.04347  Biso   1.000  C
  C50      1.0000 0.34620  0.47110  0.04347  Biso   1.000  C
  C51      1.0000 0.15380  0.97110  0.45653  Biso   1.000  C
  C52      1.0000 0.65380  0.47110  0.45653  Biso   1.000  C
  C53      1.0000 0.15380  0.02890  0.95653  Biso   1.000  C
  C54      1.0000 0.65380  0.52890  0.95653  Biso   1.000  C
  C55      1.0000 0.84620  0.02890  0.54347  Biso   1.000  C
  C56      1.0000 0.34620  0.52890  0.54347  Biso   1.000  C
  H33      1.0000 0.84190  0.93940  0.08510  Biso   1.000  H
  H34      1.0000 0.34190  0.43940  0.08510  Biso   1.000  H
  H35      1.0000 0.15810  0.93940  0.41490  Biso   1.000  H
  H36      1.0000 0.65810  0.43940  0.41490  Biso   1.000  H
  H37      1.0000 0.15810  0.06060  0.91490  Biso   1.000  H
  H38      1.0000 0.65810  0.56060  0.91490  Biso   1.000  H
  H39      1.0000 0.84190  0.06060  0.58510  Biso   1.000  H
  H40      1.0000 0.34190  0.56060  0.58510  Biso   1.000  H
  H41      1.0000 0.85800  0.93410  0.00990  Biso   1.000  H
  H42      1.0000 0.35800  0.43410  0.00990  Biso   1.000  H
  H43      1.0000 0.14200  0.93410  0.49010  Biso   1.000  H
  H44      1.0000 0.64200  0.43410  0.49010  Biso   1.000  H
  H45      1.0000 0.14200  0.06590  0.99010  Biso   1.000  H
  H46      1.0000 0.64200  0.56590  0.99010  Biso   1.000  H
  H47      1.0000 0.85800  0.06590  0.50990  Biso   1.000  H
  H48      1.0000 0.35800  0.56590  0.50990  Biso   1.000  H
  C57      1.0000 0.79774  0.00813  0.01094  Biso   1.000  C
  C58      1.0000 0.29774  0.50813  0.01094  Biso   1.000  C
  C59      1.0000 0.20226  0.00813  0.48906  Biso   1.000  C
  C60      1.0000 0.70226  0.50813  0.48906  Biso   1.000  C
  C61      1.0000 0.20226  0.99187  0.98906  Biso   1.000  C
  C62      1.0000 0.70226  0.49187  0.98906  Biso   1.000  C
  C63      1.0000 0.79774  0.99187  0.51094  Biso   1.000  C
  C64      1.0000 0.29774  0.49187  0.51094  Biso   1.000  C
  H49      1.0000 0.78480  0.04280  0.04520  Biso   1.000  H
  H50      1.0000 0.28480  0.54280  0.04520  Biso   1.000  H
  H51      1.0000 0.21520  0.04280  0.45480  Biso   1.000  H
  H52      1.0000 0.71520  0.54280  0.45480  Biso   1.000  H
  H53      1.0000 0.21520  0.95720  0.95480  Biso   1.000  H
  H54      1.0000 0.71520  0.45720  0.95480  Biso   1.000  H
  H55      1.0000 0.78480  0.95720  0.54520  Biso   1.000  H
  H56      1.0000 0.28480  0.45720  0.54520  Biso   1.000  H
  H57      1.0000 0.80200  0.04180  0.97030  Biso   1.000  H
  H58      1.0000 0.30200  0.54180  0.97030  Biso   1.000  H
  H59      1.0000 0.19800  0.04180  0.52970  Biso   1.000  H
  H60      1.0000 0.69800  0.54180  0.52970  Biso   1.000  H
  H61      1.0000 0.19800  0.95820  0.02970  Biso   1.000  H
  H62      1.0000 0.69800  0.45820  0.02970  Biso   1.000  H
  H63      1.0000 0.80200  0.95820  0.47030  Biso   1.000  H
  H64      1.0000 0.30200  0.45820  0.47030  Biso   1.000  H
  C65      1.0000 0.76283  0.93744  0.98844  Biso   1.000  C
  C66      1.0000 0.26283  0.43744  0.98844  Biso   1.000  C
  C67      1.0000 0.23717  0.93744  0.51156  Biso   1.000  C
  C68      1.0000 0.73717  0.43744  0.51156  Biso   1.000  C
  C69      1.0000 0.23717  0.06256  0.01156  Biso   1.000  C
  C70      1.0000 0.73717  0.56256  0.01156  Biso   1.000  C
  C71      1.0000 0.76283  0.06256  0.48844  Biso   1.000  C
  C72      1.0000 0.26283  0.56256  0.48844  Biso   1.000  C
  H65      1.0000 0.77370  0.90750  0.94970  Biso   1.000  H
  H66      1.0000 0.27370  0.40750  0.94970  Biso   1.000  H
  H67      1.0000 0.22630  0.90750  0.55030  Biso   1.000  H
  H68      1.0000 0.72630  0.40750  0.55030  Biso   1.000  H
  H69      1.0000 0.22630  0.09250  0.05030  Biso   1.000  H
  H70      1.0000 0.72630  0.59250  0.05030  Biso   1.000  H
  H71      1.0000 0.77370  0.09250  0.44970  Biso   1.000  H
  H72      1.0000 0.27370  0.59250  0.44970  Biso   1.000  H
  H73      1.0000 0.76250  0.89950  0.02760  Biso   1.000  H
  H74      1.0000 0.26250  0.39950  0.02760  Biso   1.000  H
  H75      1.0000 0.23750  0.89950  0.47240  Biso   1.000  H
  H76      1.0000 0.73750  0.39950  0.47240  Biso   1.000  H
  H77      1.0000 0.23750  0.10050  0.97240  Biso   1.000  H
  H78      1.0000 0.73750  0.60050  0.97240  Biso   1.000  H
  H79      1.0000 0.76250  0.10050  0.52760  Biso   1.000  H
  H80      1.0000 0.26250  0.60050  0.52760  Biso   1.000  H
  C73      1.0000 0.68222  0.97585  0.01306  Biso   1.000  C
  C74      1.0000 0.18222  0.47585  0.01306  Biso   1.000  C
  C75      1.0000 0.31778  0.97585  0.48694  Biso   1.000  C
  C76      1.0000 0.81778  0.47585  0.48694  Biso   1.000  C
  C77      1.0000 0.31778  0.02415  0.98694  Biso   1.000  C
  C78      1.0000 0.81778  0.52415  0.98694  Biso   1.000  C
  C79      1.0000 0.68222  0.02415  0.51306  Biso   1.000  C
  C80      1.0000 0.18222  0.52415  0.51306  Biso   1.000  C
  H81      1.0000 0.69240  0.95980  0.05950  Biso   1.000  H
  H82      1.0000 0.19240  0.45980  0.05950  Biso   1.000  H
  H83      1.0000 0.30760  0.95980  0.44050  Biso   1.000  H
  H84      1.0000 0.80760  0.45980  0.44050  Biso   1.000  H
  H85      1.0000 0.30760  0.04020  0.94050  Biso   1.000  H
  H86      1.0000 0.80760  0.54020  0.94050  Biso   1.000  H
  H87      1.0000 0.69240  0.04020  0.55950  Biso   1.000  H
  H88      1.0000 0.19240  0.54020  0.55950  Biso   1.000  H
  C81      1.0000 0.63593  0.00548  0.99414  Biso   1.000  C
  C82      1.0000 0.13593  0.50548  0.99414  Biso   1.000  C
  C83      1.0000 0.36407  0.00548  0.50586  Biso   1.000  C
  C84      1.0000 0.86407  0.50548  0.50586  Biso   1.000  C
  C85      1.0000 0.36407  0.99452  0.00586  Biso   1.000  C
  C86      1.0000 0.86407  0.49452  0.00586  Biso   1.000  C
  C87      1.0000 0.63593  0.99452  0.49414  Biso   1.000  C
  C88      1.0000 0.13593  0.49452  0.49414  Biso   1.000  C
  H89      1.0000 0.61480  0.00970  0.02750  Biso   1.000  H
  H90      1.0000 0.11480  0.50970  0.02750  Biso   1.000  H
  H91      1.0000 0.38520  0.00970  0.47250  Biso   1.000  H
  H92      1.0000 0.88520  0.50970  0.47250  Biso   1.000  H
  H93      1.0000 0.38520  0.99030  0.97250  Biso   1.000  H
  H94      1.0000 0.88520  0.49030  0.97250  Biso   1.000  H
  H95      1.0000 0.61480  0.99030  0.52750  Biso   1.000  H
  H96      1.0000 0.11480  0.49030  0.52750  Biso   1.000  H
  C89      1.0000 0.62108  0.02903  0.92468  Biso   1.000  C
  C90      1.0000 0.12108  0.52903  0.92468  Biso   1.000  C
  C91      1.0000 0.37892  0.02903  0.57532  Biso   1.000  C
  C92      1.0000 0.87892  0.52903  0.57532  Biso   1.000  C
  C93      1.0000 0.37892  0.97097  0.07532  Biso   1.000  C
  C94      1.0000 0.87892  0.47097  0.07532  Biso   1.000  C
  C95      1.0000 0.62108  0.97097  0.42468  Biso   1.000  C
  C96      1.0000 0.12108  0.47097  0.42468  Biso   1.000  C
  C97      1.0000 0.65326  0.02158  0.87595  Biso   1.000  C
  C98      1.0000 0.15326  0.52158  0.87595  Biso   1.000  C
  C99      1.0000 0.34674  0.02158  0.62405  Biso   1.000  C
  C100     1.0000 0.84674  0.52158  0.62405  Biso   1.000  C
  C101     1.0000 0.34674  0.97842  0.12405  Biso   1.000  C
  C102     1.0000 0.84674  0.47842  0.12405  Biso   1.000  C
  C103     1.0000 0.65326  0.97842  0.37595  Biso   1.000  C
  C104     1.0000 0.15326  0.47842  0.37595  Biso   1.000  C
  H97      1.0000 0.64380  0.03660  0.82900  Biso   1.000  H
  H98      1.0000 0.14380  0.53660  0.82900  Biso   1.000  H
  H99      1.0000 0.35620  0.03660  0.67100  Biso   1.000  H
  H100     1.0000 0.85620  0.53660  0.67100  Biso   1.000  H
  H101     1.0000 0.35620  0.96340  0.17100  Biso   1.000  H
  H102     1.0000 0.85620  0.46340  0.17100  Biso   1.000  H
  H103     1.0000 0.64380  0.96340  0.32900  Biso   1.000  H
  H104     1.0000 0.14380  0.46340  0.32900  Biso   1.000  H
  C105     1.0000 0.69902  0.99190  0.89785  Biso   1.000  C
  C106     1.0000 0.19902  0.49190  0.89785  Biso   1.000  C
  C107     1.0000 0.30098  0.99190  0.60215  Biso   1.000  C
  C108     1.0000 0.80098  0.49190  0.60215  Biso   1.000  C
  C109     1.0000 0.30098  0.00810  0.10215  Biso   1.000  C
  C110     1.0000 0.80098  0.50810  0.10215  Biso   1.000  C
  C111     1.0000 0.69902  0.00810  0.39785  Biso   1.000  C
  C112     1.0000 0.19902  0.50810  0.39785  Biso   1.000  C
  H105     1.0000 0.72080  0.98690  0.86550  Biso   1.000  H
  H106     1.0000 0.22080  0.48690  0.86550  Biso   1.000  H
  H107     1.0000 0.27920  0.98690  0.63450  Biso   1.000  H
  H108     1.0000 0.77920  0.48690  0.63450  Biso   1.000  H
  H109     1.0000 0.27920  0.01310  0.13450  Biso   1.000  H
  H110     1.0000 0.77920  0.51310  0.13450  Biso   1.000  H
  H111     1.0000 0.72080  0.01310  0.36550  Biso   1.000  H
  H112     1.0000 0.22080  0.51310  0.36550  Biso   1.000  H
  C113     1.0000 0.57061  0.06240  0.90211  Biso   1.000  C
  C114     1.0000 0.07061  0.56240  0.90211  Biso   1.000  C
  C115     1.0000 0.42939  0.06240  0.59789  Biso   1.000  C
  C116     1.0000 0.92939  0.56240  0.59789  Biso   1.000  C
  C117     1.0000 0.42939  0.93760  0.09789  Biso   1.000  C
  C118     1.0000 0.92939  0.43760  0.09789  Biso   1.000  C
  C119     1.0000 0.57061  0.93760  0.40211  Biso   1.000  C
  C120     1.0000 0.07061  0.43760  0.40211  Biso   1.000  C
  C121     1.0000 0.04593  0.52296  0.15042  Biso   1.000  C
  C122     1.0000 0.54593  0.02296  0.15042  Biso   1.000  C
  C123     1.0000 0.95407  0.52296  0.34958  Biso   1.000  C
  C124     1.0000 0.45407  0.02296  0.34958  Biso   1.000  C
  C125     1.0000 0.95407  0.47704  0.84958  Biso   1.000  C
  C126     1.0000 0.45407  0.97704  0.84958  Biso   1.000  C
  C127     1.0000 0.04593  0.47704  0.65042  Biso   1.000  C
  C128     1.0000 0.54593  0.97704  0.65042  Biso   1.000  C
  C129     1.0000 0.06240  0.61060  0.16310  Biso   1.000  C
  C130     1.0000 0.56240  0.11060  0.16310  Biso   1.000  C
  C131     1.0000 0.93760  0.61060  0.33690  Biso   1.000  C
  C132     1.0000 0.43760  0.11060  0.33690  Biso   1.000  C
  C133     1.0000 0.93760  0.38940  0.83690  Biso   1.000  C
  C134     1.0000 0.43760  0.88940  0.83690  Biso   1.000  C
  C135     1.0000 0.06240  0.38940  0.66310  Biso   1.000  C
  C136     1.0000 0.56240  0.88940  0.66310  Biso   1.000  C
  C137     1.0000 0.07724  0.65763  0.10945  Biso   1.000  C
  C138     1.0000 0.57724  0.15763  0.10945  Biso   1.000  C
  C139     1.0000 0.92276  0.65763  0.39055  Biso   1.000  C
  C140     1.0000 0.42276  0.15763  0.39055  Biso   1.000  C
  C141     1.0000 0.92276  0.34237  0.89055  Biso   1.000  C
  C142     1.0000 0.42276  0.84237  0.89055  Biso   1.000  C
  C143     1.0000 0.07724  0.34237  0.60945  Biso   1.000  C
  C144     1.0000 0.57724  0.84237  0.60945  Biso   1.000  C
  H113     1.0000 0.07490  0.63670  0.06380  Biso   1.000  H
  H114     1.0000 0.57490  0.13670  0.06380  Biso   1.000  H
  H115     1.0000 0.92510  0.63670  0.43620  Biso   1.000  H
  H116     1.0000 0.42510  0.13670  0.43620  Biso   1.000  H
  H117     1.0000 0.92510  0.36330  0.93620  Biso   1.000  H
  H118     1.0000 0.42510  0.86330  0.93620  Biso   1.000  H
  H119     1.0000 0.07490  0.36330  0.56380  Biso   1.000  H
  H120     1.0000 0.57490  0.86330  0.56380  Biso   1.000  H
  C145     1.0000 0.09532  0.73518  0.12451  Biso   1.000  C
  C146     1.0000 0.59532  0.23518  0.12451  Biso   1.000  C
  C147     1.0000 0.90468  0.73518  0.37549  Biso   1.000  C
  C148     1.0000 0.40468  0.23518  0.37549  Biso   1.000  C
  C149     1.0000 0.90468  0.26482  0.87549  Biso   1.000  C
  C150     1.0000 0.40468  0.76482  0.87549  Biso   1.000  C
  C151     1.0000 0.09532  0.26482  0.62451  Biso   1.000  C
  C152     1.0000 0.59532  0.76482  0.62451  Biso   1.000  C
  H121     1.0000 0.10550  0.76690  0.08890  Biso   1.000  H
  H122     1.0000 0.60550  0.26690  0.08890  Biso   1.000  H
  H123     1.0000 0.89450  0.76690  0.41110  Biso   1.000  H
  H124     1.0000 0.39450  0.26690  0.41110  Biso   1.000  H
  H125     1.0000 0.89450  0.23310  0.91110  Biso   1.000  H
  H126     1.0000 0.39450  0.73310  0.91110  Biso   1.000  H
  H127     1.0000 0.10550  0.23310  0.58890  Biso   1.000  H
  H128     1.0000 0.60550  0.73310  0.58890  Biso   1.000  H
  C153     1.0000 0.08174  0.72326  0.24224  Biso   1.000  C
  C154     1.0000 0.58174  0.22326  0.24224  Biso   1.000  C
  C155     1.0000 0.91826  0.72326  0.25776  Biso   1.000  C
  C156     1.0000 0.41826  0.22326  0.25776  Biso   1.000  C
  C157     1.0000 0.91826  0.27674  0.75776  Biso   1.000  C
  C158     1.0000 0.41826  0.77674  0.75776  Biso   1.000  C
  C159     1.0000 0.08174  0.27674  0.74224  Biso   1.000  C
  C160     1.0000 0.58174  0.77674  0.74224  Biso   1.000  C
  H129     1.0000 0.08230  0.74680  0.28670  Biso   1.000  H
  H130     1.0000 0.58230  0.24680  0.28670  Biso   1.000  H
  H131     1.0000 0.91770  0.74680  0.21330  Biso   1.000  H
  H132     1.0000 0.41770  0.24680  0.21330  Biso   1.000  H
  H133     1.0000 0.91770  0.25320  0.71330  Biso   1.000  H
  H134     1.0000 0.41770  0.75320  0.71330  Biso   1.000  H
  H135     1.0000 0.08230  0.25320  0.78670  Biso   1.000  H
  H136     1.0000 0.58230  0.75320  0.78670  Biso   1.000  H
  C161     1.0000 0.06385  0.64502  0.22939  Biso   1.000  C
  C162     1.0000 0.56385  0.14502  0.22939  Biso   1.000  C
  C163     1.0000 0.93615  0.64502  0.27061  Biso   1.000  C
  C164     1.0000 0.43615  0.14502  0.27061  Biso   1.000  C
  C165     1.0000 0.93615  0.35498  0.77061  Biso   1.000  C
  C166     1.0000 0.43615  0.85498  0.77061  Biso   1.000  C
  C167     1.0000 0.06385  0.35498  0.72939  Biso   1.000  C
  C168     1.0000 0.56385  0.85498  0.72939  Biso   1.000  C
  H137     1.0000 0.05270  0.61510  0.26530  Biso   1.000  H
  H138     1.0000 0.55270  0.11510  0.26530  Biso   1.000  H
  H139     1.0000 0.94730  0.61510  0.23470  Biso   1.000  H
  H140     1.0000 0.44730  0.11510  0.23470  Biso   1.000  H
  H141     1.0000 0.94730  0.38490  0.73470  Biso   1.000  H
  H142     1.0000 0.44730  0.88490  0.73470  Biso   1.000  H
  H143     1.0000 0.05270  0.38490  0.76530  Biso   1.000  H
  H144     1.0000 0.55270  0.88490  0.76530  Biso   1.000  H
  C169     1.0000 0.12411  0.84594  0.20774  Biso   1.000  C
  C170     1.0000 0.62411  0.34594  0.20774  Biso   1.000  C
  C171     1.0000 0.87589  0.84594  0.29226  Biso   1.000  C
  C172     1.0000 0.37589  0.34594  0.29226  Biso   1.000  C
  C173     1.0000 0.87589  0.15406  0.79226  Biso   1.000  C
  C174     1.0000 0.37589  0.65406  0.79226  Biso   1.000  C
  C175     1.0000 0.12411  0.15406  0.70774  Biso   1.000  C
  C176     1.0000 0.62411  0.65406  0.70774  Biso   1.000  C
  H145     1.0000 0.11970  0.86290  0.25500  Biso   1.000  H
  H146     1.0000 0.61970  0.36290  0.25500  Biso   1.000  H
  H147     1.0000 0.88030  0.86290  0.24500  Biso   1.000  H
  H148     1.0000 0.38030  0.36290  0.24500  Biso   1.000  H
  H149     1.0000 0.88030  0.13710  0.74500  Biso   1.000  H
  H150     1.0000 0.38030  0.63710  0.74500  Biso   1.000  H
  H151     1.0000 0.11970  0.13710  0.75500  Biso   1.000  H
  H152     1.0000 0.61970  0.63710  0.75500  Biso   1.000  H
  H153     1.0000 0.11010  0.88810  0.17490  Biso   1.000  H
  H154     1.0000 0.61010  0.38810  0.17490  Biso   1.000  H
  H155     1.0000 0.88990  0.88810  0.32510  Biso   1.000  H
  H156     1.0000 0.38990  0.38810  0.32510  Biso   1.000  H
  H157     1.0000 0.88990  0.11190  0.82510  Biso   1.000  H
  H158     1.0000 0.38990  0.61190  0.82510  Biso   1.000  H
  H159     1.0000 0.11010  0.11190  0.67490  Biso   1.000  H
  H160     1.0000 0.61010  0.61190  0.67490  Biso   1.000  H
  C177     1.0000 0.17815  0.83774  0.20362  Biso   1.000  C
  C178     1.0000 0.67815  0.33774  0.20362  Biso   1.000  C
  C179     1.0000 0.82185  0.83774  0.29638  Biso   1.000  C
  C180     1.0000 0.32185  0.33774  0.29638  Biso   1.000  C
  C181     1.0000 0.82185  0.16226  0.79638  Biso   1.000  C
  C182     1.0000 0.32185  0.66226  0.79638  Biso   1.000  C
  C183     1.0000 0.17815  0.16226  0.70362  Biso   1.000  C
  C184     1.0000 0.67815  0.66226  0.70362  Biso   1.000  C
  H161     1.0000 0.18300  0.84100  0.15450  Biso   1.000  H
  H162     1.0000 0.68300  0.34100  0.15450  Biso   1.000  H
  H163     1.0000 0.81700  0.84100  0.34550  Biso   1.000  H
  H164     1.0000 0.31700  0.34100  0.34550  Biso   1.000  H
  H165     1.0000 0.81700  0.15900  0.84550  Biso   1.000  H
  H166     1.0000 0.31700  0.65900  0.84550  Biso   1.000  H
  H167     1.0000 0.18300  0.15900  0.65450  Biso   1.000  H
  H168     1.0000 0.68300  0.65900  0.65450  Biso   1.000  H
  H169     1.0000 0.19520  0.88380  0.22840  Biso   1.000  H
  H170     1.0000 0.69520  0.38380  0.22840  Biso   1.000  H
  H171     1.0000 0.80480  0.88380  0.27160  Biso   1.000  H
  H172     1.0000 0.30480  0.38380  0.27160  Biso   1.000  H
  H173     1.0000 0.80480  0.11620  0.77160  Biso   1.000  H
  H174     1.0000 0.30480  0.61620  0.77160  Biso   1.000  H
  H175     1.0000 0.19520  0.11620  0.72840  Biso   1.000  H
  H176     1.0000 0.69520  0.61620  0.72840  Biso   1.000  H
  C185     1.0000 0.20015  0.75777  0.23495  Biso   1.000  C
  C186     1.0000 0.70015  0.25777  0.23495  Biso   1.000  C
  C187     1.0000 0.79985  0.75777  0.26505  Biso   1.000  C
  C188     1.0000 0.29985  0.25777  0.26505  Biso   1.000  C
  C189     1.0000 0.79985  0.24223  0.76505  Biso   1.000  C
  C190     1.0000 0.29985  0.74223  0.76505  Biso   1.000  C
  C191     1.0000 0.20015  0.24223  0.73495  Biso   1.000  C
  C192     1.0000 0.70015  0.74223  0.73495  Biso   1.000  C
  H177     1.0000 0.18420  0.74170  0.27470  Biso   1.000  H
  H178     1.0000 0.68420  0.24170  0.27470  Biso   1.000  H
  H179     1.0000 0.81580  0.74170  0.22530  Biso   1.000  H
  H180     1.0000 0.31580  0.24170  0.22530  Biso   1.000  H
  H181     1.0000 0.81580  0.25830  0.72530  Biso   1.000  H
  H182     1.0000 0.31580  0.75830  0.72530  Biso   1.000  H
  H183     1.0000 0.18420  0.25830  0.77470  Biso   1.000  H
  H184     1.0000 0.68420  0.75830  0.77470  Biso   1.000  H
  H185     1.0000 0.19500  0.71430  0.19980  Biso   1.000  H
  H186     1.0000 0.69500  0.21430  0.19980  Biso   1.000  H
  H187     1.0000 0.80500  0.71430  0.30020  Biso   1.000  H
  H188     1.0000 0.30500  0.21430  0.30020  Biso   1.000  H
  H189     1.0000 0.80500  0.28570  0.80020  Biso   1.000  H
  H190     1.0000 0.30500  0.78570  0.80020  Biso   1.000  H
  H191     1.0000 0.19500  0.28570  0.69980  Biso   1.000  H
  H192     1.0000 0.69500  0.78570  0.69980  Biso   1.000  H
  C193     1.0000 0.28377  0.77504  0.21012  Biso   1.000  C
  C194     1.0000 0.78377  0.27504  0.21012  Biso   1.000  C
  C195     1.0000 0.71623  0.77504  0.28988  Biso   1.000  C
  C196     1.0000 0.21623  0.27504  0.28988  Biso   1.000  C
  C197     1.0000 0.71623  0.22496  0.78988  Biso   1.000  C
  C198     1.0000 0.21623  0.72496  0.78988  Biso   1.000  C
  C199     1.0000 0.28377  0.22496  0.71012  Biso   1.000  C
  C200     1.0000 0.78377  0.72496  0.71012  Biso   1.000  C
  H193     1.0000 0.27200  0.76940  0.16230  Biso   1.000  H
  H194     1.0000 0.77200  0.26940  0.16230  Biso   1.000  H
  H195     1.0000 0.72800  0.76940  0.33770  Biso   1.000  H
  H196     1.0000 0.22800  0.26940  0.33770  Biso   1.000  H
  H197     1.0000 0.72800  0.23060  0.83770  Biso   1.000  H
  H198     1.0000 0.22800  0.73060  0.83770  Biso   1.000  H
  H199     1.0000 0.27200  0.23060  0.66230  Biso   1.000  H
  H200     1.0000 0.77200  0.73060  0.66230  Biso   1.000  H
  C201     1.0000 0.33207  0.79016  0.23156  Biso   1.000  C
  C202     1.0000 0.83207  0.29016  0.23156  Biso   1.000  C
  C203     1.0000 0.66793  0.79016  0.26844  Biso   1.000  C
  C204     1.0000 0.16793  0.29016  0.26844  Biso   1.000  C
  C205     1.0000 0.66793  0.20984  0.76844  Biso   1.000  C
  C206     1.0000 0.16793  0.70984  0.76844  Biso   1.000  C
  C207     1.0000 0.33207  0.20984  0.73156  Biso   1.000  C
  C208     1.0000 0.83207  0.70984  0.73156  Biso   1.000  C
  H201     1.0000 0.35320  0.79480  0.19830  Biso   1.000  H
  H202     1.0000 0.85320  0.29480  0.19830  Biso   1.000  H
  H203     1.0000 0.64680  0.79480  0.30170  Biso   1.000  H
  H204     1.0000 0.14680  0.29480  0.30170  Biso   1.000  H
  H205     1.0000 0.64680  0.20520  0.80170  Biso   1.000  H
  H206     1.0000 0.14680  0.70520  0.80170  Biso   1.000  H
  H207     1.0000 0.35320  0.20520  0.69830  Biso   1.000  H
  H208     1.0000 0.85320  0.70520  0.69830  Biso   1.000  H
  C209     1.0000 0.34934  0.79847  0.30265  Biso   1.000  C
  C210     1.0000 0.84934  0.29847  0.30265  Biso   1.000  C
  C211     1.0000 0.65066  0.79847  0.19735  Biso   1.000  C
  C212     1.0000 0.15066  0.29847  0.19735  Biso   1.000  C
  C213     1.0000 0.65066  0.20153  0.69735  Biso   1.000  C
  C214     1.0000 0.15066  0.70153  0.69735  Biso   1.000  C
  C215     1.0000 0.34934  0.20153  0.80265  Biso   1.000  C
  C216     1.0000 0.84934  0.70153  0.80265  Biso   1.000  C
  C217     1.0000 0.31797  0.78808  0.35177  Biso   1.000  C
  C218     1.0000 0.81797  0.28808  0.35177  Biso   1.000  C
  C219     1.0000 0.68203  0.78808  0.14823  Biso   1.000  C
  C220     1.0000 0.18203  0.28808  0.14823  Biso   1.000  C
  C221     1.0000 0.68203  0.21192  0.64823  Biso   1.000  C
  C222     1.0000 0.18203  0.71192  0.64823  Biso   1.000  C
  C223     1.0000 0.31797  0.21192  0.85177  Biso   1.000  C
  C224     1.0000 0.81797  0.71192  0.85177  Biso   1.000  C
  H209     1.0000 0.32940  0.79100  0.39990  Biso   1.000  H
  H210     1.0000 0.82940  0.29100  0.39990  Biso   1.000  H
  H211     1.0000 0.67060  0.79100  0.10010  Biso   1.000  H
  H212     1.0000 0.17060  0.29100  0.10010  Biso   1.000  H
  H213     1.0000 0.67060  0.20900  0.60010  Biso   1.000  H
  H214     1.0000 0.17060  0.70900  0.60010  Biso   1.000  H
  H215     1.0000 0.32940  0.20900  0.89990  Biso   1.000  H
  H216     1.0000 0.82940  0.70900  0.89990  Biso   1.000  H
  C225     1.0000 0.26938  0.77321  0.32830  Biso   1.000  C
  C226     1.0000 0.76938  0.27321  0.32830  Biso   1.000  C
  C227     1.0000 0.73062  0.77321  0.17170  Biso   1.000  C
  C228     1.0000 0.23062  0.27321  0.17170  Biso   1.000  C
  C229     1.0000 0.73062  0.22679  0.67170  Biso   1.000  C
  C230     1.0000 0.23062  0.72679  0.67170  Biso   1.000  C
  C231     1.0000 0.26938  0.22679  0.82830  Biso   1.000  C
  C232     1.0000 0.76938  0.72679  0.82830  Biso   1.000  C
  H217     1.0000 0.24780  0.76650  0.36080  Biso   1.000  H
  H218     1.0000 0.74780  0.26650  0.36080  Biso   1.000  H
  H219     1.0000 0.75220  0.76650  0.13920  Biso   1.000  H
  H220     1.0000 0.25220  0.26650  0.13920  Biso   1.000  H
  H221     1.0000 0.75220  0.23350  0.63920  Biso   1.000  H
  H222     1.0000 0.25220  0.73350  0.63920  Biso   1.000  H
  H223     1.0000 0.24780  0.23350  0.86080  Biso   1.000  H
  H224     1.0000 0.74780  0.73350  0.86080  Biso   1.000  H
  C233     1.0000 0.40151  0.82319  0.32695  Biso   1.000  C
  C234     1.0000 0.90151  0.32319  0.32695  Biso   1.000  C
  C235     1.0000 0.59849  0.82319  0.17305  Biso   1.000  C
  C236     1.0000 0.09849  0.32319  0.17305  Biso   1.000  C
  C237     1.0000 0.59849  0.17681  0.67305  Biso   1.000  C
  C238     1.0000 0.09849  0.67681  0.67305  Biso   1.000  C
  C239     1.0000 0.40151  0.17681  0.82695  Biso   1.000  C
  C240     1.0000 0.90151  0.67681  0.82695  Biso   1.000  C
