data_image0
_cell_length_a       28.129
_cell_length_b       25.034
_cell_length_c       15.343
_cell_angle_alpha    90
_cell_angle_beta     90
_cell_angle_gamma    90

_symmetry_space_group_name_H-M    "P 1"
_symmetry_int_tables_number       1

loop_
  _symmetry_equiv_pos_as_xyz
  'x, y, z'

loop_
  _atom_site_label
  _atom_site_occupancy
  _atom_site_fract_x
  _atom_site_fract_y
  _atom_site_fract_z
  _atom_site_thermal_displace_type
  _atom_site_B_iso_or_equiv
  _atom_site_type_symbol
  O1       1.0000 0.45780  0.03830  0.09000  Biso   1.000  O
  O2       1.0000 0.95780  0.53830  0.09000  Biso   1.000  O
  O3       1.0000 0.54220  0.46170  0.59000  Biso   1.000  O
  O4       1.0000 0.54220  0.53830  0.41000  Biso   1.000  O
  O5       1.0000 0.45780  0.96170  0.91000  Biso   1.000  O
  O6       1.0000 0.04220  0.96170  0.59000  Biso   1.000  O
  O7       1.0000 0.04220  0.03830  0.41000  Biso   1.000  O
  O8       1.0000 0.95780  0.46170  0.91000  Biso   1.000  O
  O9       1.0000 0.54220  0.96170  0.91000  Biso   1.000  O
  O10      1.0000 0.04220  0.46170  0.91000  Biso   1.000  O
  O11      1.0000 0.45780  0.53830  0.41000  Biso   1.000  O
  O12      1.0000 0.45780  0.46170  0.59000  Biso   1.000  O
  O13      1.0000 0.54220  0.03830  0.09000  Biso   1.000  O
  O14      1.0000 0.95780  0.03830  0.41000  Biso   1.000  O
  O15      1.0000 0.95780  0.96170  0.59000  Biso   1.000  O
  O16      1.0000 0.04220  0.53830  0.09000  Biso   1.000  O
  N1       1.0000 0.43650  0.10020  0.22940  Biso   1.000  N
  N2       1.0000 0.93650  0.60020  0.22940  Biso   1.000  N
  N3       1.0000 0.56350  0.39980  0.72940  Biso   1.000  N
  N4       1.0000 0.56350  0.60020  0.27060  Biso   1.000  N
  N5       1.0000 0.43650  0.89980  0.77060  Biso   1.000  N
  N6       1.0000 0.06350  0.89980  0.72940  Biso   1.000  N
  N7       1.0000 0.06350  0.10020  0.27060  Biso   1.000  N
  N8       1.0000 0.93650  0.39980  0.77060  Biso   1.000  N
  N9       1.0000 0.56350  0.89980  0.77060  Biso   1.000  N
  N10      1.0000 0.06350  0.39980  0.77060  Biso   1.000  N
  N11      1.0000 0.43650  0.60020  0.27060  Biso   1.000  N
  N12      1.0000 0.43650  0.39980  0.72940  Biso   1.000  N
  N13      1.0000 0.56350  0.10020  0.22940  Biso   1.000  N
  N14      1.0000 0.93650  0.10020  0.27060  Biso   1.000  N
  N15      1.0000 0.93650  0.89980  0.72940  Biso   1.000  N
  N16      1.0000 0.06350  0.60020  0.22940  Biso   1.000  N
  C1       1.0000 0.44540  0.05150  0.17660  Biso   1.000  C
  C2       1.0000 0.94540  0.55150  0.17660  Biso   1.000  C
  C3       1.0000 0.55460  0.44850  0.67660  Biso   1.000  C
  C4       1.0000 0.55460  0.55150  0.32340  Biso   1.000  C
  C5       1.0000 0.44540  0.94850  0.82340  Biso   1.000  C
  C6       1.0000 0.05460  0.94850  0.67660  Biso   1.000  C
  C7       1.0000 0.05460  0.05150  0.32340  Biso   1.000  C
  C8       1.0000 0.94540  0.44850  0.82340  Biso   1.000  C
  C9       1.0000 0.55460  0.94850  0.82340  Biso   1.000  C
  C10      1.0000 0.05460  0.44850  0.82340  Biso   1.000  C
  C11      1.0000 0.44540  0.55150  0.32340  Biso   1.000  C
  C12      1.0000 0.44540  0.44850  0.67660  Biso   1.000  C
  C13      1.0000 0.55460  0.05150  0.17660  Biso   1.000  C
  C14      1.0000 0.94540  0.05150  0.32340  Biso   1.000  C
  C15      1.0000 0.94540  0.94850  0.67660  Biso   1.000  C
  C16      1.0000 0.05460  0.55150  0.17660  Biso   1.000  C
  C17      1.0000 0.45060  0.15020  0.20480  Biso   1.000  C
  C18      1.0000 0.95060  0.65020  0.20480  Biso   1.000  C
  C19      1.0000 0.54940  0.34980  0.70480  Biso   1.000  C
  C20      1.0000 0.54940  0.65020  0.29520  Biso   1.000  C
  C21      1.0000 0.45060  0.84980  0.79520  Biso   1.000  C
  C22      1.0000 0.04940  0.84980  0.70480  Biso   1.000  C
  C23      1.0000 0.04940  0.15020  0.29520  Biso   1.000  C
  C24      1.0000 0.95060  0.34980  0.79520  Biso   1.000  C
  C25      1.0000 0.54940  0.84980  0.79520  Biso   1.000  C
  C26      1.0000 0.04940  0.34980  0.79520  Biso   1.000  C
  C27      1.0000 0.45060  0.65020  0.29520  Biso   1.000  C
  C28      1.0000 0.45060  0.34980  0.70480  Biso   1.000  C
  C29      1.0000 0.54940  0.15020  0.20480  Biso   1.000  C
  C30      1.0000 0.95060  0.15020  0.29520  Biso   1.000  C
  C31      1.0000 0.95060  0.84980  0.70480  Biso   1.000  C
  C32      1.0000 0.04940  0.65020  0.20480  Biso   1.000  C
  C33      1.0000 0.42560  0.09710  0.32000  Biso   1.000  C
  C34      1.0000 0.92560  0.59710  0.32000  Biso   1.000  C
  C35      1.0000 0.57440  0.40290  0.82000  Biso   1.000  C
  C36      1.0000 0.57440  0.59710  0.18000  Biso   1.000  C
  C37      1.0000 0.42560  0.90290  0.68000  Biso   1.000  C
  C38      1.0000 0.07440  0.90290  0.82000  Biso   1.000  C
  C39      1.0000 0.07440  0.09710  0.18000  Biso   1.000  C
  C40      1.0000 0.92560  0.40290  0.68000  Biso   1.000  C
  C41      1.0000 0.57440  0.90290  0.68000  Biso   1.000  C
  C42      1.0000 0.07440  0.40290  0.68000  Biso   1.000  C
  C43      1.0000 0.42560  0.59710  0.18000  Biso   1.000  C
  C44      1.0000 0.42560  0.40290  0.82000  Biso   1.000  C
  C45      1.0000 0.57440  0.09710  0.32000  Biso   1.000  C
  C46      1.0000 0.92560  0.09710  0.18000  Biso   1.000  C
  C47      1.0000 0.92560  0.90290  0.82000  Biso   1.000  C
  C48      1.0000 0.07440  0.59710  0.32000  Biso   1.000  C
  Cu1      1.0000 0.50000  0.30911  0.20058  Biso   1.000  Cu
  Cu2      1.0000 0.00000  0.80911  0.20058  Biso   1.000  Cu
  Cu3      1.0000 0.50000  0.19089  0.70058  Biso   1.000  Cu
  Cu4      1.0000 0.50000  0.80911  0.29942  Biso   1.000  Cu
  Cu5      1.0000 0.50000  0.69089  0.79942  Biso   1.000  Cu
  Cu6      1.0000 0.00000  0.69089  0.70058  Biso   1.000  Cu
  Cu7      1.0000 0.00000  0.30911  0.29942  Biso   1.000  Cu
  Cu8      1.0000 0.00000  0.19089  0.79942  Biso   1.000  Cu
  Cu9      1.0000 0.50000  0.38530  0.31984  Biso   1.000  Cu
  Cu10     1.0000 0.00000  0.88530  0.31984  Biso   1.000  Cu
  Cu11     1.0000 0.50000  0.11470  0.81984  Biso   1.000  Cu
  Cu12     1.0000 0.50000  0.88530  0.18016  Biso   1.000  Cu
  Cu13     1.0000 0.50000  0.61470  0.68016  Biso   1.000  Cu
  Cu14     1.0000 0.00000  0.61470  0.81984  Biso   1.000  Cu
  Cu15     1.0000 0.00000  0.38530  0.18016  Biso   1.000  Cu
  Cu16     1.0000 0.00000  0.11470  0.68016  Biso   1.000  Cu
  Cu17     1.0000 0.21904  0.59833  0.18588  Biso   1.000  Cu
  Cu18     1.0000 0.71904  0.09833  0.18588  Biso   1.000  Cu
  Cu19     1.0000 0.78096  0.90167  0.68588  Biso   1.000  Cu
  Cu20     1.0000 0.78096  0.09833  0.31412  Biso   1.000  Cu
  Cu21     1.0000 0.21904  0.40167  0.81412  Biso   1.000  Cu
  Cu22     1.0000 0.28096  0.40167  0.68588  Biso   1.000  Cu
  Cu23     1.0000 0.28096  0.59833  0.31412  Biso   1.000  Cu
  Cu24     1.0000 0.71904  0.90167  0.81412  Biso   1.000  Cu
  Cu25     1.0000 0.78096  0.40167  0.81412  Biso   1.000  Cu
  Cu26     1.0000 0.28096  0.90167  0.81412  Biso   1.000  Cu
  Cu27     1.0000 0.21904  0.09833  0.31412  Biso   1.000  Cu
  Cu28     1.0000 0.21904  0.90167  0.68588  Biso   1.000  Cu
  Cu29     1.0000 0.78096  0.59833  0.18588  Biso   1.000  Cu
  Cu30     1.0000 0.71904  0.59833  0.31412  Biso   1.000  Cu
  Cu31     1.0000 0.71904  0.40167  0.68588  Biso   1.000  Cu
  Cu32     1.0000 0.28096  0.09833  0.18588  Biso   1.000  Cu
  O17      1.0000 0.45061  0.41882  0.24680  Biso   1.000  O
  O18      1.0000 0.95061  0.91882  0.24680  Biso   1.000  O
  O19      1.0000 0.54939  0.08118  0.74680  Biso   1.000  O
  O20      1.0000 0.54939  0.91882  0.25320  Biso   1.000  O
  O21      1.0000 0.45061  0.58118  0.75320  Biso   1.000  O
  O22      1.0000 0.04939  0.58118  0.74680  Biso   1.000  O
  O23      1.0000 0.04939  0.41882  0.25320  Biso   1.000  O
  O24      1.0000 0.95061  0.08118  0.75320  Biso   1.000  O
  O25      1.0000 0.54939  0.58118  0.75320  Biso   1.000  O
  O26      1.0000 0.04939  0.08118  0.75320  Biso   1.000  O
  O27      1.0000 0.45061  0.91882  0.25320  Biso   1.000  O
  O28      1.0000 0.45061  0.08118  0.74680  Biso   1.000  O
  O29      1.0000 0.54939  0.41882  0.24680  Biso   1.000  O
  O30      1.0000 0.95061  0.41882  0.25320  Biso   1.000  O
  O31      1.0000 0.95061  0.58118  0.74680  Biso   1.000  O
  O32      1.0000 0.04939  0.91882  0.24680  Biso   1.000  O
  O33      1.0000 0.50000  0.44460  0.41830  Biso   1.000  O
  O34      1.0000 0.00000  0.94460  0.41830  Biso   1.000  O
  O35      1.0000 0.50000  0.05540  0.91830  Biso   1.000  O
  O36      1.0000 0.50000  0.94460  0.08170  Biso   1.000  O
  O37      1.0000 0.50000  0.55540  0.58170  Biso   1.000  O
  O38      1.0000 0.00000  0.55540  0.91830  Biso   1.000  O
  O39      1.0000 0.00000  0.44460  0.08170  Biso   1.000  O
  O40      1.0000 0.00000  0.05540  0.58170  Biso   1.000  O
  O41      1.0000 0.45092  0.35380  0.14880  Biso   1.000  O
  O42      1.0000 0.95092  0.85380  0.14880  Biso   1.000  O
  O43      1.0000 0.54908  0.14620  0.64880  Biso   1.000  O
  O44      1.0000 0.54908  0.85380  0.35120  Biso   1.000  O
  O45      1.0000 0.45092  0.64620  0.85120  Biso   1.000  O
  O46      1.0000 0.04908  0.64620  0.64880  Biso   1.000  O
  O47      1.0000 0.04908  0.35380  0.35120  Biso   1.000  O
  O48      1.0000 0.95092  0.14620  0.85120  Biso   1.000  O
  O49      1.0000 0.54908  0.64620  0.85120  Biso   1.000  O
  O50      1.0000 0.04908  0.14620  0.85120  Biso   1.000  O
  O51      1.0000 0.45092  0.85380  0.35120  Biso   1.000  O
  O52      1.0000 0.45092  0.14620  0.64880  Biso   1.000  O
  O53      1.0000 0.54908  0.35380  0.14880  Biso   1.000  O
  O54      1.0000 0.95092  0.35380  0.35120  Biso   1.000  O
  O55      1.0000 0.95092  0.64620  0.64880  Biso   1.000  O
  O56      1.0000 0.04908  0.85380  0.14880  Biso   1.000  O
  O57      1.0000 0.26114  0.53995  0.14380  Biso   1.000  O
  O58      1.0000 0.76114  0.03995  0.14380  Biso   1.000  O
  O59      1.0000 0.73886  0.96005  0.64380  Biso   1.000  O
  O60      1.0000 0.73886  0.03995  0.35620  Biso   1.000  O
  O61      1.0000 0.26114  0.46005  0.85620  Biso   1.000  O
  O62      1.0000 0.23886  0.46005  0.64380  Biso   1.000  O
  O63      1.0000 0.23886  0.53995  0.35620  Biso   1.000  O
  O64      1.0000 0.76114  0.96005  0.85620  Biso   1.000  O
  O65      1.0000 0.73886  0.46005  0.85620  Biso   1.000  O
  O66      1.0000 0.23886  0.96005  0.85620  Biso   1.000  O
  O67      1.0000 0.26114  0.03995  0.35620  Biso   1.000  O
  O68      1.0000 0.26114  0.96005  0.64380  Biso   1.000  O
  O69      1.0000 0.73886  0.53995  0.14380  Biso   1.000  O
  O70      1.0000 0.76114  0.53995  0.35620  Biso   1.000  O
  O71      1.0000 0.76114  0.46005  0.64380  Biso   1.000  O
  O72      1.0000 0.23886  0.03995  0.14380  Biso   1.000  O
  O73      1.0000 0.31650  0.54505  0.24770  Biso   1.000  O
  O74      1.0000 0.81650  0.04505  0.24770  Biso   1.000  O
  O75      1.0000 0.68350  0.95495  0.74770  Biso   1.000  O
  O76      1.0000 0.68350  0.04505  0.25230  Biso   1.000  O
  O77      1.0000 0.31650  0.45495  0.75230  Biso   1.000  O
  O78      1.0000 0.18350  0.45495  0.74770  Biso   1.000  O
  O79      1.0000 0.18350  0.54505  0.25230  Biso   1.000  O
  O80      1.0000 0.81650  0.95495  0.75230  Biso   1.000  O
  O81      1.0000 0.68350  0.45495  0.75230  Biso   1.000  O
  O82      1.0000 0.18350  0.95495  0.75230  Biso   1.000  O
  O83      1.0000 0.31650  0.04505  0.25230  Biso   1.000  O
  O84      1.0000 0.31650  0.95495  0.74770  Biso   1.000  O
  O85      1.0000 0.68350  0.54505  0.24770  Biso   1.000  O
  O86      1.0000 0.81650  0.54505  0.25230  Biso   1.000  O
  O87      1.0000 0.81650  0.45495  0.74770  Biso   1.000  O
  O88      1.0000 0.18350  0.04505  0.24770  Biso   1.000  O
  O89      1.0000 0.26208  0.15142  0.36530  Biso   1.000  O
  O90      1.0000 0.76208  0.65142  0.36530  Biso   1.000  O
  O91      1.0000 0.73792  0.34858  0.86530  Biso   1.000  O
  O92      1.0000 0.73792  0.65142  0.13470  Biso   1.000  O
  O93      1.0000 0.26208  0.84858  0.63470  Biso   1.000  O
  O94      1.0000 0.23792  0.84858  0.86530  Biso   1.000  O
  O95      1.0000 0.23792  0.15142  0.13470  Biso   1.000  O
  O96      1.0000 0.76208  0.34858  0.63470  Biso   1.000  O
  O97      1.0000 0.73792  0.84858  0.63470  Biso   1.000  O
  O98      1.0000 0.23792  0.34858  0.63470  Biso   1.000  O
  O99      1.0000 0.26208  0.65142  0.13470  Biso   1.000  O
  O100     1.0000 0.26208  0.34858  0.86530  Biso   1.000  O
  O101     1.0000 0.73792  0.15142  0.36530  Biso   1.000  O
  O102     1.0000 0.76208  0.15142  0.13470  Biso   1.000  O
  O103     1.0000 0.76208  0.84858  0.86530  Biso   1.000  O
  O104     1.0000 0.23792  0.65142  0.36530  Biso   1.000  O
  O105     1.0000 0.31191  0.15606  0.25250  Biso   1.000  O
  O106     1.0000 0.81191  0.65606  0.25250  Biso   1.000  O
  O107     1.0000 0.68809  0.34394  0.75250  Biso   1.000  O
  O108     1.0000 0.68809  0.65606  0.24750  Biso   1.000  O
  O109     1.0000 0.31191  0.84394  0.74750  Biso   1.000  O
  O110     1.0000 0.18809  0.84394  0.75250  Biso   1.000  O
  O111     1.0000 0.18809  0.15606  0.24750  Biso   1.000  O
  O112     1.0000 0.81191  0.34394  0.74750  Biso   1.000  O
  O113     1.0000 0.68809  0.84394  0.74750  Biso   1.000  O
  O114     1.0000 0.18809  0.34394  0.74750  Biso   1.000  O
  O115     1.0000 0.31191  0.65606  0.24750  Biso   1.000  O
  O116     1.0000 0.31191  0.34394  0.75250  Biso   1.000  O
  O117     1.0000 0.68809  0.15606  0.25250  Biso   1.000  O
  O118     1.0000 0.81191  0.15606  0.24750  Biso   1.000  O
  O119     1.0000 0.81191  0.84394  0.75250  Biso   1.000  O
  O120     1.0000 0.18809  0.65606  0.25250  Biso   1.000  O
  O121     1.0000 0.45026  0.27566  0.27180  Biso   1.000  O
  O122     1.0000 0.95026  0.77566  0.27180  Biso   1.000  O
  O123     1.0000 0.54974  0.22434  0.77180  Biso   1.000  O
  O124     1.0000 0.54974  0.77566  0.22820  Biso   1.000  O
  O125     1.0000 0.45026  0.72434  0.72820  Biso   1.000  O
  O126     1.0000 0.04974  0.72434  0.77180  Biso   1.000  O
  O127     1.0000 0.04974  0.27566  0.22820  Biso   1.000  O
  O128     1.0000 0.95026  0.22434  0.72820  Biso   1.000  O
  O129     1.0000 0.54974  0.72434  0.72820  Biso   1.000  O
  O130     1.0000 0.04974  0.22434  0.72820  Biso   1.000  O
  O131     1.0000 0.45026  0.77566  0.22820  Biso   1.000  O
  O132     1.0000 0.45026  0.22434  0.77180  Biso   1.000  O
  O133     1.0000 0.54974  0.27566  0.27180  Biso   1.000  O
  O134     1.0000 0.95026  0.27566  0.22820  Biso   1.000  O
  O135     1.0000 0.95026  0.72434  0.77180  Biso   1.000  O
  O136     1.0000 0.04974  0.77566  0.27180  Biso   1.000  O
  O137     1.0000 0.44972  0.34050  0.37070  Biso   1.000  O
  O138     1.0000 0.94972  0.84050  0.37070  Biso   1.000  O
  O139     1.0000 0.55028  0.15950  0.87070  Biso   1.000  O
  O140     1.0000 0.55028  0.84050  0.12930  Biso   1.000  O
  O141     1.0000 0.44972  0.65950  0.62930  Biso   1.000  O
  O142     1.0000 0.05028  0.65950  0.87070  Biso   1.000  O
  O143     1.0000 0.05028  0.34050  0.12930  Biso   1.000  O
  O144     1.0000 0.94972  0.15950  0.62930  Biso   1.000  O
  O145     1.0000 0.55028  0.65950  0.62930  Biso   1.000  O
  O146     1.0000 0.05028  0.15950  0.62930  Biso   1.000  O
  O147     1.0000 0.44972  0.84050  0.12930  Biso   1.000  O
  O148     1.0000 0.44972  0.15950  0.87070  Biso   1.000  O
  O149     1.0000 0.55028  0.34050  0.37070  Biso   1.000  O
  O150     1.0000 0.94972  0.34050  0.12930  Biso   1.000  O
  O151     1.0000 0.94972  0.65950  0.87070  Biso   1.000  O
  O152     1.0000 0.05028  0.84050  0.37070  Biso   1.000  O
  O153     1.0000 0.50000  0.25320  0.10050  Biso   1.000  O
  O154     1.0000 0.00000  0.75320  0.10050  Biso   1.000  O
  O155     1.0000 0.50000  0.24680  0.60050  Biso   1.000  O
  O156     1.0000 0.50000  0.75320  0.39950  Biso   1.000  O
  O157     1.0000 0.50000  0.74680  0.89950  Biso   1.000  O
  O158     1.0000 0.00000  0.74680  0.60050  Biso   1.000  O
  O159     1.0000 0.00000  0.25320  0.39950  Biso   1.000  O
  O160     1.0000 0.00000  0.24680  0.89950  Biso   1.000  O
  O161     1.0000 0.17640  0.59270  0.07200  Biso   1.000  O
  O162     1.0000 0.67640  0.09270  0.07200  Biso   1.000  O
  O163     1.0000 0.82360  0.90730  0.57200  Biso   1.000  O
  O164     1.0000 0.82360  0.09270  0.42800  Biso   1.000  O
  O165     1.0000 0.17640  0.40730  0.92800  Biso   1.000  O
  O166     1.0000 0.32360  0.40730  0.57200  Biso   1.000  O
  O167     1.0000 0.32360  0.59270  0.42800  Biso   1.000  O
  O168     1.0000 0.67640  0.90730  0.92800  Biso   1.000  O
  O169     1.0000 0.82360  0.40730  0.92800  Biso   1.000  O
  O170     1.0000 0.32360  0.90730  0.92800  Biso   1.000  O
  O171     1.0000 0.17640  0.09270  0.42800  Biso   1.000  O
  O172     1.0000 0.17640  0.90730  0.57200  Biso   1.000  O
  O173     1.0000 0.82360  0.59270  0.07200  Biso   1.000  O
  O174     1.0000 0.67640  0.59270  0.42800  Biso   1.000  O
  O175     1.0000 0.67640  0.40730  0.57200  Biso   1.000  O
  O176     1.0000 0.32360  0.09270  0.07200  Biso   1.000  O
  N17      1.0000 0.17550  0.58950  0.92390  Biso   1.000  N
  N18      1.0000 0.67550  0.08950  0.92390  Biso   1.000  N
  N19      1.0000 0.82450  0.91050  0.42390  Biso   1.000  N
  N20      1.0000 0.82450  0.08950  0.57610  Biso   1.000  N
  N21      1.0000 0.17550  0.41050  0.07610  Biso   1.000  N
  N22      1.0000 0.32450  0.41050  0.42390  Biso   1.000  N
  N23      1.0000 0.32450  0.58950  0.57610  Biso   1.000  N
  N24      1.0000 0.67550  0.91050  0.07610  Biso   1.000  N
  N25      1.0000 0.82450  0.41050  0.07610  Biso   1.000  N
  N26      1.0000 0.32450  0.91050  0.07610  Biso   1.000  N
  N27      1.0000 0.17550  0.08950  0.57610  Biso   1.000  N
  N28      1.0000 0.17550  0.91050  0.42390  Biso   1.000  N
  N29      1.0000 0.82450  0.58950  0.92390  Biso   1.000  N
  N30      1.0000 0.67550  0.58950  0.57610  Biso   1.000  N
  N31      1.0000 0.67550  0.41050  0.42390  Biso   1.000  N
  N32      1.0000 0.32450  0.08950  0.92390  Biso   1.000  N
  C49      1.0000 0.43410  0.39610  0.18070  Biso   1.000  C
  C50      1.0000 0.93410  0.89610  0.18070  Biso   1.000  C
  C51      1.0000 0.56590  0.10390  0.68070  Biso   1.000  C
  C52      1.0000 0.56590  0.89610  0.31930  Biso   1.000  C
  C53      1.0000 0.43410  0.60390  0.81930  Biso   1.000  C
  C54      1.0000 0.06590  0.60390  0.68070  Biso   1.000  C
  C55      1.0000 0.06590  0.39610  0.31930  Biso   1.000  C
  C56      1.0000 0.93410  0.10390  0.81930  Biso   1.000  C
  C57      1.0000 0.56590  0.60390  0.81930  Biso   1.000  C
  C58      1.0000 0.06590  0.10390  0.81930  Biso   1.000  C
  C59      1.0000 0.43410  0.89610  0.31930  Biso   1.000  C
  C60      1.0000 0.43410  0.10390  0.68070  Biso   1.000  C
  C61      1.0000 0.56590  0.39610  0.18070  Biso   1.000  C
  C62      1.0000 0.93410  0.39610  0.31930  Biso   1.000  C
  C63      1.0000 0.93410  0.60390  0.68070  Biso   1.000  C
  C64      1.0000 0.06590  0.89610  0.18070  Biso   1.000  C
  C65      1.0000 0.38990  0.41690  0.13900  Biso   1.000  C
  C66      1.0000 0.88990  0.91690  0.13900  Biso   1.000  C
  C67      1.0000 0.61010  0.08310  0.63900  Biso   1.000  C
  C68      1.0000 0.61010  0.91690  0.36100  Biso   1.000  C
  C69      1.0000 0.38990  0.58310  0.86100  Biso   1.000  C
  C70      1.0000 0.11010  0.58310  0.63900  Biso   1.000  C
  C71      1.0000 0.11010  0.41690  0.36100  Biso   1.000  C
  C72      1.0000 0.88990  0.08310  0.86100  Biso   1.000  C
  C73      1.0000 0.61010  0.58310  0.86100  Biso   1.000  C
  C74      1.0000 0.11010  0.08310  0.86100  Biso   1.000  C
  C75      1.0000 0.38990  0.91690  0.36100  Biso   1.000  C
  C76      1.0000 0.38990  0.08310  0.63900  Biso   1.000  C
  C77      1.0000 0.61010  0.41690  0.13900  Biso   1.000  C
  C78      1.0000 0.88990  0.41690  0.36100  Biso   1.000  C
  C79      1.0000 0.88990  0.58310  0.63900  Biso   1.000  C
  C80      1.0000 0.11010  0.91690  0.13900  Biso   1.000  C
  C81      1.0000 0.37040  0.39140  0.06800  Biso   1.000  C
  C82      1.0000 0.87040  0.89140  0.06800  Biso   1.000  C
  C83      1.0000 0.62960  0.10860  0.56800  Biso   1.000  C
  C84      1.0000 0.62960  0.89140  0.43200  Biso   1.000  C
  C85      1.0000 0.37040  0.60860  0.93200  Biso   1.000  C
  C86      1.0000 0.12960  0.60860  0.56800  Biso   1.000  C
  C87      1.0000 0.12960  0.39140  0.43200  Biso   1.000  C
  C88      1.0000 0.87040  0.10860  0.93200  Biso   1.000  C
  C89      1.0000 0.62960  0.60860  0.93200  Biso   1.000  C
  C90      1.0000 0.12960  0.10860  0.93200  Biso   1.000  C
  C91      1.0000 0.37040  0.89140  0.43200  Biso   1.000  C
  C92      1.0000 0.37040  0.10860  0.56800  Biso   1.000  C
  C93      1.0000 0.62960  0.39140  0.06800  Biso   1.000  C
  C94      1.0000 0.87040  0.39140  0.43200  Biso   1.000  C
  C95      1.0000 0.87040  0.60860  0.56800  Biso   1.000  C
  C96      1.0000 0.12960  0.89140  0.06800  Biso   1.000  C
  H1       1.0000 0.38620  0.36150  0.04310  Biso   1.000  H
  H2       1.0000 0.88620  0.86150  0.04310  Biso   1.000  H
  H3       1.0000 0.61380  0.13850  0.54310  Biso   1.000  H
  H4       1.0000 0.61380  0.86150  0.45690  Biso   1.000  H
  H5       1.0000 0.38620  0.63850  0.95690  Biso   1.000  H
  H6       1.0000 0.11380  0.63850  0.54310  Biso   1.000  H
  H7       1.0000 0.11380  0.36150  0.45690  Biso   1.000  H
  H8       1.0000 0.88620  0.13850  0.95690  Biso   1.000  H
  H9       1.0000 0.61380  0.63850  0.95690  Biso   1.000  H
  H10      1.0000 0.11380  0.13850  0.95690  Biso   1.000  H
  H11      1.0000 0.38620  0.86150  0.45690  Biso   1.000  H
  H12      1.0000 0.38620  0.13850  0.54310  Biso   1.000  H
  H13      1.0000 0.61380  0.36150  0.04310  Biso   1.000  H
  H14      1.0000 0.88620  0.36150  0.45690  Biso   1.000  H
  H15      1.0000 0.88620  0.63850  0.54310  Biso   1.000  H
  H16      1.0000 0.11380  0.86150  0.04310  Biso   1.000  H
  C97      1.0000 0.32810  0.40910  0.03310  Biso   1.000  C
  C98      1.0000 0.82810  0.90910  0.03310  Biso   1.000  C
  C99      1.0000 0.67190  0.09090  0.53310  Biso   1.000  C
  C100     1.0000 0.67190  0.90910  0.46690  Biso   1.000  C
  C101     1.0000 0.32810  0.59090  0.96690  Biso   1.000  C
  C102     1.0000 0.17190  0.59090  0.53310  Biso   1.000  C
  C103     1.0000 0.17190  0.40910  0.46690  Biso   1.000  C
  C104     1.0000 0.82810  0.09090  0.96690  Biso   1.000  C
  C105     1.0000 0.67190  0.59090  0.96690  Biso   1.000  C
  C106     1.0000 0.17190  0.09090  0.96690  Biso   1.000  C
  C107     1.0000 0.32810  0.90910  0.46690  Biso   1.000  C
  C108     1.0000 0.32810  0.09090  0.53310  Biso   1.000  C
  C109     1.0000 0.67190  0.40910  0.03310  Biso   1.000  C
  C110     1.0000 0.82810  0.40910  0.46690  Biso   1.000  C
  C111     1.0000 0.82810  0.59090  0.53310  Biso   1.000  C
  C112     1.0000 0.17190  0.90910  0.03310  Biso   1.000  C
  H17      1.0000 0.31490  0.39160  0.98370  Biso   1.000  H
  H18      1.0000 0.81490  0.89160  0.98370  Biso   1.000  H
  H19      1.0000 0.68510  0.10840  0.48370  Biso   1.000  H
  H20      1.0000 0.68510  0.89160  0.51630  Biso   1.000  H
  H21      1.0000 0.31490  0.60840  0.01630  Biso   1.000  H
  H22      1.0000 0.18510  0.60840  0.48370  Biso   1.000  H
  H23      1.0000 0.18510  0.39160  0.51630  Biso   1.000  H
  H24      1.0000 0.81490  0.10840  0.01630  Biso   1.000  H
  H25      1.0000 0.68510  0.60840  0.01630  Biso   1.000  H
  H26      1.0000 0.18510  0.10840  0.01630  Biso   1.000  H
  H27      1.0000 0.31490  0.89160  0.51630  Biso   1.000  H
  H28      1.0000 0.31490  0.10840  0.48370  Biso   1.000  H
  H29      1.0000 0.68510  0.39160  0.98370  Biso   1.000  H
  H30      1.0000 0.81490  0.39160  0.51630  Biso   1.000  H
  H31      1.0000 0.81490  0.60840  0.48370  Biso   1.000  H
  H32      1.0000 0.18510  0.89160  0.98370  Biso   1.000  H
  C113     1.0000 0.30480  0.45200  0.06930  Biso   1.000  C
  C114     1.0000 0.80480  0.95200  0.06930  Biso   1.000  C
  C115     1.0000 0.69520  0.04800  0.56930  Biso   1.000  C
  C116     1.0000 0.69520  0.95200  0.43070  Biso   1.000  C
  C117     1.0000 0.30480  0.54800  0.93070  Biso   1.000  C
  C118     1.0000 0.19520  0.54800  0.56930  Biso   1.000  C
  C119     1.0000 0.19520  0.45200  0.43070  Biso   1.000  C
  C120     1.0000 0.80480  0.04800  0.93070  Biso   1.000  C
  C121     1.0000 0.69520  0.54800  0.93070  Biso   1.000  C
  C122     1.0000 0.19520  0.04800  0.93070  Biso   1.000  C
  C123     1.0000 0.30480  0.95200  0.43070  Biso   1.000  C
  C124     1.0000 0.30480  0.04800  0.56930  Biso   1.000  C
  C125     1.0000 0.69520  0.45200  0.06930  Biso   1.000  C
  C126     1.0000 0.80480  0.45200  0.43070  Biso   1.000  C
  C127     1.0000 0.80480  0.54800  0.56930  Biso   1.000  C
  C128     1.0000 0.19520  0.95200  0.06930  Biso   1.000  C
  H33      1.0000 0.27530  0.46350  0.04590  Biso   1.000  H
  H34      1.0000 0.77530  0.96350  0.04590  Biso   1.000  H
  H35      1.0000 0.72470  0.03650  0.54590  Biso   1.000  H
  H36      1.0000 0.72470  0.96350  0.45410  Biso   1.000  H
  H37      1.0000 0.27530  0.53650  0.95410  Biso   1.000  H
  H38      1.0000 0.22470  0.53650  0.54590  Biso   1.000  H
  H39      1.0000 0.22470  0.46350  0.45410  Biso   1.000  H
  H40      1.0000 0.77530  0.03650  0.95410  Biso   1.000  H
  H41      1.0000 0.72470  0.53650  0.95410  Biso   1.000  H
  H42      1.0000 0.22470  0.03650  0.95410  Biso   1.000  H
  H43      1.0000 0.27530  0.96350  0.45410  Biso   1.000  H
  H44      1.0000 0.27530  0.03650  0.54590  Biso   1.000  H
  H45      1.0000 0.72470  0.46350  0.04590  Biso   1.000  H
  H46      1.0000 0.77530  0.46350  0.45410  Biso   1.000  H
  H47      1.0000 0.77530  0.53650  0.54590  Biso   1.000  H
  H48      1.0000 0.22470  0.96350  0.04590  Biso   1.000  H
  C129     1.0000 0.32450  0.47860  0.14050  Biso   1.000  C
  C130     1.0000 0.82450  0.97860  0.14050  Biso   1.000  C
  C131     1.0000 0.67550  0.02140  0.64050  Biso   1.000  C
  C132     1.0000 0.67550  0.97860  0.35950  Biso   1.000  C
  C133     1.0000 0.32450  0.52140  0.85950  Biso   1.000  C
  C134     1.0000 0.17550  0.52140  0.64050  Biso   1.000  C
  C135     1.0000 0.17550  0.47860  0.35950  Biso   1.000  C
  C136     1.0000 0.82450  0.02140  0.85950  Biso   1.000  C
  C137     1.0000 0.67550  0.52140  0.85950  Biso   1.000  C
  C138     1.0000 0.17550  0.02140  0.85950  Biso   1.000  C
  C139     1.0000 0.32450  0.97860  0.35950  Biso   1.000  C
  C140     1.0000 0.32450  0.02140  0.64050  Biso   1.000  C
  C141     1.0000 0.67550  0.47860  0.14050  Biso   1.000  C
  C142     1.0000 0.82450  0.47860  0.35950  Biso   1.000  C
  C143     1.0000 0.82450  0.52140  0.64050  Biso   1.000  C
  C144     1.0000 0.17550  0.97860  0.14050  Biso   1.000  C
  C145     1.0000 0.36710  0.46100  0.17490  Biso   1.000  C
  C146     1.0000 0.86710  0.96100  0.17490  Biso   1.000  C
  C147     1.0000 0.63290  0.03900  0.67490  Biso   1.000  C
  C148     1.0000 0.63290  0.96100  0.32510  Biso   1.000  C
  C149     1.0000 0.36710  0.53900  0.82510  Biso   1.000  C
  C150     1.0000 0.13290  0.53900  0.67490  Biso   1.000  C
  C151     1.0000 0.13290  0.46100  0.32510  Biso   1.000  C
  C152     1.0000 0.86710  0.03900  0.82510  Biso   1.000  C
  C153     1.0000 0.63290  0.53900  0.82510  Biso   1.000  C
  C154     1.0000 0.13290  0.03900  0.82510  Biso   1.000  C
  C155     1.0000 0.36710  0.96100  0.32510  Biso   1.000  C
  C156     1.0000 0.36710  0.03900  0.67490  Biso   1.000  C
  C157     1.0000 0.63290  0.46100  0.17490  Biso   1.000  C
  C158     1.0000 0.86710  0.46100  0.32510  Biso   1.000  C
  C159     1.0000 0.86710  0.53900  0.67490  Biso   1.000  C
  C160     1.0000 0.13290  0.96100  0.17490  Biso   1.000  C
  H49      1.0000 0.38090  0.47910  0.22320  Biso   1.000  H
  H50      1.0000 0.88090  0.97910  0.22320  Biso   1.000  H
  H51      1.0000 0.61910  0.02090  0.72320  Biso   1.000  H
  H52      1.0000 0.61910  0.97910  0.27680  Biso   1.000  H
  H53      1.0000 0.38090  0.52090  0.77680  Biso   1.000  H
  H54      1.0000 0.11910  0.52090  0.72320  Biso   1.000  H
  H55      1.0000 0.11910  0.47910  0.27680  Biso   1.000  H
  H56      1.0000 0.88090  0.02090  0.77680  Biso   1.000  H
  H57      1.0000 0.61910  0.52090  0.77680  Biso   1.000  H
  H58      1.0000 0.11910  0.02090  0.77680  Biso   1.000  H
  H59      1.0000 0.38090  0.97910  0.27680  Biso   1.000  H
  H60      1.0000 0.38090  0.02090  0.72320  Biso   1.000  H
  H61      1.0000 0.61910  0.47910  0.22320  Biso   1.000  H
  H62      1.0000 0.88090  0.47910  0.27680  Biso   1.000  H
  H63      1.0000 0.88090  0.52090  0.72320  Biso   1.000  H
  H64      1.0000 0.11910  0.97910  0.22320  Biso   1.000  H
  C161     1.0000 0.29890  0.52530  0.18030  Biso   1.000  C
  C162     1.0000 0.79890  0.02530  0.18030  Biso   1.000  C
  C163     1.0000 0.70110  0.97470  0.68030  Biso   1.000  C
  C164     1.0000 0.70110  0.02530  0.31970  Biso   1.000  C
  C165     1.0000 0.29890  0.47470  0.81970  Biso   1.000  C
  C166     1.0000 0.20110  0.47470  0.68030  Biso   1.000  C
  C167     1.0000 0.20110  0.52530  0.31970  Biso   1.000  C
  C168     1.0000 0.79890  0.97470  0.81970  Biso   1.000  C
  C169     1.0000 0.70110  0.47470  0.81970  Biso   1.000  C
  C170     1.0000 0.20110  0.97470  0.81970  Biso   1.000  C
  C171     1.0000 0.29890  0.02530  0.31970  Biso   1.000  C
  C172     1.0000 0.29890  0.97470  0.68030  Biso   1.000  C
  C173     1.0000 0.70110  0.52530  0.18030  Biso   1.000  C
  C174     1.0000 0.79890  0.52530  0.31970  Biso   1.000  C
  C175     1.0000 0.79890  0.47470  0.68030  Biso   1.000  C
  C176     1.0000 0.20110  0.02530  0.18030  Biso   1.000  C
  C177     1.0000 0.29770  0.17040  0.32610  Biso   1.000  C
  C178     1.0000 0.79770  0.67040  0.32610  Biso   1.000  C
  C179     1.0000 0.70230  0.32960  0.82610  Biso   1.000  C
  C180     1.0000 0.70230  0.67040  0.17390  Biso   1.000  C
  C181     1.0000 0.29770  0.82960  0.67390  Biso   1.000  C
  C182     1.0000 0.20230  0.82960  0.82610  Biso   1.000  C
  C183     1.0000 0.20230  0.17040  0.17390  Biso   1.000  C
  C184     1.0000 0.79770  0.32960  0.67390  Biso   1.000  C
  C185     1.0000 0.70230  0.82960  0.67390  Biso   1.000  C
  C186     1.0000 0.20230  0.32960  0.67390  Biso   1.000  C
  C187     1.0000 0.29770  0.67040  0.17390  Biso   1.000  C
  C188     1.0000 0.29770  0.32960  0.82610  Biso   1.000  C
  C189     1.0000 0.70230  0.17040  0.32610  Biso   1.000  C
  C190     1.0000 0.79770  0.17040  0.17390  Biso   1.000  C
  C191     1.0000 0.79770  0.82960  0.82610  Biso   1.000  C
  C192     1.0000 0.20230  0.67040  0.32610  Biso   1.000  C
  C193     1.0000 0.32550  0.21220  0.37380  Biso   1.000  C
  C194     1.0000 0.82550  0.71220  0.37380  Biso   1.000  C
  C195     1.0000 0.67450  0.28780  0.87380  Biso   1.000  C
  C196     1.0000 0.67450  0.71220  0.12620  Biso   1.000  C
  C197     1.0000 0.32550  0.78780  0.62620  Biso   1.000  C
  C198     1.0000 0.17450  0.78780  0.87380  Biso   1.000  C
  C199     1.0000 0.17450  0.21220  0.12620  Biso   1.000  C
  C200     1.0000 0.82550  0.28780  0.62620  Biso   1.000  C
  C201     1.0000 0.67450  0.78780  0.62620  Biso   1.000  C
  C202     1.0000 0.17450  0.28780  0.62620  Biso   1.000  C
  C203     1.0000 0.32550  0.71220  0.12620  Biso   1.000  C
  C204     1.0000 0.32550  0.28780  0.87380  Biso   1.000  C
  C205     1.0000 0.67450  0.21220  0.37380  Biso   1.000  C
  C206     1.0000 0.82550  0.21220  0.12620  Biso   1.000  C
  C207     1.0000 0.82550  0.78780  0.87380  Biso   1.000  C
  C208     1.0000 0.17450  0.71220  0.37380  Biso   1.000  C
  C209     1.0000 0.31090  0.22840  0.45600  Biso   1.000  C
  C210     1.0000 0.81090  0.72840  0.45600  Biso   1.000  C
  C211     1.0000 0.68910  0.27160  0.95600  Biso   1.000  C
  C212     1.0000 0.68910  0.72840  0.04400  Biso   1.000  C
  C213     1.0000 0.31090  0.77160  0.54400  Biso   1.000  C
  C214     1.0000 0.18910  0.77160  0.95600  Biso   1.000  C
  C215     1.0000 0.18910  0.22840  0.04400  Biso   1.000  C
  C216     1.0000 0.81090  0.27160  0.54400  Biso   1.000  C
  C217     1.0000 0.68910  0.77160  0.54400  Biso   1.000  C
  C218     1.0000 0.18910  0.27160  0.54400  Biso   1.000  C
  C219     1.0000 0.31090  0.72840  0.04400  Biso   1.000  C
  C220     1.0000 0.31090  0.27160  0.95600  Biso   1.000  C
  C221     1.0000 0.68910  0.22840  0.45600  Biso   1.000  C
  C222     1.0000 0.81090  0.22840  0.04400  Biso   1.000  C
  C223     1.0000 0.81090  0.77160  0.95600  Biso   1.000  C
  C224     1.0000 0.18910  0.72840  0.45600  Biso   1.000  C
  H65      1.0000 0.28350  0.21300  0.48210  Biso   1.000  H
  H66      1.0000 0.78350  0.71300  0.48210  Biso   1.000  H
  H67      1.0000 0.71650  0.28700  0.98210  Biso   1.000  H
  H68      1.0000 0.71650  0.71300  0.01790  Biso   1.000  H
  H69      1.0000 0.28350  0.78700  0.51790  Biso   1.000  H
  H70      1.0000 0.21650  0.78700  0.98210  Biso   1.000  H
  H71      1.0000 0.21650  0.21300  0.01790  Biso   1.000  H
  H72      1.0000 0.78350  0.28700  0.51790  Biso   1.000  H
  H73      1.0000 0.71650  0.78700  0.51790  Biso   1.000  H
  H74      1.0000 0.21650  0.28700  0.51790  Biso   1.000  H
  H75      1.0000 0.28350  0.71300  0.01790  Biso   1.000  H
  H76      1.0000 0.28350  0.28700  0.98210  Biso   1.000  H
  H77      1.0000 0.71650  0.21300  0.48210  Biso   1.000  H
  H78      1.0000 0.78350  0.21300  0.01790  Biso   1.000  H
  H79      1.0000 0.78350  0.78700  0.98210  Biso   1.000  H
  H80      1.0000 0.21650  0.71300  0.48210  Biso   1.000  H
  C225     1.0000 0.33650  0.26670  0.49920  Biso   1.000  C
  C226     1.0000 0.83650  0.76670  0.49920  Biso   1.000  C
  C227     1.0000 0.66350  0.23330  0.99920  Biso   1.000  C
  C228     1.0000 0.66350  0.76670  0.00080  Biso   1.000  C
  C229     1.0000 0.33650  0.73330  0.50080  Biso   1.000  C
  C230     1.0000 0.16350  0.73330  0.99920  Biso   1.000  C
  C231     1.0000 0.16350  0.26670  0.00080  Biso   1.000  C
  C232     1.0000 0.83650  0.23330  0.50080  Biso   1.000  C
  C233     1.0000 0.66350  0.73330  0.50080  Biso   1.000  C
  C234     1.0000 0.16350  0.23330  0.50080  Biso   1.000  C
  C235     1.0000 0.33650  0.76670  0.00080  Biso   1.000  C
  C236     1.0000 0.33650  0.23330  0.99920  Biso   1.000  C
  C237     1.0000 0.66350  0.26670  0.49920  Biso   1.000  C
  C238     1.0000 0.83650  0.26670  0.00080  Biso   1.000  C
  C239     1.0000 0.83650  0.73330  0.99920  Biso   1.000  C
  C240     1.0000 0.16350  0.76670  0.49920  Biso   1.000  C
  H81      1.0000 0.32670  0.27770  0.55570  Biso   1.000  H
  H82      1.0000 0.82670  0.77770  0.55570  Biso   1.000  H
  H83      1.0000 0.67330  0.22230  0.05570  Biso   1.000  H
  H84      1.0000 0.67330  0.77770  0.94430  Biso   1.000  H
  H85      1.0000 0.32670  0.72230  0.44430  Biso   1.000  H
  H86      1.0000 0.17330  0.72230  0.05570  Biso   1.000  H
  H87      1.0000 0.17330  0.27770  0.94430  Biso   1.000  H
  H88      1.0000 0.82670  0.22230  0.44430  Biso   1.000  H
  H89      1.0000 0.67330  0.72230  0.44430  Biso   1.000  H
  H90      1.0000 0.17330  0.22230  0.44430  Biso   1.000  H
  H91      1.0000 0.32670  0.77770  0.94430  Biso   1.000  H
  H92      1.0000 0.32670  0.22230  0.05570  Biso   1.000  H
  H93      1.0000 0.67330  0.27770  0.55570  Biso   1.000  H
  H94      1.0000 0.82670  0.27770  0.94430  Biso   1.000  H
  H95      1.0000 0.82670  0.72230  0.05570  Biso   1.000  H
  H96      1.0000 0.17330  0.77770  0.55570  Biso   1.000  H
  C241     1.0000 0.37650  0.28970  0.46170  Biso   1.000  C
  C242     1.0000 0.87650  0.78970  0.46170  Biso   1.000  C
  C243     1.0000 0.62350  0.21030  0.96170  Biso   1.000  C
  C244     1.0000 0.62350  0.78970  0.03830  Biso   1.000  C
  C245     1.0000 0.37650  0.71030  0.53830  Biso   1.000  C
  C246     1.0000 0.12350  0.71030  0.96170  Biso   1.000  C
  C247     1.0000 0.12350  0.28970  0.03830  Biso   1.000  C
  C248     1.0000 0.87650  0.21030  0.53830  Biso   1.000  C
  C249     1.0000 0.62350  0.71030  0.53830  Biso   1.000  C
  C250     1.0000 0.12350  0.21030  0.53830  Biso   1.000  C
  C251     1.0000 0.37650  0.78970  0.03830  Biso   1.000  C
  C252     1.0000 0.37650  0.21030  0.96170  Biso   1.000  C
  C253     1.0000 0.62350  0.28970  0.46170  Biso   1.000  C
  C254     1.0000 0.87650  0.28970  0.03830  Biso   1.000  C
  C255     1.0000 0.87650  0.71030  0.96170  Biso   1.000  C
  C256     1.0000 0.12350  0.78970  0.46170  Biso   1.000  C
  H97      1.0000 0.39390  0.31640  0.49220  Biso   1.000  H
  H98      1.0000 0.89390  0.81640  0.49220  Biso   1.000  H
  H99      1.0000 0.60610  0.18360  0.99220  Biso   1.000  H
  H100     1.0000 0.60610  0.81640  0.00780  Biso   1.000  H
  H101     1.0000 0.39390  0.68360  0.50780  Biso   1.000  H
  H102     1.0000 0.10610  0.68360  0.99220  Biso   1.000  H
  H103     1.0000 0.10610  0.31640  0.00780  Biso   1.000  H
  H104     1.0000 0.89390  0.18360  0.50780  Biso   1.000  H
  H105     1.0000 0.60610  0.68360  0.50780  Biso   1.000  H
  H106     1.0000 0.10610  0.18360  0.50780  Biso   1.000  H
  H107     1.0000 0.39390  0.81640  0.00780  Biso   1.000  H
  H108     1.0000 0.39390  0.18360  0.99220  Biso   1.000  H
  H109     1.0000 0.60610  0.31640  0.49220  Biso   1.000  H
  H110     1.0000 0.89390  0.31640  0.00780  Biso   1.000  H
  H111     1.0000 0.89390  0.68360  0.99220  Biso   1.000  H
  H112     1.0000 0.10610  0.81640  0.49220  Biso   1.000  H
  C257     1.0000 0.39090  0.27350  0.37950  Biso   1.000  C
  C258     1.0000 0.89090  0.77350  0.37950  Biso   1.000  C
  C259     1.0000 0.60910  0.22650  0.87950  Biso   1.000  C
  C260     1.0000 0.60910  0.77350  0.12050  Biso   1.000  C
  C261     1.0000 0.39090  0.72650  0.62050  Biso   1.000  C
  C262     1.0000 0.10910  0.72650  0.87950  Biso   1.000  C
  C263     1.0000 0.10910  0.27350  0.12050  Biso   1.000  C
  C264     1.0000 0.89090  0.22650  0.62050  Biso   1.000  C
  C265     1.0000 0.60910  0.72650  0.62050  Biso   1.000  C
  C266     1.0000 0.10910  0.22650  0.62050  Biso   1.000  C
  C267     1.0000 0.39090  0.77350  0.12050  Biso   1.000  C
  C268     1.0000 0.39090  0.22650  0.87950  Biso   1.000  C
  C269     1.0000 0.60910  0.27350  0.37950  Biso   1.000  C
  C270     1.0000 0.89090  0.27350  0.12050  Biso   1.000  C
  C271     1.0000 0.89090  0.72650  0.87950  Biso   1.000  C
  C272     1.0000 0.10910  0.77350  0.37950  Biso   1.000  C
  C273     1.0000 0.36510  0.23460  0.33580  Biso   1.000  C
  C274     1.0000 0.86510  0.73460  0.33580  Biso   1.000  C
  C275     1.0000 0.63490  0.26540  0.83580  Biso   1.000  C
  C276     1.0000 0.63490  0.73460  0.16420  Biso   1.000  C
  C277     1.0000 0.36510  0.76540  0.66420  Biso   1.000  C
  C278     1.0000 0.13490  0.76540  0.83580  Biso   1.000  C
  C279     1.0000 0.13490  0.23460  0.16420  Biso   1.000  C
  C280     1.0000 0.86510  0.26540  0.66420  Biso   1.000  C
  C281     1.0000 0.63490  0.76540  0.66420  Biso   1.000  C
  C282     1.0000 0.13490  0.26540  0.66420  Biso   1.000  C
  C283     1.0000 0.36510  0.73460  0.16420  Biso   1.000  C
  C284     1.0000 0.36510  0.26540  0.83580  Biso   1.000  C
  C285     1.0000 0.63490  0.23460  0.33580  Biso   1.000  C
  C286     1.0000 0.86510  0.23460  0.16420  Biso   1.000  C
  C287     1.0000 0.86510  0.76540  0.83580  Biso   1.000  C
  C288     1.0000 0.13490  0.73460  0.33580  Biso   1.000  C
  H113     1.0000 0.37490  0.22330  0.27940  Biso   1.000  H
  H114     1.0000 0.87490  0.72330  0.27940  Biso   1.000  H
  H115     1.0000 0.62510  0.27670  0.77940  Biso   1.000  H
  H116     1.0000 0.62510  0.72330  0.22060  Biso   1.000  H
  H117     1.0000 0.37490  0.77670  0.72060  Biso   1.000  H
  H118     1.0000 0.12510  0.77670  0.77940  Biso   1.000  H
  H119     1.0000 0.12510  0.22330  0.22060  Biso   1.000  H
  H120     1.0000 0.87490  0.27670  0.72060  Biso   1.000  H
  H121     1.0000 0.62510  0.77670  0.72060  Biso   1.000  H
  H122     1.0000 0.12510  0.27670  0.72060  Biso   1.000  H
  H123     1.0000 0.37490  0.72330  0.22060  Biso   1.000  H
  H124     1.0000 0.37490  0.27670  0.77940  Biso   1.000  H
  H125     1.0000 0.62510  0.22330  0.27940  Biso   1.000  H
  H126     1.0000 0.87490  0.22330  0.22060  Biso   1.000  H
  H127     1.0000 0.87490  0.77670  0.77940  Biso   1.000  H
  H128     1.0000 0.12510  0.72330  0.27940  Biso   1.000  H
  C289     1.0000 0.43420  0.29820  0.33770  Biso   1.000  C
  C290     1.0000 0.93420  0.79820  0.33770  Biso   1.000  C
  C291     1.0000 0.56580  0.20180  0.83770  Biso   1.000  C
  C292     1.0000 0.56580  0.79820  0.16230  Biso   1.000  C
  C293     1.0000 0.43420  0.70180  0.66230  Biso   1.000  C
  C294     1.0000 0.06580  0.70180  0.83770  Biso   1.000  C
  C295     1.0000 0.06580  0.29820  0.16230  Biso   1.000  C
  C296     1.0000 0.93420  0.20180  0.66230  Biso   1.000  C
  C297     1.0000 0.56580  0.70180  0.66230  Biso   1.000  C
  C298     1.0000 0.06580  0.20180  0.66230  Biso   1.000  C
  C299     1.0000 0.43420  0.79820  0.16230  Biso   1.000  C
  C300     1.0000 0.43420  0.20180  0.83770  Biso   1.000  C
  C301     1.0000 0.56580  0.29820  0.33770  Biso   1.000  C
  C302     1.0000 0.93420  0.29820  0.16230  Biso   1.000  C
  C303     1.0000 0.93420  0.70180  0.83770  Biso   1.000  C
  C304     1.0000 0.06580  0.79820  0.33770  Biso   1.000  C
  C305     1.0000 0.48260  0.25250  0.02040  Biso   1.000  C
  C306     1.0000 0.98260  0.75250  0.02040  Biso   1.000  C
  C307     1.0000 0.51740  0.24750  0.52040  Biso   1.000  C
  C308     1.0000 0.51740  0.75250  0.47960  Biso   1.000  C
  C309     1.0000 0.48260  0.74750  0.97960  Biso   1.000  C
  C310     1.0000 0.01740  0.74750  0.52040  Biso   1.000  C
  C311     1.0000 0.01740  0.25250  0.47960  Biso   1.000  C
  C312     1.0000 0.98260  0.24750  0.97960  Biso   1.000  C
  C313     1.0000 0.51740  0.74750  0.97960  Biso   1.000  C
  C314     1.0000 0.01740  0.24750  0.97960  Biso   1.000  C
  C315     1.0000 0.48260  0.75250  0.47960  Biso   1.000  C
  C316     1.0000 0.48260  0.24750  0.52040  Biso   1.000  C
  C317     1.0000 0.51740  0.25250  0.02040  Biso   1.000  C
  C318     1.0000 0.98260  0.25250  0.47960  Biso   1.000  C
  C319     1.0000 0.98260  0.74750  0.52040  Biso   1.000  C
  C320     1.0000 0.01740  0.75250  0.02040  Biso   1.000  C
  C321     1.0000 0.50000  0.29900  0.96340  Biso   1.000  C
  C322     1.0000 0.00000  0.79900  0.96340  Biso   1.000  C
  C323     1.0000 0.50000  0.20100  0.46340  Biso   1.000  C
  C324     1.0000 0.50000  0.79900  0.53660  Biso   1.000  C
  C325     1.0000 0.50000  0.70100  0.03660  Biso   1.000  C
  C326     1.0000 0.00000  0.70100  0.46340  Biso   1.000  C
  C327     1.0000 0.00000  0.29900  0.53660  Biso   1.000  C
  C328     1.0000 0.00000  0.20100  0.03660  Biso   1.000  C
  C329     1.0000 0.19260  0.60390  0.00250  Biso   1.000  C
  C330     1.0000 0.69260  0.10390  0.00250  Biso   1.000  C
  C331     1.0000 0.80740  0.89610  0.50250  Biso   1.000  C
  C332     1.0000 0.80740  0.10390  0.49750  Biso   1.000  C
  C333     1.0000 0.19260  0.39610  0.99750  Biso   1.000  C
  C334     1.0000 0.30740  0.39610  0.50250  Biso   1.000  C
  C335     1.0000 0.30740  0.60390  0.49750  Biso   1.000  C
  C336     1.0000 0.69260  0.89610  0.99750  Biso   1.000  C
  C337     1.0000 0.80740  0.39610  0.99750  Biso   1.000  C
  C338     1.0000 0.30740  0.89610  0.99750  Biso   1.000  C
  C339     1.0000 0.19260  0.10390  0.49750  Biso   1.000  C
  C340     1.0000 0.19260  0.89610  0.50250  Biso   1.000  C
  C341     1.0000 0.80740  0.60390  0.00250  Biso   1.000  C
  C342     1.0000 0.69260  0.60390  0.49750  Biso   1.000  C
  C343     1.0000 0.69260  0.39610  0.50250  Biso   1.000  C
  C344     1.0000 0.30740  0.10390  0.00250  Biso   1.000  C
  H129     1.0000 0.22050  0.62520  0.00260  Biso   1.000  H
  H130     1.0000 0.72050  0.12520  0.00260  Biso   1.000  H
  H131     1.0000 0.77950  0.87480  0.50260  Biso   1.000  H
  H132     1.0000 0.77950  0.12520  0.49740  Biso   1.000  H
  H133     1.0000 0.22050  0.37480  0.99740  Biso   1.000  H
  H134     1.0000 0.27950  0.37480  0.50260  Biso   1.000  H
  H135     1.0000 0.27950  0.62520  0.49740  Biso   1.000  H
  H136     1.0000 0.72050  0.87480  0.99740  Biso   1.000  H
  H137     1.0000 0.77950  0.37480  0.99740  Biso   1.000  H
  H138     1.0000 0.27950  0.87480  0.99740  Biso   1.000  H
  H139     1.0000 0.22050  0.12520  0.49740  Biso   1.000  H
  H140     1.0000 0.22050  0.87480  0.50260  Biso   1.000  H
  H141     1.0000 0.77950  0.62520  0.00260  Biso   1.000  H
  H142     1.0000 0.72050  0.62520  0.49740  Biso   1.000  H
  H143     1.0000 0.72050  0.37480  0.50260  Biso   1.000  H
  H144     1.0000 0.27950  0.12520  0.00260  Biso   1.000  H
  C345     1.0000 0.19800  0.60620  0.84380  Biso   1.000  C
  C346     1.0000 0.69800  0.10620  0.84380  Biso   1.000  C
  C347     1.0000 0.80200  0.89380  0.34380  Biso   1.000  C
  C348     1.0000 0.80200  0.10620  0.65620  Biso   1.000  C
  C349     1.0000 0.19800  0.39380  0.15620  Biso   1.000  C
  C350     1.0000 0.30200  0.39380  0.34380  Biso   1.000  C
  C351     1.0000 0.30200  0.60620  0.65620  Biso   1.000  C
  C352     1.0000 0.69800  0.89380  0.15620  Biso   1.000  C
  C353     1.0000 0.80200  0.39380  0.15620  Biso   1.000  C
  C354     1.0000 0.30200  0.89380  0.15620  Biso   1.000  C
  C355     1.0000 0.19800  0.10620  0.65620  Biso   1.000  C
  C356     1.0000 0.19800  0.89380  0.34380  Biso   1.000  C
  C357     1.0000 0.80200  0.60620  0.84380  Biso   1.000  C
  C358     1.0000 0.69800  0.60620  0.65620  Biso   1.000  C
  C359     1.0000 0.69800  0.39380  0.34380  Biso   1.000  C
  C360     1.0000 0.30200  0.10620  0.84380  Biso   1.000  C
  H145     1.0000 0.22560  0.62860  0.85740  Biso   1.000  H
  H146     1.0000 0.72560  0.12860  0.85740  Biso   1.000  H
  H147     1.0000 0.77440  0.87140  0.35740  Biso   1.000  H
  H148     1.0000 0.77440  0.12860  0.64260  Biso   1.000  H
  H149     1.0000 0.22560  0.37140  0.14260  Biso   1.000  H
  H150     1.0000 0.27440  0.37140  0.35740  Biso   1.000  H
  H151     1.0000 0.27440  0.62860  0.64260  Biso   1.000  H
  H152     1.0000 0.72560  0.87140  0.14260  Biso   1.000  H
  H153     1.0000 0.77440  0.37140  0.14260  Biso   1.000  H
  H154     1.0000 0.27440  0.87140  0.14260  Biso   1.000  H
  H155     1.0000 0.22560  0.12860  0.64260  Biso   1.000  H
  H156     1.0000 0.22560  0.87140  0.35740  Biso   1.000  H
  H157     1.0000 0.77440  0.62860  0.85740  Biso   1.000  H
  H158     1.0000 0.72560  0.62860  0.64260  Biso   1.000  H
  H159     1.0000 0.72560  0.37140  0.35740  Biso   1.000  H
  H160     1.0000 0.27440  0.12860  0.85740  Biso   1.000  H
  H161     1.0000 0.17530  0.62680  0.80880  Biso   1.000  H
  H162     1.0000 0.67530  0.12680  0.80880  Biso   1.000  H
  H163     1.0000 0.82470  0.87320  0.30880  Biso   1.000  H
  H164     1.0000 0.82470  0.12680  0.69120  Biso   1.000  H
  H165     1.0000 0.17530  0.37320  0.19120  Biso   1.000  H
  H166     1.0000 0.32470  0.37320  0.30880  Biso   1.000  H
  H167     1.0000 0.32470  0.62680  0.69120  Biso   1.000  H
  H168     1.0000 0.67530  0.87320  0.19120  Biso   1.000  H
  H169     1.0000 0.82470  0.37320  0.19120  Biso   1.000  H
  H170     1.0000 0.32470  0.87320  0.19120  Biso   1.000  H
  H171     1.0000 0.17530  0.12680  0.69120  Biso   1.000  H
  H172     1.0000 0.17530  0.87320  0.30880  Biso   1.000  H
  H173     1.0000 0.82470  0.62680  0.80880  Biso   1.000  H
  H174     1.0000 0.67530  0.62680  0.69120  Biso   1.000  H
  H175     1.0000 0.67530  0.37320  0.30880  Biso   1.000  H
  H176     1.0000 0.32470  0.12680  0.80880  Biso   1.000  H
  H177     1.0000 0.20830  0.57470  0.81100  Biso   1.000  H
  H178     1.0000 0.70830  0.07470  0.81100  Biso   1.000  H
  H179     1.0000 0.79170  0.92530  0.31100  Biso   1.000  H
  H180     1.0000 0.79170  0.07470  0.68900  Biso   1.000  H
  H181     1.0000 0.20830  0.42530  0.18900  Biso   1.000  H
  H182     1.0000 0.29170  0.42530  0.31100  Biso   1.000  H
  H183     1.0000 0.29170  0.57470  0.68900  Biso   1.000  H
  H184     1.0000 0.70830  0.92530  0.18900  Biso   1.000  H
  H185     1.0000 0.79170  0.42530  0.18900  Biso   1.000  H
  H186     1.0000 0.29170  0.92530  0.18900  Biso   1.000  H
  H187     1.0000 0.20830  0.07470  0.68900  Biso   1.000  H
  H188     1.0000 0.20830  0.92530  0.31100  Biso   1.000  H
  H189     1.0000 0.79170  0.57470  0.81100  Biso   1.000  H
  H190     1.0000 0.70830  0.57470  0.68900  Biso   1.000  H
  H191     1.0000 0.70830  0.42530  0.31100  Biso   1.000  H
  H192     1.0000 0.29170  0.07470  0.81100  Biso   1.000  H
  C361     1.0000 0.13390  0.55590  0.91930  Biso   1.000  C
  C362     1.0000 0.63390  0.05590  0.91930  Biso   1.000  C
  C363     1.0000 0.86610  0.94410  0.41930  Biso   1.000  C
  C364     1.0000 0.86610  0.05590  0.58070  Biso   1.000  C
  C365     1.0000 0.13390  0.44410  0.08070  Biso   1.000  C
  C366     1.0000 0.36610  0.44410  0.41930  Biso   1.000  C
  C367     1.0000 0.36610  0.55590  0.58070  Biso   1.000  C
  C368     1.0000 0.63390  0.94410  0.08070  Biso   1.000  C
  C369     1.0000 0.86610  0.44410  0.08070  Biso   1.000  C
  C370     1.0000 0.36610  0.94410  0.08070  Biso   1.000  C
  C371     1.0000 0.13390  0.05590  0.58070  Biso   1.000  C
  C372     1.0000 0.13390  0.94410  0.41930  Biso   1.000  C
  C373     1.0000 0.86610  0.55590  0.91930  Biso   1.000  C
  C374     1.0000 0.63390  0.55590  0.58070  Biso   1.000  C
  C375     1.0000 0.63390  0.44410  0.41930  Biso   1.000  C
  C376     1.0000 0.36610  0.05590  0.91930  Biso   1.000  C
  H193     1.0000 0.12270  0.54790  0.97840  Biso   1.000  H
  H194     1.0000 0.62270  0.04790  0.97840  Biso   1.000  H
  H195     1.0000 0.87730  0.95210  0.47840  Biso   1.000  H
  H196     1.0000 0.87730  0.04790  0.52160  Biso   1.000  H
  H197     1.0000 0.12270  0.45210  0.02160  Biso   1.000  H
  H198     1.0000 0.37730  0.45210  0.47840  Biso   1.000  H
  H199     1.0000 0.37730  0.54790  0.52160  Biso   1.000  H
  H200     1.0000 0.62270  0.95210  0.02160  Biso   1.000  H
  H201     1.0000 0.87730  0.45210  0.02160  Biso   1.000  H
  H202     1.0000 0.37730  0.95210  0.02160  Biso   1.000  H
  H203     1.0000 0.12270  0.04790  0.52160  Biso   1.000  H
  H204     1.0000 0.12270  0.95210  0.47840  Biso   1.000  H
  H205     1.0000 0.87730  0.54790  0.97840  Biso   1.000  H
  H206     1.0000 0.62270  0.54790  0.52160  Biso   1.000  H
  H207     1.0000 0.62270  0.45210  0.47840  Biso   1.000  H
  H208     1.0000 0.37730  0.04790  0.97840  Biso   1.000  H
  H209     1.0000 0.14190  0.52250  0.88940  Biso   1.000  H
  H210     1.0000 0.64190  0.02250  0.88940  Biso   1.000  H
  H211     1.0000 0.85810  0.97750  0.38940  Biso   1.000  H
  H212     1.0000 0.85810  0.02250  0.61060  Biso   1.000  H
  H213     1.0000 0.14190  0.47750  0.11060  Biso   1.000  H
  H214     1.0000 0.35810  0.47750  0.38940  Biso   1.000  H
  H215     1.0000 0.35810  0.52250  0.61060  Biso   1.000  H
  H216     1.0000 0.64190  0.97750  0.11060  Biso   1.000  H
  H217     1.0000 0.85810  0.47750  0.11060  Biso   1.000  H
  H218     1.0000 0.35810  0.97750  0.11060  Biso   1.000  H
  H219     1.0000 0.14190  0.02250  0.61060  Biso   1.000  H
  H220     1.0000 0.14190  0.97750  0.38940  Biso   1.000  H
  H221     1.0000 0.85810  0.52250  0.88940  Biso   1.000  H
  H222     1.0000 0.64190  0.52250  0.61060  Biso   1.000  H
  H223     1.0000 0.64190  0.47750  0.38940  Biso   1.000  H
  H224     1.0000 0.35810  0.02250  0.88940  Biso   1.000  H
  H225     1.0000 0.10870  0.57440  0.88710  Biso   1.000  H
  H226     1.0000 0.60870  0.07440  0.88710  Biso   1.000  H
  H227     1.0000 0.89130  0.92560  0.38710  Biso   1.000  H
  H228     1.0000 0.89130  0.07440  0.61290  Biso   1.000  H
  H229     1.0000 0.10870  0.42560  0.11290  Biso   1.000  H
  H230     1.0000 0.39130  0.42560  0.38710  Biso   1.000  H
  H231     1.0000 0.39130  0.57440  0.61290  Biso   1.000  H
  H232     1.0000 0.60870  0.92560  0.11290  Biso   1.000  H
  H233     1.0000 0.89130  0.42560  0.11290  Biso   1.000  H
  H234     1.0000 0.39130  0.92560  0.11290  Biso   1.000  H
  H235     1.0000 0.10870  0.07440  0.61290  Biso   1.000  H
  H236     1.0000 0.10870  0.92560  0.38710  Biso   1.000  H
  H237     1.0000 0.89130  0.57440  0.88710  Biso   1.000  H
  H238     1.0000 0.60870  0.57440  0.61290  Biso   1.000  H
  H239     1.0000 0.60870  0.42560  0.38710  Biso   1.000  H
  H240     1.0000 0.39130  0.07440  0.88710  Biso   1.000  H
  H241     1.0000 0.52390  0.46530  0.41630  Biso   1.000  H
  H242     1.0000 0.02390  0.96530  0.41630  Biso   1.000  H
  H243     1.0000 0.47610  0.03470  0.91630  Biso   1.000  H
  H244     1.0000 0.47610  0.96530  0.08370  Biso   1.000  H
  H245     1.0000 0.52390  0.53470  0.58370  Biso   1.000  H
  H246     1.0000 0.97610  0.53470  0.91630  Biso   1.000  H
  H247     1.0000 0.97610  0.46530  0.08370  Biso   1.000  H
  H248     1.0000 0.02390  0.03470  0.58370  Biso   1.000  H
  H249     1.0000 0.47610  0.53470  0.58370  Biso   1.000  H
  H250     1.0000 0.97610  0.03470  0.58370  Biso   1.000  H
  H251     1.0000 0.52390  0.96530  0.08370  Biso   1.000  H
  H252     1.0000 0.52390  0.03470  0.91630  Biso   1.000  H
  H253     1.0000 0.47610  0.46530  0.41630  Biso   1.000  H
  H254     1.0000 0.02390  0.46530  0.08370  Biso   1.000  H
  H255     1.0000 0.02390  0.53470  0.91630  Biso   1.000  H
  H256     1.0000 0.97610  0.96530  0.41630  Biso   1.000  H
  H257     1.0000 0.49640  0.43190  0.46930  Biso   1.000  H
  H258     1.0000 0.99640  0.93190  0.46930  Biso   1.000  H
  H259     1.0000 0.50360  0.06810  0.96930  Biso   1.000  H
  H260     1.0000 0.50360  0.93190  0.03070  Biso   1.000  H
  H261     1.0000 0.49640  0.56810  0.53070  Biso   1.000  H
  H262     1.0000 0.00360  0.56810  0.96930  Biso   1.000  H
  H263     1.0000 0.00360  0.43190  0.03070  Biso   1.000  H
  H264     1.0000 0.99640  0.06810  0.53070  Biso   1.000  H
  H265     1.0000 0.50360  0.56810  0.53070  Biso   1.000  H
  H266     1.0000 0.00360  0.06810  0.53070  Biso   1.000  H
  H267     1.0000 0.49640  0.93190  0.03070  Biso   1.000  H
  H268     1.0000 0.49640  0.06810  0.96930  Biso   1.000  H
  H269     1.0000 0.50360  0.43190  0.46930  Biso   1.000  H
  H270     1.0000 0.99640  0.43190  0.03070  Biso   1.000  H
  H271     1.0000 0.99640  0.56810  0.96930  Biso   1.000  H
  H272     1.0000 0.00360  0.93190  0.46930  Biso   1.000  H
  H273     1.0000 0.52920  0.24560  0.09360  Biso   1.000  H
  H274     1.0000 0.02920  0.74560  0.09360  Biso   1.000  H
  H275     1.0000 0.47080  0.25440  0.59360  Biso   1.000  H
  H276     1.0000 0.47080  0.74560  0.40640  Biso   1.000  H
  H277     1.0000 0.52920  0.75440  0.90640  Biso   1.000  H
  H278     1.0000 0.97080  0.75440  0.59360  Biso   1.000  H
  H279     1.0000 0.97080  0.24560  0.40640  Biso   1.000  H
  H280     1.0000 0.02920  0.25440  0.90640  Biso   1.000  H
  H281     1.0000 0.47080  0.75440  0.90640  Biso   1.000  H
  H282     1.0000 0.97080  0.25440  0.90640  Biso   1.000  H
  H283     1.0000 0.52920  0.74560  0.40640  Biso   1.000  H
  H284     1.0000 0.52920  0.25440  0.59360  Biso   1.000  H
  H285     1.0000 0.47080  0.24560  0.09360  Biso   1.000  H
  H286     1.0000 0.02920  0.24560  0.40640  Biso   1.000  H
  H287     1.0000 0.02920  0.75440  0.59360  Biso   1.000  H
  H288     1.0000 0.97080  0.74560  0.09360  Biso   1.000  H
  H289     1.0000 0.44850  0.25380  0.02360  Biso   1.000  H
  H290     1.0000 0.94850  0.75380  0.02360  Biso   1.000  H
  H291     1.0000 0.55150  0.24620  0.52360  Biso   1.000  H
  H292     1.0000 0.55150  0.75380  0.47640  Biso   1.000  H
  H293     1.0000 0.44850  0.74620  0.97640  Biso   1.000  H
  H294     1.0000 0.05150  0.74620  0.52360  Biso   1.000  H
  H295     1.0000 0.05150  0.25380  0.47640  Biso   1.000  H
  H296     1.0000 0.94850  0.24620  0.97640  Biso   1.000  H
  H297     1.0000 0.55150  0.74620  0.97640  Biso   1.000  H
  H298     1.0000 0.05150  0.24620  0.97640  Biso   1.000  H
  H299     1.0000 0.44850  0.75380  0.47640  Biso   1.000  H
  H300     1.0000 0.44850  0.24620  0.52360  Biso   1.000  H
  H301     1.0000 0.55150  0.25380  0.02360  Biso   1.000  H
  H302     1.0000 0.94850  0.25380  0.47640  Biso   1.000  H
  H303     1.0000 0.94850  0.74620  0.52360  Biso   1.000  H
  H304     1.0000 0.05150  0.75380  0.02360  Biso   1.000  H
  H305     1.0000 0.49130  0.21960  0.99260  Biso   1.000  H
  H306     1.0000 0.99130  0.71960  0.99260  Biso   1.000  H
  H307     1.0000 0.50870  0.28040  0.49260  Biso   1.000  H
  H308     1.0000 0.50870  0.71960  0.50740  Biso   1.000  H
  H309     1.0000 0.49130  0.78040  0.00740  Biso   1.000  H
  H310     1.0000 0.00870  0.78040  0.49260  Biso   1.000  H
  H311     1.0000 0.00870  0.21960  0.50740  Biso   1.000  H
  H312     1.0000 0.99130  0.28040  0.00740  Biso   1.000  H
  H313     1.0000 0.50870  0.78040  0.00740  Biso   1.000  H
  H314     1.0000 0.00870  0.28040  0.00740  Biso   1.000  H
  H315     1.0000 0.49130  0.71960  0.50740  Biso   1.000  H
  H316     1.0000 0.49130  0.28040  0.49260  Biso   1.000  H
  H317     1.0000 0.50870  0.21960  0.99260  Biso   1.000  H
  H318     1.0000 0.99130  0.21960  0.50740  Biso   1.000  H
  H319     1.0000 0.99130  0.78040  0.49260  Biso   1.000  H
  H320     1.0000 0.00870  0.71960  0.99260  Biso   1.000  H
  H321     1.0000 0.48620  0.29660  0.90640  Biso   1.000  H
  H322     1.0000 0.98620  0.79660  0.90640  Biso   1.000  H
  H323     1.0000 0.51380  0.20340  0.40640  Biso   1.000  H
  H324     1.0000 0.51380  0.79660  0.59360  Biso   1.000  H
  H325     1.0000 0.48620  0.70340  0.09360  Biso   1.000  H
  H326     1.0000 0.01380  0.70340  0.40640  Biso   1.000  H
  H327     1.0000 0.01380  0.29660  0.59360  Biso   1.000  H
  H328     1.0000 0.98620  0.20340  0.09360  Biso   1.000  H
  H329     1.0000 0.51380  0.70340  0.09360  Biso   1.000  H
  H330     1.0000 0.01380  0.20340  0.09360  Biso   1.000  H
  H331     1.0000 0.48620  0.79660  0.59360  Biso   1.000  H
  H332     1.0000 0.48620  0.20340  0.40640  Biso   1.000  H
  H333     1.0000 0.51380  0.29660  0.90640  Biso   1.000  H
  H334     1.0000 0.98620  0.29660  0.59360  Biso   1.000  H
  H335     1.0000 0.98620  0.70340  0.40640  Biso   1.000  H
  H336     1.0000 0.01380  0.79660  0.90640  Biso   1.000  H
  H337     1.0000 0.49080  0.33210  0.99020  Biso   1.000  H
  H338     1.0000 0.99080  0.83210  0.99020  Biso   1.000  H
  H339     1.0000 0.50920  0.16790  0.49020  Biso   1.000  H
  H340     1.0000 0.50920  0.83210  0.50980  Biso   1.000  H
  H341     1.0000 0.49080  0.66790  0.00980  Biso   1.000  H
  H342     1.0000 0.00920  0.66790  0.49020  Biso   1.000  H
  H343     1.0000 0.00920  0.33210  0.50980  Biso   1.000  H
  H344     1.0000 0.99080  0.16790  0.00980  Biso   1.000  H
  H345     1.0000 0.50920  0.66790  0.00980  Biso   1.000  H
  H346     1.0000 0.00920  0.16790  0.00980  Biso   1.000  H
  H347     1.0000 0.49080  0.83210  0.50980  Biso   1.000  H
  H348     1.0000 0.49080  0.16790  0.49020  Biso   1.000  H
  H349     1.0000 0.50920  0.33210  0.99020  Biso   1.000  H
  H350     1.0000 0.99080  0.33210  0.50980  Biso   1.000  H
  H351     1.0000 0.99080  0.66790  0.49020  Biso   1.000  H
  H352     1.0000 0.00920  0.83210  0.99020  Biso   1.000  H
  H353     1.0000 0.53400  0.29750  0.95880  Biso   1.000  H
  H354     1.0000 0.03400  0.79750  0.95880  Biso   1.000  H
  H355     1.0000 0.46600  0.20250  0.45880  Biso   1.000  H
  H356     1.0000 0.46600  0.79750  0.54120  Biso   1.000  H
  H357     1.0000 0.53400  0.70250  0.04120  Biso   1.000  H
  H358     1.0000 0.96600  0.70250  0.45880  Biso   1.000  H
  H359     1.0000 0.96600  0.29750  0.54120  Biso   1.000  H
  H360     1.0000 0.03400  0.20250  0.04120  Biso   1.000  H
  H361     1.0000 0.46600  0.70250  0.04120  Biso   1.000  H
  H362     1.0000 0.96600  0.20250  0.04120  Biso   1.000  H
  H363     1.0000 0.53400  0.79750  0.54120  Biso   1.000  H
  H364     1.0000 0.53400  0.20250  0.45880  Biso   1.000  H
  H365     1.0000 0.46600  0.29750  0.95880  Biso   1.000  H
  H366     1.0000 0.03400  0.29750  0.54120  Biso   1.000  H
  H367     1.0000 0.03400  0.70250  0.45880  Biso   1.000  H
  H368     1.0000 0.96600  0.79750  0.95880  Biso   1.000  H
  O177     1.0000 0.50000  0.48000  0.03290  Biso   1.000  O
  O178     1.0000 0.00000  0.98000  0.03290  Biso   1.000  O
  O179     1.0000 0.50000  0.02000  0.53290  Biso   1.000  O
  O180     1.0000 0.50000  0.98000  0.46710  Biso   1.000  O
  O181     1.0000 0.50000  0.52000  0.96710  Biso   1.000  O
  O182     1.0000 0.00000  0.52000  0.53290  Biso   1.000  O
  O183     1.0000 0.00000  0.48000  0.46710  Biso   1.000  O
  O184     1.0000 0.00000  0.02000  0.96710  Biso   1.000  O
  O185     1.0000 0.45770  0.15820  0.13030  Biso   1.000  O
  O186     1.0000 0.95770  0.65820  0.13030  Biso   1.000  O
  O187     1.0000 0.54230  0.34180  0.63030  Biso   1.000  O
  O188     1.0000 0.54230  0.65820  0.36970  Biso   1.000  O
  O189     1.0000 0.45770  0.84180  0.86970  Biso   1.000  O
  O190     1.0000 0.04230  0.84180  0.63030  Biso   1.000  O
  O191     1.0000 0.04230  0.15820  0.36970  Biso   1.000  O
  O192     1.0000 0.95770  0.34180  0.86970  Biso   1.000  O
  O193     1.0000 0.54230  0.84180  0.86970  Biso   1.000  O
  O194     1.0000 0.04230  0.34180  0.86970  Biso   1.000  O
  O195     1.0000 0.45770  0.65820  0.36970  Biso   1.000  O
  O196     1.0000 0.45770  0.34180  0.63030  Biso   1.000  O
  O197     1.0000 0.54230  0.15820  0.13030  Biso   1.000  O
  O198     1.0000 0.95770  0.15820  0.36970  Biso   1.000  O
  O199     1.0000 0.95770  0.84180  0.63030  Biso   1.000  O
  O200     1.0000 0.04230  0.65820  0.13030  Biso   1.000  O
  O201     1.0000 0.50000  0.49680  0.12250  Biso   1.000  O
  O202     1.0000 0.00000  0.99680  0.12250  Biso   1.000  O
  O203     1.0000 0.50000  0.00320  0.62250  Biso   1.000  O
  O204     1.0000 0.50000  0.99680  0.37750  Biso   1.000  O
  O205     1.0000 0.50000  0.50320  0.87750  Biso   1.000  O
  O206     1.0000 0.00000  0.50320  0.62250  Biso   1.000  O
  O207     1.0000 0.00000  0.49680  0.37750  Biso   1.000  O
  O208     1.0000 0.00000  0.00320  0.87750  Biso   1.000  O
  C377     1.0000 0.42170  0.06530  0.19010  Biso   1.000  C
  C378     1.0000 0.92170  0.56530  0.19010  Biso   1.000  C
  C379     1.0000 0.57830  0.43470  0.69010  Biso   1.000  C
  C380     1.0000 0.57830  0.56530  0.30990  Biso   1.000  C
  C381     1.0000 0.42170  0.93470  0.80990  Biso   1.000  C
  C382     1.0000 0.07830  0.93470  0.69010  Biso   1.000  C
  C383     1.0000 0.07830  0.06530  0.30990  Biso   1.000  C
  C384     1.0000 0.92170  0.43470  0.80990  Biso   1.000  C
  C385     1.0000 0.57830  0.93470  0.80990  Biso   1.000  C
  C386     1.0000 0.07830  0.43470  0.80990  Biso   1.000  C
  C387     1.0000 0.42170  0.56530  0.30990  Biso   1.000  C
  C388     1.0000 0.42170  0.43470  0.69010  Biso   1.000  C
  C389     1.0000 0.57830  0.06530  0.19010  Biso   1.000  C
  C390     1.0000 0.92170  0.06530  0.30990  Biso   1.000  C
  C391     1.0000 0.92170  0.93470  0.69010  Biso   1.000  C
  C392     1.0000 0.07830  0.56530  0.19010  Biso   1.000  C
  C393     1.0000 0.42330  0.13860  0.13940  Biso   1.000  C
  C394     1.0000 0.92330  0.63860  0.13940  Biso   1.000  C
  C395     1.0000 0.57670  0.36140  0.63940  Biso   1.000  C
  C396     1.0000 0.57670  0.63860  0.36060  Biso   1.000  C
  C397     1.0000 0.42330  0.86140  0.86060  Biso   1.000  C
  C398     1.0000 0.07670  0.86140  0.63940  Biso   1.000  C
  C399     1.0000 0.07670  0.13860  0.36060  Biso   1.000  C
  C400     1.0000 0.92330  0.36140  0.86060  Biso   1.000  C
  C401     1.0000 0.57670  0.86140  0.86060  Biso   1.000  C
  C402     1.0000 0.07670  0.36140  0.86060  Biso   1.000  C
  C403     1.0000 0.42330  0.63860  0.36060  Biso   1.000  C
  C404     1.0000 0.42330  0.36140  0.63940  Biso   1.000  C
  C405     1.0000 0.57670  0.13860  0.13940  Biso   1.000  C
  C406     1.0000 0.92330  0.13860  0.36060  Biso   1.000  C
  C407     1.0000 0.92330  0.86140  0.63940  Biso   1.000  C
  C408     1.0000 0.07670  0.63860  0.13940  Biso   1.000  C
  H369     1.0000 0.47300  0.48400  0.02600  Biso   1.000  H
  H370     1.0000 0.97300  0.98400  0.02600  Biso   1.000  H
  H371     1.0000 0.52700  0.01600  0.52600  Biso   1.000  H
  H372     1.0000 0.52700  0.98400  0.47400  Biso   1.000  H
  H373     1.0000 0.47300  0.51600  0.97400  Biso   1.000  H
  H374     1.0000 0.02700  0.51600  0.52600  Biso   1.000  H
  H375     1.0000 0.02700  0.48400  0.47400  Biso   1.000  H
  H376     1.0000 0.97300  0.01600  0.97400  Biso   1.000  H
  H377     1.0000 0.52700  0.51600  0.97400  Biso   1.000  H
  H378     1.0000 0.02700  0.01600  0.97400  Biso   1.000  H
  H379     1.0000 0.47300  0.98400  0.47400  Biso   1.000  H
  H380     1.0000 0.47300  0.01600  0.52600  Biso   1.000  H
  H381     1.0000 0.52700  0.48400  0.02600  Biso   1.000  H
  H382     1.0000 0.97300  0.48400  0.47400  Biso   1.000  H
  H383     1.0000 0.97300  0.51600  0.52600  Biso   1.000  H
  H384     1.0000 0.02700  0.98400  0.02600  Biso   1.000  H
  H385     1.0000 0.50000  0.44900  0.01900  Biso   1.000  H
  H386     1.0000 0.00000  0.94900  0.01900  Biso   1.000  H
  H387     1.0000 0.50000  0.05100  0.51900  Biso   1.000  H
  H388     1.0000 0.50000  0.94900  0.48100  Biso   1.000  H
  H389     1.0000 0.50000  0.55100  0.98100  Biso   1.000  H
  H390     1.0000 0.00000  0.55100  0.51900  Biso   1.000  H
  H391     1.0000 0.00000  0.44900  0.48100  Biso   1.000  H
  H392     1.0000 0.00000  0.05100  0.98100  Biso   1.000  H
