data_image0
_cell_length_a       27.948
_cell_length_b       25.11
_cell_length_c       15.232
_cell_angle_alpha    90
_cell_angle_beta     90
_cell_angle_gamma    90

_symmetry_space_group_name_H-M    "P 1"
_symmetry_int_tables_number       1

loop_
  _symmetry_equiv_pos_as_xyz
  'x, y, z'

loop_
  _atom_site_label
  _atom_site_occupancy
  _atom_site_fract_x
  _atom_site_fract_y
  _atom_site_fract_z
  _atom_site_thermal_displace_type
  _atom_site_B_iso_or_equiv
  _atom_site_type_symbol
  Cu1      1.0000 0.21835  0.10033  0.31427  Biso   1.000  Cu
  Cu2      1.0000 0.71835  0.60033  0.31427  Biso   1.000  Cu
  Cu3      1.0000 0.78165  0.39967  0.81427  Biso   1.000  Cu
  Cu4      1.0000 0.21835  0.89967  0.68573  Biso   1.000  Cu
  Cu5      1.0000 0.78165  0.60033  0.18573  Biso   1.000  Cu
  Cu6      1.0000 0.28165  0.89967  0.81427  Biso   1.000  Cu
  Cu7      1.0000 0.71835  0.39967  0.68573  Biso   1.000  Cu
  Cu8      1.0000 0.28165  0.10033  0.18573  Biso   1.000  Cu
  Cu9      1.0000 0.78165  0.89967  0.68573  Biso   1.000  Cu
  Cu10     1.0000 0.28165  0.39967  0.68573  Biso   1.000  Cu
  Cu11     1.0000 0.21835  0.60033  0.18573  Biso   1.000  Cu
  Cu12     1.0000 0.78165  0.10033  0.31427  Biso   1.000  Cu
  Cu13     1.0000 0.21835  0.39967  0.81427  Biso   1.000  Cu
  Cu14     1.0000 0.71835  0.10033  0.18573  Biso   1.000  Cu
  Cu15     1.0000 0.28165  0.60033  0.31427  Biso   1.000  Cu
  Cu16     1.0000 0.71835  0.89967  0.81427  Biso   1.000  Cu
  Cu17     1.0000 0.00000  0.88431  0.32021  Biso   1.000  Cu
  Cu18     1.0000 0.50000  0.38431  0.32021  Biso   1.000  Cu
  Cu19     1.0000 0.00000  0.61569  0.82021  Biso   1.000  Cu
  Cu20     1.0000 0.00000  0.11569  0.67979  Biso   1.000  Cu
  Cu21     1.0000 0.00000  0.38431  0.17979  Biso   1.000  Cu
  Cu22     1.0000 0.50000  0.11569  0.82021  Biso   1.000  Cu
  Cu23     1.0000 0.50000  0.61569  0.67979  Biso   1.000  Cu
  Cu24     1.0000 0.50000  0.88431  0.17979  Biso   1.000  Cu
  Cu25     1.0000 0.00000  0.80896  0.19959  Biso   1.000  Cu
  Cu26     1.0000 0.50000  0.30896  0.19959  Biso   1.000  Cu
  Cu27     1.0000 0.00000  0.69104  0.69959  Biso   1.000  Cu
  Cu28     1.0000 0.00000  0.19104  0.80041  Biso   1.000  Cu
  Cu29     1.0000 0.00000  0.30896  0.30041  Biso   1.000  Cu
  Cu30     1.0000 0.50000  0.19104  0.69959  Biso   1.000  Cu
  Cu31     1.0000 0.50000  0.69104  0.80041  Biso   1.000  Cu
  Cu32     1.0000 0.50000  0.80896  0.30041  Biso   1.000  Cu
  O1       1.0000 0.18230  0.04780  0.24820  Biso   1.000  O
  O2       1.0000 0.68230  0.54780  0.24820  Biso   1.000  O
  O3       1.0000 0.81770  0.45220  0.74820  Biso   1.000  O
  O4       1.0000 0.18230  0.95220  0.75180  Biso   1.000  O
  O5       1.0000 0.81770  0.54780  0.25180  Biso   1.000  O
  O6       1.0000 0.31770  0.95220  0.74820  Biso   1.000  O
  O7       1.0000 0.68230  0.45220  0.75180  Biso   1.000  O
  O8       1.0000 0.31770  0.04780  0.25180  Biso   1.000  O
  O9       1.0000 0.81770  0.95220  0.75180  Biso   1.000  O
  O10      1.0000 0.31770  0.45220  0.75180  Biso   1.000  O
  O11      1.0000 0.18230  0.54780  0.25180  Biso   1.000  O
  O12      1.0000 0.81770  0.04780  0.24820  Biso   1.000  O
  O13      1.0000 0.18230  0.45220  0.74820  Biso   1.000  O
  O14      1.0000 0.68230  0.04780  0.25180  Biso   1.000  O
  O15      1.0000 0.31770  0.54780  0.24820  Biso   1.000  O
  O16      1.0000 0.68230  0.95220  0.74820  Biso   1.000  O
  O17      1.0000 0.23830  0.04210  0.14530  Biso   1.000  O
  O18      1.0000 0.73830  0.54210  0.14530  Biso   1.000  O
  O19      1.0000 0.76170  0.45790  0.64530  Biso   1.000  O
  O20      1.0000 0.23830  0.95790  0.85470  Biso   1.000  O
  O21      1.0000 0.76170  0.54210  0.35470  Biso   1.000  O
  O22      1.0000 0.26170  0.95790  0.64530  Biso   1.000  O
  O23      1.0000 0.73830  0.45790  0.85470  Biso   1.000  O
  O24      1.0000 0.26170  0.04210  0.35470  Biso   1.000  O
  O25      1.0000 0.76170  0.95790  0.85470  Biso   1.000  O
  O26      1.0000 0.26170  0.45790  0.85470  Biso   1.000  O
  O27      1.0000 0.23830  0.54210  0.35470  Biso   1.000  O
  O28      1.0000 0.76170  0.04210  0.14530  Biso   1.000  O
  O29      1.0000 0.23830  0.45790  0.64530  Biso   1.000  O
  O30      1.0000 0.73830  0.04210  0.35470  Biso   1.000  O
  O31      1.0000 0.26170  0.54210  0.14530  Biso   1.000  O
  O32      1.0000 0.73830  0.95790  0.64530  Biso   1.000  O
  O33      1.0000 0.05025  0.91700  0.24630  Biso   1.000  O
  O34      1.0000 0.55025  0.41700  0.24630  Biso   1.000  O
  O35      1.0000 0.94975  0.58300  0.74630  Biso   1.000  O
  O36      1.0000 0.05025  0.08300  0.75370  Biso   1.000  O
  O37      1.0000 0.94975  0.41700  0.25370  Biso   1.000  O
  O38      1.0000 0.44975  0.08300  0.74630  Biso   1.000  O
  O39      1.0000 0.55025  0.58300  0.75370  Biso   1.000  O
  O40      1.0000 0.44975  0.91700  0.25370  Biso   1.000  O
  O41      1.0000 0.94975  0.08300  0.75370  Biso   1.000  O
  O42      1.0000 0.44975  0.58300  0.75370  Biso   1.000  O
  O43      1.0000 0.05025  0.41700  0.25370  Biso   1.000  O
  O44      1.0000 0.94975  0.91700  0.24630  Biso   1.000  O
  O45      1.0000 0.05025  0.58300  0.74630  Biso   1.000  O
  O46      1.0000 0.55025  0.91700  0.25370  Biso   1.000  O
  O47      1.0000 0.44975  0.41700  0.24630  Biso   1.000  O
  O48      1.0000 0.55025  0.08300  0.74630  Biso   1.000  O
  O49      1.0000 0.00000  0.94650  0.41560  Biso   1.000  O
  O50      1.0000 0.50000  0.44650  0.41560  Biso   1.000  O
  O51      1.0000 0.00000  0.55350  0.91560  Biso   1.000  O
  O52      1.0000 0.00000  0.05350  0.58440  Biso   1.000  O
  O53      1.0000 0.00000  0.44650  0.08440  Biso   1.000  O
  O54      1.0000 0.50000  0.05350  0.91560  Biso   1.000  O
  O55      1.0000 0.50000  0.55350  0.58440  Biso   1.000  O
  O56      1.0000 0.50000  0.94650  0.08440  Biso   1.000  O
  O57      1.0000 0.04980  0.85250  0.14510  Biso   1.000  O
  O58      1.0000 0.54980  0.35250  0.14510  Biso   1.000  O
  O59      1.0000 0.95020  0.64750  0.64510  Biso   1.000  O
  O60      1.0000 0.04980  0.14750  0.85490  Biso   1.000  O
  O61      1.0000 0.95020  0.35250  0.35490  Biso   1.000  O
  O62      1.0000 0.45020  0.14750  0.64510  Biso   1.000  O
  O63      1.0000 0.54980  0.64750  0.85490  Biso   1.000  O
  O64      1.0000 0.45020  0.85250  0.35490  Biso   1.000  O
  O65      1.0000 0.95020  0.14750  0.85490  Biso   1.000  O
  O66      1.0000 0.45020  0.64750  0.85490  Biso   1.000  O
  O67      1.0000 0.04980  0.35250  0.35490  Biso   1.000  O
  O68      1.0000 0.95020  0.85250  0.14510  Biso   1.000  O
  O69      1.0000 0.04980  0.64750  0.64510  Biso   1.000  O
  O70      1.0000 0.54980  0.85250  0.35490  Biso   1.000  O
  O71      1.0000 0.45020  0.35250  0.14510  Biso   1.000  O
  O72      1.0000 0.54980  0.14750  0.64510  Biso   1.000  O
  O73      1.0000 0.18770  0.65790  0.25580  Biso   1.000  O
  O74      1.0000 0.68770  0.15790  0.25580  Biso   1.000  O
  O75      1.0000 0.81230  0.84210  0.75580  Biso   1.000  O
  O76      1.0000 0.18770  0.34210  0.74420  Biso   1.000  O
  O77      1.0000 0.81230  0.15790  0.24420  Biso   1.000  O
  O78      1.0000 0.31230  0.34210  0.75580  Biso   1.000  O
  O79      1.0000 0.68770  0.84210  0.74420  Biso   1.000  O
  O80      1.0000 0.31230  0.65790  0.24420  Biso   1.000  O
  O81      1.0000 0.81230  0.34210  0.74420  Biso   1.000  O
  O82      1.0000 0.31230  0.84210  0.74420  Biso   1.000  O
  O83      1.0000 0.18770  0.15790  0.24420  Biso   1.000  O
  O84      1.0000 0.81230  0.65790  0.25580  Biso   1.000  O
  O85      1.0000 0.18770  0.84210  0.75580  Biso   1.000  O
  O86      1.0000 0.68770  0.65790  0.24420  Biso   1.000  O
  O87      1.0000 0.31230  0.15790  0.25580  Biso   1.000  O
  O88      1.0000 0.68770  0.34210  0.75580  Biso   1.000  O
  O89      1.0000 0.23873  0.65300  0.36700  Biso   1.000  O
  O90      1.0000 0.73873  0.15300  0.36700  Biso   1.000  O
  O91      1.0000 0.76127  0.84700  0.86700  Biso   1.000  O
  O92      1.0000 0.23873  0.34700  0.63300  Biso   1.000  O
  O93      1.0000 0.76127  0.15300  0.13300  Biso   1.000  O
  O94      1.0000 0.26127  0.34700  0.86700  Biso   1.000  O
  O95      1.0000 0.73873  0.84700  0.63300  Biso   1.000  O
  O96      1.0000 0.26127  0.65300  0.13300  Biso   1.000  O
  O97      1.0000 0.76127  0.34700  0.63300  Biso   1.000  O
  O98      1.0000 0.26127  0.84700  0.63300  Biso   1.000  O
  O99      1.0000 0.23873  0.15300  0.13300  Biso   1.000  O
  O100     1.0000 0.76127  0.65300  0.36700  Biso   1.000  O
  O101     1.0000 0.23873  0.84700  0.86700  Biso   1.000  O
  O102     1.0000 0.73873  0.65300  0.13300  Biso   1.000  O
  O103     1.0000 0.26127  0.15300  0.36700  Biso   1.000  O
  O104     1.0000 0.73873  0.34700  0.86700  Biso   1.000  O
  O105     1.0000 0.04960  0.77710  0.27200  Biso   1.000  O
  O106     1.0000 0.54960  0.27710  0.27200  Biso   1.000  O
  O107     1.0000 0.95040  0.72290  0.77200  Biso   1.000  O
  O108     1.0000 0.04960  0.22290  0.72800  Biso   1.000  O
  O109     1.0000 0.95040  0.27710  0.22800  Biso   1.000  O
  O110     1.0000 0.45040  0.22290  0.77200  Biso   1.000  O
  O111     1.0000 0.54960  0.72290  0.72800  Biso   1.000  O
  O112     1.0000 0.45040  0.77710  0.22800  Biso   1.000  O
  O113     1.0000 0.95040  0.22290  0.72800  Biso   1.000  O
  O114     1.0000 0.45040  0.72290  0.72800  Biso   1.000  O
  O115     1.0000 0.04960  0.27710  0.22800  Biso   1.000  O
  O116     1.0000 0.95040  0.77710  0.27200  Biso   1.000  O
  O117     1.0000 0.04960  0.72290  0.77200  Biso   1.000  O
  O118     1.0000 0.54960  0.77710  0.22800  Biso   1.000  O
  O119     1.0000 0.45040  0.27710  0.27200  Biso   1.000  O
  O120     1.0000 0.54960  0.22290  0.77200  Biso   1.000  O
  O121     1.0000 0.04950  0.84020  0.37540  Biso   1.000  O
  O122     1.0000 0.54950  0.34020  0.37540  Biso   1.000  O
  O123     1.0000 0.95050  0.65980  0.87540  Biso   1.000  O
  O124     1.0000 0.04950  0.15980  0.62460  Biso   1.000  O
  O125     1.0000 0.95050  0.34020  0.12460  Biso   1.000  O
  O126     1.0000 0.45050  0.15980  0.87540  Biso   1.000  O
  O127     1.0000 0.54950  0.65980  0.62460  Biso   1.000  O
  O128     1.0000 0.45050  0.84020  0.12460  Biso   1.000  O
  O129     1.0000 0.95050  0.15980  0.62460  Biso   1.000  O
  O130     1.0000 0.45050  0.65980  0.62460  Biso   1.000  O
  O131     1.0000 0.04950  0.34020  0.12460  Biso   1.000  O
  O132     1.0000 0.95050  0.84020  0.37540  Biso   1.000  O
  O133     1.0000 0.04950  0.65980  0.87540  Biso   1.000  O
  O134     1.0000 0.54950  0.84020  0.12460  Biso   1.000  O
  O135     1.0000 0.45050  0.34020  0.37540  Biso   1.000  O
  O136     1.0000 0.54950  0.15980  0.87540  Biso   1.000  O
  O137     1.0000 0.17330  0.09480  0.42590  Biso   1.000  O
  O138     1.0000 0.67330  0.59480  0.42590  Biso   1.000  O
  O139     1.0000 0.82670  0.40520  0.92590  Biso   1.000  O
  O140     1.0000 0.17330  0.90520  0.57410  Biso   1.000  O
  O141     1.0000 0.82670  0.59480  0.07410  Biso   1.000  O
  O142     1.0000 0.32670  0.90520  0.92590  Biso   1.000  O
  O143     1.0000 0.67330  0.40520  0.57410  Biso   1.000  O
  O144     1.0000 0.32670  0.09480  0.07410  Biso   1.000  O
  O145     1.0000 0.82670  0.90520  0.57410  Biso   1.000  O
  O146     1.0000 0.32670  0.40520  0.57410  Biso   1.000  O
  O147     1.0000 0.17330  0.59480  0.07410  Biso   1.000  O
  O148     1.0000 0.82670  0.09480  0.42590  Biso   1.000  O
  O149     1.0000 0.17330  0.40520  0.92590  Biso   1.000  O
  O150     1.0000 0.67330  0.09480  0.07410  Biso   1.000  O
  O151     1.0000 0.32670  0.59480  0.42590  Biso   1.000  O
  O152     1.0000 0.67330  0.90520  0.92590  Biso   1.000  O
  N1       1.0000 0.17380  0.09260  0.57790  Biso   1.000  N
  N2       1.0000 0.67380  0.59260  0.57790  Biso   1.000  N
  N3       1.0000 0.82620  0.40740  0.07790  Biso   1.000  N
  N4       1.0000 0.17380  0.90740  0.42210  Biso   1.000  N
  N5       1.0000 0.82620  0.59260  0.92210  Biso   1.000  N
  N6       1.0000 0.32620  0.90740  0.07790  Biso   1.000  N
  N7       1.0000 0.67380  0.40740  0.42210  Biso   1.000  N
  N8       1.0000 0.32620  0.09260  0.92210  Biso   1.000  N
  N9       1.0000 0.82620  0.90740  0.42210  Biso   1.000  N
  N10      1.0000 0.32620  0.40740  0.42210  Biso   1.000  N
  N11      1.0000 0.17380  0.59260  0.92210  Biso   1.000  N
  N12      1.0000 0.82620  0.09260  0.57790  Biso   1.000  N
  N13      1.0000 0.17380  0.40740  0.07790  Biso   1.000  N
  N14      1.0000 0.67380  0.09260  0.92210  Biso   1.000  N
  N15      1.0000 0.32620  0.59260  0.57790  Biso   1.000  N
  N16      1.0000 0.67380  0.90740  0.07790  Biso   1.000  N
  C1       1.0000 0.20030  0.02680  0.18150  Biso   1.000  C
  C2       1.0000 0.70030  0.52680  0.18150  Biso   1.000  C
  C3       1.0000 0.79970  0.47320  0.68150  Biso   1.000  C
  C4       1.0000 0.20030  0.97320  0.81850  Biso   1.000  C
  C5       1.0000 0.79970  0.52680  0.31850  Biso   1.000  C
  C6       1.0000 0.29970  0.97320  0.68150  Biso   1.000  C
  C7       1.0000 0.70030  0.47320  0.81850  Biso   1.000  C
  C8       1.0000 0.29970  0.02680  0.31850  Biso   1.000  C
  C9       1.0000 0.79970  0.97320  0.81850  Biso   1.000  C
  C10      1.0000 0.29970  0.47320  0.81850  Biso   1.000  C
  C11      1.0000 0.20030  0.52680  0.31850  Biso   1.000  C
  C12      1.0000 0.79970  0.02680  0.18150  Biso   1.000  C
  C13      1.0000 0.20030  0.47320  0.68150  Biso   1.000  C
  C14      1.0000 0.70030  0.02680  0.31850  Biso   1.000  C
  C15      1.0000 0.29970  0.52680  0.18150  Biso   1.000  C
  C16      1.0000 0.70030  0.97320  0.68150  Biso   1.000  C
  C17      1.0000 0.17560  0.98040  0.14240  Biso   1.000  C
  C18      1.0000 0.67560  0.48040  0.14240  Biso   1.000  C
  C19      1.0000 0.82440  0.51960  0.64240  Biso   1.000  C
  C20      1.0000 0.17560  0.01960  0.85760  Biso   1.000  C
  C21      1.0000 0.82440  0.48040  0.35760  Biso   1.000  C
  C22      1.0000 0.32440  0.01960  0.64240  Biso   1.000  C
  C23      1.0000 0.67560  0.51960  0.85760  Biso   1.000  C
  C24      1.0000 0.32440  0.98040  0.35760  Biso   1.000  C
  C25      1.0000 0.82440  0.01960  0.85760  Biso   1.000  C
  C26      1.0000 0.32440  0.51960  0.85760  Biso   1.000  C
  C27      1.0000 0.17560  0.48040  0.35760  Biso   1.000  C
  C28      1.0000 0.82440  0.98040  0.14240  Biso   1.000  C
  C29      1.0000 0.17560  0.51960  0.64240  Biso   1.000  C
  C30      1.0000 0.67560  0.98040  0.35760  Biso   1.000  C
  C31      1.0000 0.32440  0.48040  0.14240  Biso   1.000  C
  C32      1.0000 0.67560  0.01960  0.64240  Biso   1.000  C
  C33      1.0000 0.19590  0.95120  0.07210  Biso   1.000  C
  C34      1.0000 0.69590  0.45120  0.07210  Biso   1.000  C
  C35      1.0000 0.80410  0.54880  0.57210  Biso   1.000  C
  C36      1.0000 0.19590  0.04880  0.92790  Biso   1.000  C
  C37      1.0000 0.80410  0.45120  0.42790  Biso   1.000  C
  C38      1.0000 0.30410  0.04880  0.57210  Biso   1.000  C
  C39      1.0000 0.69590  0.54880  0.92790  Biso   1.000  C
  C40      1.0000 0.30410  0.95120  0.42790  Biso   1.000  C
  C41      1.0000 0.80410  0.04880  0.92790  Biso   1.000  C
  C42      1.0000 0.30410  0.54880  0.92790  Biso   1.000  C
  C43      1.0000 0.19590  0.45120  0.42790  Biso   1.000  C
  C44      1.0000 0.80410  0.95120  0.07210  Biso   1.000  C
  C45      1.0000 0.19590  0.54880  0.57210  Biso   1.000  C
  C46      1.0000 0.69590  0.95120  0.42790  Biso   1.000  C
  C47      1.0000 0.30410  0.45120  0.07210  Biso   1.000  C
  C48      1.0000 0.69590  0.04880  0.57210  Biso   1.000  C
  H1       1.0000 0.22520  0.96240  0.04970  Biso   1.000  H
  H2       1.0000 0.72520  0.46240  0.04970  Biso   1.000  H
  H3       1.0000 0.77480  0.53760  0.54970  Biso   1.000  H
  H4       1.0000 0.22520  0.03760  0.95030  Biso   1.000  H
  H5       1.0000 0.77480  0.46240  0.45030  Biso   1.000  H
  H6       1.0000 0.27480  0.03760  0.54970  Biso   1.000  H
  H7       1.0000 0.72520  0.53760  0.95030  Biso   1.000  H
  H8       1.0000 0.27480  0.96240  0.45030  Biso   1.000  H
  H9       1.0000 0.77480  0.03760  0.95030  Biso   1.000  H
  H10      1.0000 0.27480  0.53760  0.95030  Biso   1.000  H
  H11      1.0000 0.22520  0.46240  0.45030  Biso   1.000  H
  H12      1.0000 0.77480  0.96240  0.04970  Biso   1.000  H
  H13      1.0000 0.22520  0.53760  0.54970  Biso   1.000  H
  H14      1.0000 0.72520  0.96240  0.45030  Biso   1.000  H
  H15      1.0000 0.27480  0.46240  0.04970  Biso   1.000  H
  H16      1.0000 0.72520  0.03760  0.54970  Biso   1.000  H
  C49      1.0000 0.17510  0.90830  0.03620  Biso   1.000  C
  C50      1.0000 0.67510  0.40830  0.03620  Biso   1.000  C
  C51      1.0000 0.82490  0.59170  0.53620  Biso   1.000  C
  C52      1.0000 0.17510  0.09170  0.96380  Biso   1.000  C
  C53      1.0000 0.82490  0.40830  0.46380  Biso   1.000  C
  C54      1.0000 0.32490  0.09170  0.53620  Biso   1.000  C
  C55      1.0000 0.67510  0.59170  0.96380  Biso   1.000  C
  C56      1.0000 0.32490  0.90830  0.46380  Biso   1.000  C
  C57      1.0000 0.82490  0.09170  0.96380  Biso   1.000  C
  C58      1.0000 0.32490  0.59170  0.96380  Biso   1.000  C
  C59      1.0000 0.17510  0.40830  0.46380  Biso   1.000  C
  C60      1.0000 0.82490  0.90830  0.03620  Biso   1.000  C
  C61      1.0000 0.17510  0.59170  0.53620  Biso   1.000  C
  C62      1.0000 0.67510  0.90830  0.46380  Biso   1.000  C
  C63      1.0000 0.32490  0.40830  0.03620  Biso   1.000  C
  C64      1.0000 0.67510  0.09170  0.53620  Biso   1.000  C
  H17      1.0000 0.18950  0.89090  0.98920  Biso   1.000  H
  H18      1.0000 0.68950  0.39090  0.98920  Biso   1.000  H
  H19      1.0000 0.81050  0.60910  0.48920  Biso   1.000  H
  H20      1.0000 0.18950  0.10910  0.01080  Biso   1.000  H
  H21      1.0000 0.81050  0.39090  0.51080  Biso   1.000  H
  H22      1.0000 0.31050  0.10910  0.48920  Biso   1.000  H
  H23      1.0000 0.68950  0.60910  0.01080  Biso   1.000  H
  H24      1.0000 0.31050  0.89090  0.51080  Biso   1.000  H
  H25      1.0000 0.81050  0.10910  0.01080  Biso   1.000  H
  H26      1.0000 0.31050  0.60910  0.01080  Biso   1.000  H
  H27      1.0000 0.18950  0.39090  0.51080  Biso   1.000  H
  H28      1.0000 0.81050  0.89090  0.98920  Biso   1.000  H
  H29      1.0000 0.18950  0.60910  0.48920  Biso   1.000  H
  H30      1.0000 0.68950  0.89090  0.51080  Biso   1.000  H
  H31      1.0000 0.31050  0.39090  0.98920  Biso   1.000  H
  H32      1.0000 0.68950  0.10910  0.48920  Biso   1.000  H
  C65      1.0000 0.13260  0.89050  0.06940  Biso   1.000  C
  C66      1.0000 0.63260  0.39050  0.06940  Biso   1.000  C
  C67      1.0000 0.86740  0.60950  0.56940  Biso   1.000  C
  C68      1.0000 0.13260  0.10950  0.93060  Biso   1.000  C
  C69      1.0000 0.86740  0.39050  0.43060  Biso   1.000  C
  C70      1.0000 0.36740  0.10950  0.56940  Biso   1.000  C
  C71      1.0000 0.63260  0.60950  0.93060  Biso   1.000  C
  C72      1.0000 0.36740  0.89050  0.43060  Biso   1.000  C
  C73      1.0000 0.86740  0.10950  0.93060  Biso   1.000  C
  C74      1.0000 0.36740  0.60950  0.93060  Biso   1.000  C
  C75      1.0000 0.13260  0.39050  0.43060  Biso   1.000  C
  C76      1.0000 0.86740  0.89050  0.06940  Biso   1.000  C
  C77      1.0000 0.13260  0.60950  0.56940  Biso   1.000  C
  C78      1.0000 0.63260  0.89050  0.43060  Biso   1.000  C
  C79      1.0000 0.36740  0.39050  0.06940  Biso   1.000  C
  C80      1.0000 0.63260  0.10950  0.56940  Biso   1.000  C
  H33      1.0000 0.11810  0.86050  0.04520  Biso   1.000  H
  H34      1.0000 0.61810  0.36050  0.04520  Biso   1.000  H
  H35      1.0000 0.88190  0.63950  0.54520  Biso   1.000  H
  H36      1.0000 0.11810  0.13950  0.95480  Biso   1.000  H
  H37      1.0000 0.88190  0.36050  0.45480  Biso   1.000  H
  H38      1.0000 0.38190  0.13950  0.54520  Biso   1.000  H
  H39      1.0000 0.61810  0.63950  0.95480  Biso   1.000  H
  H40      1.0000 0.38190  0.86050  0.45480  Biso   1.000  H
  H41      1.0000 0.88190  0.13950  0.95480  Biso   1.000  H
  H42      1.0000 0.38190  0.63950  0.95480  Biso   1.000  H
  H43      1.0000 0.11810  0.36050  0.45480  Biso   1.000  H
  H44      1.0000 0.88190  0.86050  0.04520  Biso   1.000  H
  H45      1.0000 0.11810  0.63950  0.54520  Biso   1.000  H
  H46      1.0000 0.61810  0.86050  0.45480  Biso   1.000  H
  H47      1.0000 0.38190  0.36050  0.04520  Biso   1.000  H
  H48      1.0000 0.61810  0.13950  0.54520  Biso   1.000  H
  C81      1.0000 0.11070  0.91720  0.14010  Biso   1.000  C
  C82      1.0000 0.61070  0.41720  0.14010  Biso   1.000  C
  C83      1.0000 0.88930  0.58280  0.64010  Biso   1.000  C
  C84      1.0000 0.11070  0.08280  0.85990  Biso   1.000  C
  C85      1.0000 0.88930  0.41720  0.35990  Biso   1.000  C
  C86      1.0000 0.38930  0.08280  0.64010  Biso   1.000  C
  C87      1.0000 0.61070  0.58280  0.85990  Biso   1.000  C
  C88      1.0000 0.38930  0.91720  0.35990  Biso   1.000  C
  C89      1.0000 0.88930  0.08280  0.85990  Biso   1.000  C
  C90      1.0000 0.38930  0.58280  0.85990  Biso   1.000  C
  C91      1.0000 0.11070  0.41720  0.35990  Biso   1.000  C
  C92      1.0000 0.88930  0.91720  0.14010  Biso   1.000  C
  C93      1.0000 0.11070  0.58280  0.64010  Biso   1.000  C
  C94      1.0000 0.61070  0.91720  0.35990  Biso   1.000  C
  C95      1.0000 0.38930  0.41720  0.14010  Biso   1.000  C
  C96      1.0000 0.61070  0.08280  0.64010  Biso   1.000  C
  C97      1.0000 0.13240  0.96160  0.17310  Biso   1.000  C
  C98      1.0000 0.63240  0.46160  0.17310  Biso   1.000  C
  C99      1.0000 0.86760  0.53840  0.67310  Biso   1.000  C
  C100     1.0000 0.13240  0.03840  0.82690  Biso   1.000  C
  C101     1.0000 0.86760  0.46160  0.32690  Biso   1.000  C
  C102     1.0000 0.36760  0.03840  0.67310  Biso   1.000  C
  C103     1.0000 0.63240  0.53840  0.82690  Biso   1.000  C
  C104     1.0000 0.36760  0.96160  0.32690  Biso   1.000  C
  C105     1.0000 0.86760  0.03840  0.82690  Biso   1.000  C
  C106     1.0000 0.36760  0.53840  0.82690  Biso   1.000  C
  C107     1.0000 0.13240  0.46160  0.32690  Biso   1.000  C
  C108     1.0000 0.86760  0.96160  0.17310  Biso   1.000  C
  C109     1.0000 0.13240  0.53840  0.67310  Biso   1.000  C
  C110     1.0000 0.63240  0.96160  0.32690  Biso   1.000  C
  C111     1.0000 0.36760  0.46160  0.17310  Biso   1.000  C
  C112     1.0000 0.63240  0.03840  0.67310  Biso   1.000  C
  H49      1.0000 0.11730  0.98010  0.21830  Biso   1.000  H
  H50      1.0000 0.61730  0.48010  0.21830  Biso   1.000  H
  H51      1.0000 0.88270  0.51990  0.71830  Biso   1.000  H
  H52      1.0000 0.11730  0.01990  0.78170  Biso   1.000  H
  H53      1.0000 0.88270  0.48010  0.28170  Biso   1.000  H
  H54      1.0000 0.38270  0.01990  0.71830  Biso   1.000  H
  H55      1.0000 0.61730  0.51990  0.78170  Biso   1.000  H
  H56      1.0000 0.38270  0.98010  0.28170  Biso   1.000  H
  H57      1.0000 0.88270  0.01990  0.78170  Biso   1.000  H
  H58      1.0000 0.38270  0.51990  0.78170  Biso   1.000  H
  H59      1.0000 0.11730  0.48010  0.28170  Biso   1.000  H
  H60      1.0000 0.88270  0.98010  0.21830  Biso   1.000  H
  H61      1.0000 0.11730  0.51990  0.71830  Biso   1.000  H
  H62      1.0000 0.61730  0.98010  0.28170  Biso   1.000  H
  H63      1.0000 0.38270  0.48010  0.21830  Biso   1.000  H
  H64      1.0000 0.61730  0.01990  0.71830  Biso   1.000  H
  C113     1.0000 0.06690  0.89500  0.17920  Biso   1.000  C
  C114     1.0000 0.56690  0.39500  0.17920  Biso   1.000  C
  C115     1.0000 0.93310  0.60500  0.67920  Biso   1.000  C
  C116     1.0000 0.06690  0.10500  0.82080  Biso   1.000  C
  C117     1.0000 0.93310  0.39500  0.32080  Biso   1.000  C
  C118     1.0000 0.43310  0.10500  0.67920  Biso   1.000  C
  C119     1.0000 0.56690  0.60500  0.82080  Biso   1.000  C
  C120     1.0000 0.43310  0.89500  0.32080  Biso   1.000  C
  C121     1.0000 0.93310  0.10500  0.82080  Biso   1.000  C
  C122     1.0000 0.43310  0.60500  0.82080  Biso   1.000  C
  C123     1.0000 0.06690  0.39500  0.32080  Biso   1.000  C
  C124     1.0000 0.93310  0.89500  0.17920  Biso   1.000  C
  C125     1.0000 0.06690  0.60500  0.67920  Biso   1.000  C
  C126     1.0000 0.56690  0.89500  0.32080  Biso   1.000  C
  C127     1.0000 0.43310  0.39500  0.17920  Biso   1.000  C
  C128     1.0000 0.56690  0.10500  0.67920  Biso   1.000  C
  C129     1.0000 0.06540  0.79720  0.34140  Biso   1.000  C
  C130     1.0000 0.56540  0.29720  0.34140  Biso   1.000  C
  C131     1.0000 0.93460  0.70280  0.84140  Biso   1.000  C
  C132     1.0000 0.06540  0.20280  0.65860  Biso   1.000  C
  C133     1.0000 0.93460  0.29720  0.15860  Biso   1.000  C
  C134     1.0000 0.43460  0.20280  0.84140  Biso   1.000  C
  C135     1.0000 0.56540  0.70280  0.65860  Biso   1.000  C
  C136     1.0000 0.43460  0.79720  0.15860  Biso   1.000  C
  C137     1.0000 0.93460  0.20280  0.65860  Biso   1.000  C
  C138     1.0000 0.43460  0.70280  0.65860  Biso   1.000  C
  C139     1.0000 0.06540  0.29720  0.15860  Biso   1.000  C
  C140     1.0000 0.93460  0.79720  0.34140  Biso   1.000  C
  C141     1.0000 0.06540  0.70280  0.84140  Biso   1.000  C
  C142     1.0000 0.56540  0.79720  0.15860  Biso   1.000  C
  C143     1.0000 0.43460  0.29720  0.34140  Biso   1.000  C
  C144     1.0000 0.56540  0.20280  0.84140  Biso   1.000  C
  C145     1.0000 0.10720  0.77200  0.38700  Biso   1.000  C
  C146     1.0000 0.60720  0.27200  0.38700  Biso   1.000  C
  C147     1.0000 0.89280  0.72800  0.88700  Biso   1.000  C
  C148     1.0000 0.10720  0.22800  0.61300  Biso   1.000  C
  C149     1.0000 0.89280  0.27200  0.11300  Biso   1.000  C
  C150     1.0000 0.39280  0.22800  0.88700  Biso   1.000  C
  C151     1.0000 0.60720  0.72800  0.61300  Biso   1.000  C
  C152     1.0000 0.39280  0.77200  0.11300  Biso   1.000  C
  C153     1.0000 0.89280  0.22800  0.61300  Biso   1.000  C
  C154     1.0000 0.39280  0.72800  0.61300  Biso   1.000  C
  C155     1.0000 0.10720  0.27200  0.11300  Biso   1.000  C
  C156     1.0000 0.89280  0.77200  0.38700  Biso   1.000  C
  C157     1.0000 0.10720  0.72800  0.88700  Biso   1.000  C
  C158     1.0000 0.60720  0.77200  0.11300  Biso   1.000  C
  C159     1.0000 0.39280  0.27200  0.38700  Biso   1.000  C
  C160     1.0000 0.60720  0.22800  0.88700  Biso   1.000  C
  C161     1.0000 0.12080  0.78590  0.46980  Biso   1.000  C
  C162     1.0000 0.62080  0.28590  0.46980  Biso   1.000  C
  C163     1.0000 0.87920  0.71410  0.96980  Biso   1.000  C
  C164     1.0000 0.12080  0.21410  0.53020  Biso   1.000  C
  C165     1.0000 0.87920  0.28590  0.03020  Biso   1.000  C
  C166     1.0000 0.37920  0.21410  0.96980  Biso   1.000  C
  C167     1.0000 0.62080  0.71410  0.53020  Biso   1.000  C
  C168     1.0000 0.37920  0.78590  0.03020  Biso   1.000  C
  C169     1.0000 0.87920  0.21410  0.53020  Biso   1.000  C
  C170     1.0000 0.37920  0.71410  0.53020  Biso   1.000  C
  C171     1.0000 0.12080  0.28590  0.03020  Biso   1.000  C
  C172     1.0000 0.87920  0.78590  0.46980  Biso   1.000  C
  C173     1.0000 0.12080  0.71410  0.96980  Biso   1.000  C
  C174     1.0000 0.62080  0.78590  0.03020  Biso   1.000  C
  C175     1.0000 0.37920  0.28590  0.46980  Biso   1.000  C
  C176     1.0000 0.62080  0.21410  0.96980  Biso   1.000  C
  H65      1.0000 0.10290  0.81070  0.50120  Biso   1.000  H
  H66      1.0000 0.60290  0.31070  0.50120  Biso   1.000  H
  H67      1.0000 0.89710  0.68930  0.00120  Biso   1.000  H
  H68      1.0000 0.10290  0.18930  0.49880  Biso   1.000  H
  H69      1.0000 0.89710  0.31070  0.99880  Biso   1.000  H
  H70      1.0000 0.39710  0.18930  0.00120  Biso   1.000  H
  H71      1.0000 0.60290  0.68930  0.49880  Biso   1.000  H
  H72      1.0000 0.39710  0.81070  0.99880  Biso   1.000  H
  H73      1.0000 0.89710  0.18930  0.49880  Biso   1.000  H
  H74      1.0000 0.39710  0.68930  0.49880  Biso   1.000  H
  H75      1.0000 0.10290  0.31070  0.99880  Biso   1.000  H
  H76      1.0000 0.89710  0.81070  0.50120  Biso   1.000  H
  H77      1.0000 0.10290  0.68930  0.00120  Biso   1.000  H
  H78      1.0000 0.60290  0.81070  0.99880  Biso   1.000  H
  H79      1.0000 0.39710  0.31070  0.50120  Biso   1.000  H
  H80      1.0000 0.60290  0.18930  0.00120  Biso   1.000  H
  C177     1.0000 0.16040  0.76360  0.50680  Biso   1.000  C
  C178     1.0000 0.66040  0.26360  0.50680  Biso   1.000  C
  C179     1.0000 0.83960  0.73640  0.00680  Biso   1.000  C
  C180     1.0000 0.16040  0.23640  0.49320  Biso   1.000  C
  C181     1.0000 0.83960  0.26360  0.99320  Biso   1.000  C
  C182     1.0000 0.33960  0.23640  0.00680  Biso   1.000  C
  C183     1.0000 0.66040  0.73640  0.49320  Biso   1.000  C
  C184     1.0000 0.33960  0.76360  0.99320  Biso   1.000  C
  C185     1.0000 0.83960  0.23640  0.49320  Biso   1.000  C
  C186     1.0000 0.33960  0.73640  0.49320  Biso   1.000  C
  C187     1.0000 0.16040  0.26360  0.99320  Biso   1.000  C
  C188     1.0000 0.83960  0.76360  0.50680  Biso   1.000  C
  C189     1.0000 0.16040  0.73640  0.00680  Biso   1.000  C
  C190     1.0000 0.66040  0.76360  0.99320  Biso   1.000  C
  C191     1.0000 0.33960  0.26360  0.50680  Biso   1.000  C
  C192     1.0000 0.66040  0.23640  0.00680  Biso   1.000  C
  H81      1.0000 0.16930  0.77350  0.56320  Biso   1.000  H
  H82      1.0000 0.66930  0.27350  0.56320  Biso   1.000  H
  H83      1.0000 0.83070  0.72650  0.06320  Biso   1.000  H
  H84      1.0000 0.16930  0.22650  0.43680  Biso   1.000  H
  H85      1.0000 0.83070  0.27350  0.93680  Biso   1.000  H
  H86      1.0000 0.33070  0.22650  0.06320  Biso   1.000  H
  H87      1.0000 0.66930  0.72650  0.43680  Biso   1.000  H
  H88      1.0000 0.33070  0.77350  0.93680  Biso   1.000  H
  H89      1.0000 0.83070  0.22650  0.43680  Biso   1.000  H
  H90      1.0000 0.33070  0.72650  0.43680  Biso   1.000  H
  H91      1.0000 0.16930  0.27350  0.93680  Biso   1.000  H
  H92      1.0000 0.83070  0.77350  0.56320  Biso   1.000  H
  H93      1.0000 0.16930  0.72650  0.06320  Biso   1.000  H
  H94      1.0000 0.66930  0.77350  0.93680  Biso   1.000  H
  H95      1.0000 0.33070  0.27350  0.56320  Biso   1.000  H
  H96      1.0000 0.66930  0.22650  0.06320  Biso   1.000  H
  C193     1.0000 0.18690  0.72710  0.46300  Biso   1.000  C
  C194     1.0000 0.68690  0.22710  0.46300  Biso   1.000  C
  C195     1.0000 0.81310  0.77290  0.96300  Biso   1.000  C
  C196     1.0000 0.18690  0.27290  0.53700  Biso   1.000  C
  C197     1.0000 0.81310  0.22710  0.03700  Biso   1.000  C
  C198     1.0000 0.31310  0.27290  0.96300  Biso   1.000  C
  C199     1.0000 0.68690  0.77290  0.53700  Biso   1.000  C
  C200     1.0000 0.31310  0.72710  0.03700  Biso   1.000  C
  C201     1.0000 0.81310  0.27290  0.53700  Biso   1.000  C
  C202     1.0000 0.31310  0.77290  0.53700  Biso   1.000  C
  C203     1.0000 0.18690  0.22710  0.03700  Biso   1.000  C
  C204     1.0000 0.81310  0.72710  0.46300  Biso   1.000  C
  C205     1.0000 0.18690  0.77290  0.96300  Biso   1.000  C
  C206     1.0000 0.68690  0.72710  0.03700  Biso   1.000  C
  C207     1.0000 0.31310  0.22710  0.46300  Biso   1.000  C
  C208     1.0000 0.68690  0.27290  0.96300  Biso   1.000  C
  H97      1.0000 0.21370  0.71220  0.48960  Biso   1.000  H
  H98      1.0000 0.71370  0.21220  0.48960  Biso   1.000  H
  H99      1.0000 0.78630  0.78780  0.98960  Biso   1.000  H
  H100     1.0000 0.21370  0.28780  0.51040  Biso   1.000  H
  H101     1.0000 0.78630  0.21220  0.01040  Biso   1.000  H
  H102     1.0000 0.28630  0.28780  0.98960  Biso   1.000  H
  H103     1.0000 0.71370  0.78780  0.51040  Biso   1.000  H
  H104     1.0000 0.28630  0.71220  0.01040  Biso   1.000  H
  H105     1.0000 0.78630  0.28780  0.51040  Biso   1.000  H
  H106     1.0000 0.28630  0.78780  0.51040  Biso   1.000  H
  H107     1.0000 0.21370  0.21220  0.01040  Biso   1.000  H
  H108     1.0000 0.78630  0.71220  0.48960  Biso   1.000  H
  H109     1.0000 0.21370  0.78780  0.98960  Biso   1.000  H
  H110     1.0000 0.71370  0.71220  0.01040  Biso   1.000  H
  H111     1.0000 0.28630  0.21220  0.48960  Biso   1.000  H
  H112     1.0000 0.71370  0.28780  0.98960  Biso   1.000  H
  C209     1.0000 0.17430  0.71180  0.37810  Biso   1.000  C
  C210     1.0000 0.67430  0.21180  0.37810  Biso   1.000  C
  C211     1.0000 0.82570  0.78820  0.87810  Biso   1.000  C
  C212     1.0000 0.17430  0.28820  0.62190  Biso   1.000  C
  C213     1.0000 0.82570  0.21180  0.12190  Biso   1.000  C
  C214     1.0000 0.32570  0.28820  0.87810  Biso   1.000  C
  C215     1.0000 0.67430  0.78820  0.62190  Biso   1.000  C
  C216     1.0000 0.32570  0.71180  0.12190  Biso   1.000  C
  C217     1.0000 0.82570  0.28820  0.62190  Biso   1.000  C
  C218     1.0000 0.32570  0.78820  0.62190  Biso   1.000  C
  C219     1.0000 0.17430  0.21180  0.12190  Biso   1.000  C
  C220     1.0000 0.82570  0.71180  0.37810  Biso   1.000  C
  C221     1.0000 0.17430  0.78820  0.87810  Biso   1.000  C
  C222     1.0000 0.67430  0.71180  0.12190  Biso   1.000  C
  C223     1.0000 0.32570  0.21180  0.37810  Biso   1.000  C
  C224     1.0000 0.67430  0.28820  0.87810  Biso   1.000  C
  C225     1.0000 0.13370  0.73420  0.34180  Biso   1.000  C
  C226     1.0000 0.63370  0.23420  0.34180  Biso   1.000  C
  C227     1.0000 0.86630  0.76580  0.84180  Biso   1.000  C
  C228     1.0000 0.13370  0.26580  0.65820  Biso   1.000  C
  C229     1.0000 0.86630  0.23420  0.15820  Biso   1.000  C
  C230     1.0000 0.36630  0.26580  0.84180  Biso   1.000  C
  C231     1.0000 0.63370  0.76580  0.65820  Biso   1.000  C
  C232     1.0000 0.36630  0.73420  0.15820  Biso   1.000  C
  C233     1.0000 0.86630  0.26580  0.65820  Biso   1.000  C
  C234     1.0000 0.36630  0.76580  0.65820  Biso   1.000  C
  C235     1.0000 0.13370  0.23420  0.15820  Biso   1.000  C
  C236     1.0000 0.86630  0.73420  0.34180  Biso   1.000  C
  C237     1.0000 0.13370  0.76580  0.84180  Biso   1.000  C
  C238     1.0000 0.63370  0.73420  0.15820  Biso   1.000  C
  C239     1.0000 0.36630  0.23420  0.34180  Biso   1.000  C
  C240     1.0000 0.63370  0.26580  0.84180  Biso   1.000  C
  H113     1.0000 0.12400  0.72380  0.28600  Biso   1.000  H
  H114     1.0000 0.62400  0.22380  0.28600  Biso   1.000  H
  H115     1.0000 0.87600  0.77620  0.78600  Biso   1.000  H
  H116     1.0000 0.12400  0.27620  0.71400  Biso   1.000  H
  H117     1.0000 0.87600  0.22380  0.21400  Biso   1.000  H
  H118     1.0000 0.37600  0.27620  0.78600  Biso   1.000  H
  H119     1.0000 0.62400  0.77620  0.71400  Biso   1.000  H
  H120     1.0000 0.37600  0.72380  0.21400  Biso   1.000  H
  H121     1.0000 0.87600  0.27620  0.71400  Biso   1.000  H
  H122     1.0000 0.37600  0.77620  0.71400  Biso   1.000  H
  H123     1.0000 0.12400  0.22380  0.21400  Biso   1.000  H
  H124     1.0000 0.87600  0.72380  0.28600  Biso   1.000  H
  H125     1.0000 0.12400  0.77620  0.78600  Biso   1.000  H
  H126     1.0000 0.62400  0.72380  0.21400  Biso   1.000  H
  H127     1.0000 0.37600  0.22380  0.28600  Biso   1.000  H
  H128     1.0000 0.62400  0.27620  0.78600  Biso   1.000  H
  C241     1.0000 0.20170  0.67080  0.32980  Biso   1.000  C
  C242     1.0000 0.70170  0.17080  0.32980  Biso   1.000  C
  C243     1.0000 0.79830  0.82920  0.82980  Biso   1.000  C
  C244     1.0000 0.20170  0.32920  0.67020  Biso   1.000  C
  C245     1.0000 0.79830  0.17080  0.17020  Biso   1.000  C
  C246     1.0000 0.29830  0.32920  0.82980  Biso   1.000  C
  C247     1.0000 0.70170  0.82920  0.67020  Biso   1.000  C
  C248     1.0000 0.29830  0.67080  0.17020  Biso   1.000  C
  C249     1.0000 0.79830  0.32920  0.67020  Biso   1.000  C
  C250     1.0000 0.29830  0.82920  0.67020  Biso   1.000  C
  C251     1.0000 0.20170  0.17080  0.17020  Biso   1.000  C
  C252     1.0000 0.79830  0.67080  0.32980  Biso   1.000  C
  C253     1.0000 0.20170  0.82920  0.82980  Biso   1.000  C
  C254     1.0000 0.70170  0.67080  0.17020  Biso   1.000  C
  C255     1.0000 0.29830  0.17080  0.32980  Biso   1.000  C
  C256     1.0000 0.70170  0.32920  0.82980  Biso   1.000  C
  C257     1.0000 0.18840  0.10720  0.49500  Biso   1.000  C
  C258     1.0000 0.68840  0.60720  0.49500  Biso   1.000  C
  C259     1.0000 0.81160  0.39280  0.99500  Biso   1.000  C
  C260     1.0000 0.18840  0.89280  0.50500  Biso   1.000  C
  C261     1.0000 0.81160  0.60720  0.00500  Biso   1.000  C
  C262     1.0000 0.31160  0.89280  0.99500  Biso   1.000  C
  C263     1.0000 0.68840  0.39280  0.50500  Biso   1.000  C
  C264     1.0000 0.31160  0.10720  0.00500  Biso   1.000  C
  C265     1.0000 0.81160  0.89280  0.50500  Biso   1.000  C
  C266     1.0000 0.31160  0.39280  0.50500  Biso   1.000  C
  C267     1.0000 0.18840  0.60720  0.00500  Biso   1.000  C
  C268     1.0000 0.81160  0.10720  0.49500  Biso   1.000  C
  C269     1.0000 0.18840  0.39280  0.99500  Biso   1.000  C
  C270     1.0000 0.68840  0.10720  0.00500  Biso   1.000  C
  C271     1.0000 0.31160  0.60720  0.49500  Biso   1.000  C
  C272     1.0000 0.68840  0.89280  0.99500  Biso   1.000  C
  H129     1.0000 0.21420  0.13060  0.49340  Biso   1.000  H
  H130     1.0000 0.71420  0.63060  0.49340  Biso   1.000  H
  H131     1.0000 0.78580  0.36940  0.99340  Biso   1.000  H
  H132     1.0000 0.21420  0.86940  0.50660  Biso   1.000  H
  H133     1.0000 0.78580  0.63060  0.00660  Biso   1.000  H
  H134     1.0000 0.28580  0.86940  0.99340  Biso   1.000  H
  H135     1.0000 0.71420  0.36940  0.50660  Biso   1.000  H
  H136     1.0000 0.28580  0.13060  0.00660  Biso   1.000  H
  H137     1.0000 0.78580  0.86940  0.50660  Biso   1.000  H
  H138     1.0000 0.28580  0.36940  0.50660  Biso   1.000  H
  H139     1.0000 0.21420  0.63060  0.00660  Biso   1.000  H
  H140     1.0000 0.78580  0.13060  0.49340  Biso   1.000  H
  H141     1.0000 0.21420  0.36940  0.99340  Biso   1.000  H
  H142     1.0000 0.71420  0.13060  0.00660  Biso   1.000  H
  H143     1.0000 0.28580  0.63060  0.49340  Biso   1.000  H
  H144     1.0000 0.71420  0.86940  0.99340  Biso   1.000  H
  C273     1.0000 0.13490  0.05570  0.58400  Biso   1.000  C
  C274     1.0000 0.63490  0.55570  0.58400  Biso   1.000  C
  C275     1.0000 0.86510  0.44430  0.08400  Biso   1.000  C
  C276     1.0000 0.13490  0.94430  0.41600  Biso   1.000  C
  C277     1.0000 0.86510  0.55570  0.91600  Biso   1.000  C
  C278     1.0000 0.36510  0.94430  0.08400  Biso   1.000  C
  C279     1.0000 0.63490  0.44430  0.41600  Biso   1.000  C
  C280     1.0000 0.36510  0.05570  0.91600  Biso   1.000  C
  C281     1.0000 0.86510  0.94430  0.41600  Biso   1.000  C
  C282     1.0000 0.36510  0.44430  0.41600  Biso   1.000  C
  C283     1.0000 0.13490  0.55570  0.91600  Biso   1.000  C
  C284     1.0000 0.86510  0.05570  0.58400  Biso   1.000  C
  C285     1.0000 0.13490  0.44430  0.08400  Biso   1.000  C
  C286     1.0000 0.63490  0.05570  0.91600  Biso   1.000  C
  C287     1.0000 0.36510  0.55570  0.58400  Biso   1.000  C
  C288     1.0000 0.63490  0.94430  0.08400  Biso   1.000  C
  H145     1.0000 0.12510  0.04530  0.52610  Biso   1.000  H
  H146     1.0000 0.62510  0.54530  0.52610  Biso   1.000  H
  H147     1.0000 0.87490  0.45470  0.02610  Biso   1.000  H
  H148     1.0000 0.12510  0.95470  0.47390  Biso   1.000  H
  H149     1.0000 0.87490  0.54530  0.97390  Biso   1.000  H
  H150     1.0000 0.37490  0.95470  0.02610  Biso   1.000  H
  H151     1.0000 0.62510  0.45470  0.47390  Biso   1.000  H
  H152     1.0000 0.37490  0.04530  0.97390  Biso   1.000  H
  H153     1.0000 0.87490  0.95470  0.47390  Biso   1.000  H
  H154     1.0000 0.37490  0.45470  0.47390  Biso   1.000  H
  H155     1.0000 0.12510  0.54530  0.97390  Biso   1.000  H
  H156     1.0000 0.87490  0.04530  0.52610  Biso   1.000  H
  H157     1.0000 0.12510  0.45470  0.02610  Biso   1.000  H
  H158     1.0000 0.62510  0.04530  0.97390  Biso   1.000  H
  H159     1.0000 0.37490  0.54530  0.52610  Biso   1.000  H
  H160     1.0000 0.62510  0.95470  0.02610  Biso   1.000  H
  H161     1.0000 0.10850  0.07230  0.61370  Biso   1.000  H
  H162     1.0000 0.60850  0.57230  0.61370  Biso   1.000  H
  H163     1.0000 0.89150  0.42770  0.11370  Biso   1.000  H
  H164     1.0000 0.10850  0.92770  0.38630  Biso   1.000  H
  H165     1.0000 0.89150  0.57230  0.88630  Biso   1.000  H
  H166     1.0000 0.39150  0.92770  0.11370  Biso   1.000  H
  H167     1.0000 0.60850  0.42770  0.38630  Biso   1.000  H
  H168     1.0000 0.39150  0.07230  0.88630  Biso   1.000  H
  H169     1.0000 0.89150  0.92770  0.38630  Biso   1.000  H
  H170     1.0000 0.39150  0.42770  0.38630  Biso   1.000  H
  H171     1.0000 0.10850  0.57230  0.88630  Biso   1.000  H
  H172     1.0000 0.89150  0.07230  0.61370  Biso   1.000  H
  H173     1.0000 0.10850  0.42770  0.11370  Biso   1.000  H
  H174     1.0000 0.60850  0.07230  0.88630  Biso   1.000  H
  H175     1.0000 0.39150  0.57230  0.61370  Biso   1.000  H
  H176     1.0000 0.60850  0.92770  0.11370  Biso   1.000  H
  H177     1.0000 0.14490  0.02480  0.61620  Biso   1.000  H
  H178     1.0000 0.64490  0.52480  0.61620  Biso   1.000  H
  H179     1.0000 0.85510  0.47520  0.11620  Biso   1.000  H
  H180     1.0000 0.14490  0.97520  0.38380  Biso   1.000  H
  H181     1.0000 0.85510  0.52480  0.88380  Biso   1.000  H
  H182     1.0000 0.35510  0.97520  0.11620  Biso   1.000  H
  H183     1.0000 0.64490  0.47520  0.38380  Biso   1.000  H
  H184     1.0000 0.35510  0.02480  0.88380  Biso   1.000  H
  H185     1.0000 0.85510  0.97520  0.38380  Biso   1.000  H
  H186     1.0000 0.35510  0.47520  0.38380  Biso   1.000  H
  H187     1.0000 0.14490  0.52480  0.88380  Biso   1.000  H
  H188     1.0000 0.85510  0.02480  0.61620  Biso   1.000  H
  H189     1.0000 0.14490  0.47520  0.11620  Biso   1.000  H
  H190     1.0000 0.64490  0.02480  0.88380  Biso   1.000  H
  H191     1.0000 0.35510  0.52480  0.61620  Biso   1.000  H
  H192     1.0000 0.64490  0.97520  0.11620  Biso   1.000  H
  C289     1.0000 0.19670  0.11530  0.65720  Biso   1.000  C
  C290     1.0000 0.69670  0.61530  0.65720  Biso   1.000  C
  C291     1.0000 0.80330  0.38470  0.15720  Biso   1.000  C
  C292     1.0000 0.19670  0.88470  0.34280  Biso   1.000  C
  C293     1.0000 0.80330  0.61530  0.84280  Biso   1.000  C
  C294     1.0000 0.30330  0.88470  0.15720  Biso   1.000  C
  C295     1.0000 0.69670  0.38470  0.34280  Biso   1.000  C
  C296     1.0000 0.30330  0.11530  0.84280  Biso   1.000  C
  C297     1.0000 0.80330  0.88470  0.34280  Biso   1.000  C
  C298     1.0000 0.30330  0.38470  0.34280  Biso   1.000  C
  C299     1.0000 0.19670  0.61530  0.84280  Biso   1.000  C
  C300     1.0000 0.80330  0.11530  0.65720  Biso   1.000  C
  C301     1.0000 0.19670  0.38470  0.15720  Biso   1.000  C
  C302     1.0000 0.69670  0.11530  0.84280  Biso   1.000  C
  C303     1.0000 0.30330  0.61530  0.65720  Biso   1.000  C
  C304     1.0000 0.69670  0.88470  0.15720  Biso   1.000  C
  H193     1.0000 0.22190  0.13910  0.63990  Biso   1.000  H
  H194     1.0000 0.72190  0.63910  0.63990  Biso   1.000  H
  H195     1.0000 0.77810  0.36090  0.13990  Biso   1.000  H
  H196     1.0000 0.22190  0.86090  0.36010  Biso   1.000  H
  H197     1.0000 0.77810  0.63910  0.86010  Biso   1.000  H
  H198     1.0000 0.27810  0.86090  0.13990  Biso   1.000  H
  H199     1.0000 0.72190  0.36090  0.36010  Biso   1.000  H
  H200     1.0000 0.27810  0.13910  0.86010  Biso   1.000  H
  H201     1.0000 0.77810  0.86090  0.36010  Biso   1.000  H
  H202     1.0000 0.27810  0.36090  0.36010  Biso   1.000  H
  H203     1.0000 0.22190  0.63910  0.86010  Biso   1.000  H
  H204     1.0000 0.77810  0.13910  0.63990  Biso   1.000  H
  H205     1.0000 0.22190  0.36090  0.13990  Biso   1.000  H
  H206     1.0000 0.72190  0.13910  0.86010  Biso   1.000  H
  H207     1.0000 0.27810  0.63910  0.63990  Biso   1.000  H
  H208     1.0000 0.72190  0.86090  0.13990  Biso   1.000  H
  H209     1.0000 0.20980  0.08710  0.69230  Biso   1.000  H
  H210     1.0000 0.70980  0.58710  0.69230  Biso   1.000  H
  H211     1.0000 0.79020  0.41290  0.19230  Biso   1.000  H
  H212     1.0000 0.20980  0.91290  0.30770  Biso   1.000  H
  H213     1.0000 0.79020  0.58710  0.80770  Biso   1.000  H
  H214     1.0000 0.29020  0.91290  0.19230  Biso   1.000  H
  H215     1.0000 0.70980  0.41290  0.30770  Biso   1.000  H
  H216     1.0000 0.29020  0.08710  0.80770  Biso   1.000  H
  H217     1.0000 0.79020  0.91290  0.30770  Biso   1.000  H
  H218     1.0000 0.29020  0.41290  0.30770  Biso   1.000  H
  H219     1.0000 0.20980  0.58710  0.80770  Biso   1.000  H
  H220     1.0000 0.79020  0.08710  0.69230  Biso   1.000  H
  H221     1.0000 0.20980  0.41290  0.19230  Biso   1.000  H
  H222     1.0000 0.70980  0.08710  0.80770  Biso   1.000  H
  H223     1.0000 0.29020  0.58710  0.69230  Biso   1.000  H
  H224     1.0000 0.70980  0.91290  0.19230  Biso   1.000  H
  H225     1.0000 0.17330  0.13450  0.69070  Biso   1.000  H
  H226     1.0000 0.67330  0.63450  0.69070  Biso   1.000  H
  H227     1.0000 0.82670  0.36550  0.19070  Biso   1.000  H
  H228     1.0000 0.17330  0.86550  0.30930  Biso   1.000  H
  H229     1.0000 0.82670  0.63450  0.80930  Biso   1.000  H
  H230     1.0000 0.32670  0.86550  0.19070  Biso   1.000  H
  H231     1.0000 0.67330  0.36550  0.30930  Biso   1.000  H
  H232     1.0000 0.32670  0.13450  0.80930  Biso   1.000  H
  H233     1.0000 0.82670  0.86550  0.30930  Biso   1.000  H
  H234     1.0000 0.32670  0.36550  0.30930  Biso   1.000  H
  H235     1.0000 0.17330  0.63450  0.80930  Biso   1.000  H
  H236     1.0000 0.82670  0.13450  0.69070  Biso   1.000  H
  H237     1.0000 0.17330  0.36550  0.19070  Biso   1.000  H
  H238     1.0000 0.67330  0.13450  0.80930  Biso   1.000  H
  H239     1.0000 0.32670  0.63450  0.69070  Biso   1.000  H
  H240     1.0000 0.67330  0.86550  0.19070  Biso   1.000  H
  O153     1.0000 0.00000  0.74910  0.10090  Biso   1.000  O
  O154     1.0000 0.50000  0.24910  0.10090  Biso   1.000  O
  O155     1.0000 0.00000  0.75090  0.60090  Biso   1.000  O
  O156     1.0000 0.00000  0.25090  0.89910  Biso   1.000  O
  O157     1.0000 0.00000  0.24910  0.39910  Biso   1.000  O
  O158     1.0000 0.50000  0.25090  0.60090  Biso   1.000  O
  O159     1.0000 0.50000  0.75090  0.89910  Biso   1.000  O
  O160     1.0000 0.50000  0.74910  0.39910  Biso   1.000  O
  H241     1.0000 0.00000  0.70400  0.11100  Biso   1.000  H
  H242     1.0000 0.50000  0.20400  0.11100  Biso   1.000  H
  H243     1.0000 0.00000  0.79600  0.61100  Biso   1.000  H
  H244     1.0000 0.00000  0.29600  0.88900  Biso   1.000  H
  H245     1.0000 0.00000  0.20400  0.38900  Biso   1.000  H
  H246     1.0000 0.50000  0.29600  0.61100  Biso   1.000  H
  H247     1.0000 0.50000  0.79600  0.88900  Biso   1.000  H
  H248     1.0000 0.50000  0.70400  0.38900  Biso   1.000  H
  H249     1.0000 0.00000  0.76100  0.07200  Biso   1.000  H
  H250     1.0000 0.50000  0.26100  0.07200  Biso   1.000  H
  H251     1.0000 0.00000  0.73900  0.57200  Biso   1.000  H
  H252     1.0000 0.00000  0.23900  0.92800  Biso   1.000  H
  H253     1.0000 0.00000  0.26100  0.42800  Biso   1.000  H
  H254     1.0000 0.50000  0.23900  0.57200  Biso   1.000  H
  H255     1.0000 0.50000  0.73900  0.92800  Biso   1.000  H
  H256     1.0000 0.50000  0.76100  0.42800  Biso   1.000  H
  H257     1.0000 0.00000  0.94900  0.46400  Biso   1.000  H
  H258     1.0000 0.50000  0.44900  0.46400  Biso   1.000  H
  H259     1.0000 0.00000  0.55100  0.96400  Biso   1.000  H
  H260     1.0000 0.00000  0.05100  0.53600  Biso   1.000  H
  H261     1.0000 0.00000  0.44900  0.03600  Biso   1.000  H
  H262     1.0000 0.50000  0.05100  0.96400  Biso   1.000  H
  H263     1.0000 0.50000  0.55100  0.53600  Biso   1.000  H
  H264     1.0000 0.50000  0.94900  0.03600  Biso   1.000  H
  H265     1.0000 0.00000  0.77500  0.47000  Biso   1.000  H
  H266     1.0000 0.50000  0.27500  0.47000  Biso   1.000  H
  H267     1.0000 0.00000  0.72500  0.97000  Biso   1.000  H
  H268     1.0000 0.00000  0.22500  0.53000  Biso   1.000  H
  H269     1.0000 0.00000  0.27500  0.03000  Biso   1.000  H
  H270     1.0000 0.50000  0.22500  0.97000  Biso   1.000  H
  H271     1.0000 0.50000  0.72500  0.53000  Biso   1.000  H
  H272     1.0000 0.50000  0.77500  0.03000  Biso   1.000  H
