data_image0
_cell_length_a       23.872
_cell_length_b       15.985
_cell_length_c       20.85
_cell_angle_alpha    90
_cell_angle_beta     99.431
_cell_angle_gamma    90

_symmetry_space_group_name_H-M    "P 1"
_symmetry_int_tables_number       1

loop_
  _symmetry_equiv_pos_as_xyz
  'x, y, z'

loop_
  _atom_site_label
  _atom_site_occupancy
  _atom_site_fract_x
  _atom_site_fract_y
  _atom_site_fract_z
  _atom_site_thermal_displace_type
  _atom_site_B_iso_or_equiv
  _atom_site_type_symbol
  Cu1      1.0000 0.37132  0.84361  0.21682  Biso   1.000  Cu
  Cu2      1.0000 0.37132  0.65639  0.71682  Biso   1.000  Cu
  Cu3      1.0000 0.62868  0.15639  0.78318  Biso   1.000  Cu
  Cu4      1.0000 0.62868  0.34361  0.28318  Biso   1.000  Cu
  Cu5      1.0000 0.57146  0.82529  0.26060  Biso   1.000  Cu
  Cu6      1.0000 0.57146  0.67471  0.76060  Biso   1.000  Cu
  Cu7      1.0000 0.42854  0.17471  0.73940  Biso   1.000  Cu
  Cu8      1.0000 0.42854  0.32529  0.23940  Biso   1.000  Cu
  Cu9      1.0000 0.68628  0.75204  0.26043  Biso   1.000  Cu
  Cu10     1.0000 0.68628  0.74796  0.76043  Biso   1.000  Cu
  Cu11     1.0000 0.31372  0.24796  0.73957  Biso   1.000  Cu
  Cu12     1.0000 0.31372  0.25204  0.23957  Biso   1.000  Cu
  Cu13     1.0000 0.88376  0.73516  0.30855  Biso   1.000  Cu
  Cu14     1.0000 0.88376  0.76484  0.80855  Biso   1.000  Cu
  Cu15     1.0000 0.11624  0.26484  0.69145  Biso   1.000  Cu
  Cu16     1.0000 0.11624  0.23516  0.19145  Biso   1.000  Cu
  Cu17     1.0000 0.07484  0.74467  0.27279  Biso   1.000  Cu
  Cu18     1.0000 0.07484  0.75533  0.77279  Biso   1.000  Cu
  Cu19     1.0000 0.92516  0.25533  0.72721  Biso   1.000  Cu
  Cu20     1.0000 0.92516  0.24467  0.22721  Biso   1.000  Cu
  Cu21     1.0000 0.18623  0.82436  0.26556  Biso   1.000  Cu
  Cu22     1.0000 0.18623  0.67564  0.76556  Biso   1.000  Cu
  Cu23     1.0000 0.81377  0.17564  0.73444  Biso   1.000  Cu
  Cu24     1.0000 0.81377  0.32436  0.23444  Biso   1.000  Cu
  O1       1.0000 0.12170  0.83490  0.31390  Biso   1.000  O
  O2       1.0000 0.12170  0.66510  0.81390  Biso   1.000  O
  O3       1.0000 0.87830  0.16510  0.68610  Biso   1.000  O
  O4       1.0000 0.87830  0.33490  0.18610  Biso   1.000  O
  O5       1.0000 0.02230  0.65590  0.23630  Biso   1.000  O
  O6       1.0000 0.02230  0.84410  0.73630  Biso   1.000  O
  O7       1.0000 0.97770  0.34410  0.76370  Biso   1.000  O
  O8       1.0000 0.97770  0.15590  0.26370  Biso   1.000  O
  O9       1.0000 0.13690  0.73790  0.22260  Biso   1.000  O
  O10      1.0000 0.13690  0.76210  0.72260  Biso   1.000  O
  O11      1.0000 0.86310  0.26210  0.77740  Biso   1.000  O
  O12      1.0000 0.86310  0.23790  0.27740  Biso   1.000  O
  O13      1.0000 0.64900  0.84000  0.30700  Biso   1.000  O
  O14      1.0000 0.64900  0.66000  0.80700  Biso   1.000  O
  O15      1.0000 0.35100  0.16000  0.69300  Biso   1.000  O
  O16      1.0000 0.35100  0.34000  0.19300  Biso   1.000  O
  O17      1.0000 0.60790  0.74460  0.21250  Biso   1.000  O
  O18      1.0000 0.60790  0.75540  0.71250  Biso   1.000  O
  O19      1.0000 0.39210  0.25540  0.78750  Biso   1.000  O
  O20      1.0000 0.39210  0.24460  0.28750  Biso   1.000  O
  O21      1.0000 0.72690  0.65700  0.23170  Biso   1.000  O
  O22      1.0000 0.72690  0.84300  0.73170  Biso   1.000  O
  O23      1.0000 0.27310  0.34300  0.76830  Biso   1.000  O
  O24      1.0000 0.27310  0.15700  0.26830  Biso   1.000  O
  O25      1.0000 0.52990  0.91270  0.29780  Biso   1.000  O
  O26      1.0000 0.52990  0.58730  0.79780  Biso   1.000  O
  O27      1.0000 0.47010  0.08730  0.70220  Biso   1.000  O
  O28      1.0000 0.47010  0.41270  0.20220  Biso   1.000  O
  O29      1.0000 0.23010  0.71710  0.33660  Biso   1.000  O
  O30      1.0000 0.23010  0.78290  0.83660  Biso   1.000  O
  O31      1.0000 0.76990  0.28290  0.66340  Biso   1.000  O
  O32      1.0000 0.76990  0.21710  0.16340  Biso   1.000  O
  O33      1.0000 0.23870  0.91450  0.29760  Biso   1.000  O
  O34      1.0000 0.23870  0.58550  0.79760  Biso   1.000  O
  O35      1.0000 0.76130  0.08550  0.70240  Biso   1.000  O
  O36      1.0000 0.76130  0.41450  0.20240  Biso   1.000  O
  N1       1.0000 0.29460  0.85290  0.23220  Biso   1.000  N
  N2       1.0000 0.29460  0.64710  0.73220  Biso   1.000  N
  N3       1.0000 0.70540  0.14710  0.76780  Biso   1.000  N
  N4       1.0000 0.70540  0.35290  0.26780  Biso   1.000  N
  N5       1.0000 0.37960  0.95560  0.26390  Biso   1.000  N
  N6       1.0000 0.37960  0.54440  0.76390  Biso   1.000  N
  N7       1.0000 0.62040  0.04440  0.73610  Biso   1.000  N
  N8       1.0000 0.62040  0.45560  0.23610  Biso   1.000  N
  N9       1.0000 0.45400  0.85290  0.22920  Biso   1.000  N
  N10      1.0000 0.45400  0.64710  0.72920  Biso   1.000  N
  N11      1.0000 0.54600  0.14710  0.77080  Biso   1.000  N
  N12      1.0000 0.54600  0.35290  0.27080  Biso   1.000  N
  N13      1.0000 0.49890  0.80330  0.21120  Biso   1.000  N
  N14      1.0000 0.49890  0.69670  0.71120  Biso   1.000  N
  N15      1.0000 0.50110  0.19670  0.78880  Biso   1.000  N
  N16      1.0000 0.50110  0.30330  0.28880  Biso   1.000  N
  N17      1.0000 0.75670  0.76860  0.31650  Biso   1.000  N
  N18      1.0000 0.75670  0.73140  0.81650  Biso   1.000  N
  N19      1.0000 0.24330  0.23140  0.68350  Biso   1.000  N
  N20      1.0000 0.24330  0.26860  0.18350  Biso   1.000  N
  N21      1.0000 0.80210  0.71960  0.29950  Biso   1.000  N
  N22      1.0000 0.80210  0.78040  0.79950  Biso   1.000  N
  N23      1.0000 0.19790  0.28040  0.70050  Biso   1.000  N
  N24      1.0000 0.19790  0.21960  0.20050  Biso   1.000  N
  N25      1.0000 0.87920  0.61720  0.27240  Biso   1.000  N
  N26      1.0000 0.87920  0.88280  0.77240  Biso   1.000  N
  N27      1.0000 0.12080  0.38280  0.72760  Biso   1.000  N
  N28      1.0000 0.12080  0.11720  0.22760  Biso   1.000  N
  N29      1.0000 0.96340  0.72850  0.29180  Biso   1.000  N
  N30      1.0000 0.96340  0.77150  0.79180  Biso   1.000  N
  N31      1.0000 0.03660  0.27150  0.70820  Biso   1.000  N
  N32      1.0000 0.03660  0.22850  0.20820  Biso   1.000  N
  N33      1.0000 0.01180  0.77800  0.31210  Biso   1.000  N
  N34      1.0000 0.01180  0.72200  0.81210  Biso   1.000  N
  N35      1.0000 0.98820  0.22200  0.68790  Biso   1.000  N
  N36      1.0000 0.98820  0.27800  0.18790  Biso   1.000  N
  N37      1.0000 0.24280  0.80390  0.21010  Biso   1.000  N
  N38      1.0000 0.24280  0.69610  0.71010  Biso   1.000  N
  N39      1.0000 0.75720  0.19610  0.78990  Biso   1.000  N
  N40      1.0000 0.75720  0.30390  0.28990  Biso   1.000  N
  H1       1.0000 0.27380  0.83650  0.21890  Biso   1.000  H
  H2       1.0000 0.27380  0.66350  0.71890  Biso   1.000  H
  H3       1.0000 0.72620  0.16350  0.78110  Biso   1.000  H
  H4       1.0000 0.72620  0.33650  0.28110  Biso   1.000  H
  C1       1.0000 0.82120  0.60260  0.23200  Biso   1.000  C
  C2       1.0000 0.82120  0.89740  0.73200  Biso   1.000  C
  C3       1.0000 0.17880  0.39740  0.76800  Biso   1.000  C
  C4       1.0000 0.17880  0.10260  0.26800  Biso   1.000  C
  H5       1.0000 0.82240  0.61430  0.18660  Biso   1.000  H
  H6       1.0000 0.82240  0.88570  0.68660  Biso   1.000  H
  H7       1.0000 0.17760  0.38570  0.81340  Biso   1.000  H
  H8       1.0000 0.17760  0.11430  0.31340  Biso   1.000  H
  H9       1.0000 0.80980  0.54480  0.23580  Biso   1.000  H
  H10      1.0000 0.80980  0.95520  0.73580  Biso   1.000  H
  H11      1.0000 0.19020  0.45520  0.76420  Biso   1.000  H
  H12      1.0000 0.19020  0.04480  0.26420  Biso   1.000  H
  C5       1.0000 0.78060  0.65850  0.25610  Biso   1.000  C
  C6       1.0000 0.78060  0.84150  0.75610  Biso   1.000  C
  C7       1.0000 0.21940  0.34150  0.74390  Biso   1.000  C
  C8       1.0000 0.21940  0.15850  0.24390  Biso   1.000  C
  C9       1.0000 0.58450  0.70130  0.16100  Biso   1.000  C
  C10      1.0000 0.58450  0.79870  0.66100  Biso   1.000  C
  C11      1.0000 0.41550  0.29870  0.83900  Biso   1.000  C
  C12      1.0000 0.41550  0.20130  0.33900  Biso   1.000  C
  C13      1.0000 0.61800  0.65460  0.12550  Biso   1.000  C
  C14      1.0000 0.61800  0.84540  0.62550  Biso   1.000  C
  C15      1.0000 0.38200  0.34540  0.87450  Biso   1.000  C
  C16      1.0000 0.38200  0.15460  0.37450  Biso   1.000  C
  H13      1.0000 0.65720  0.65560  0.13860  Biso   1.000  H
  H14      1.0000 0.65720  0.84440  0.63860  Biso   1.000  H
  H15      1.0000 0.34280  0.34440  0.86140  Biso   1.000  H
  H16      1.0000 0.34280  0.15560  0.36140  Biso   1.000  H
  C17      1.0000 0.59660  0.60770  0.07280  Biso   1.000  C
  C18      1.0000 0.59660  0.89230  0.57280  Biso   1.000  C
  C19      1.0000 0.40340  0.39230  0.92720  Biso   1.000  C
  C20      1.0000 0.40340  0.10770  0.42720  Biso   1.000  C
  H17      1.0000 0.62110  0.57720  0.05140  Biso   1.000  H
  H18      1.0000 0.62110  0.92280  0.55140  Biso   1.000  H
  H19      1.0000 0.37890  0.42280  0.94860  Biso   1.000  H
  H20      1.0000 0.37890  0.07720  0.44860  Biso   1.000  H
  C21      1.0000 0.53880  0.60500  0.05070  Biso   1.000  C
  C22      1.0000 0.53880  0.89500  0.55070  Biso   1.000  C
  C23      1.0000 0.46120  0.39500  0.94930  Biso   1.000  C
  C24      1.0000 0.46120  0.10500  0.44930  Biso   1.000  C
  H21      1.0000 0.52400  0.57070  0.01600  Biso   1.000  H
  H22      1.0000 0.52400  0.92930  0.51600  Biso   1.000  H
  H23      1.0000 0.47600  0.42930  0.98400  Biso   1.000  H
  H24      1.0000 0.47600  0.07070  0.48400  Biso   1.000  H
  C25      1.0000 0.50380  0.65400  0.08080  Biso   1.000  C
  C26      1.0000 0.50380  0.84600  0.58080  Biso   1.000  C
  C27      1.0000 0.49620  0.34600  0.91920  Biso   1.000  C
  C28      1.0000 0.49620  0.15400  0.41920  Biso   1.000  C
  H25      1.0000 0.46520  0.65560  0.06430  Biso   1.000  H
  H26      1.0000 0.46520  0.84440  0.56430  Biso   1.000  H
  H27      1.0000 0.53480  0.34440  0.93570  Biso   1.000  H
  H28      1.0000 0.53480  0.15560  0.43570  Biso   1.000  H
  C29      1.0000 0.52550  0.70340  0.13780  Biso   1.000  C
  C30      1.0000 0.52550  0.79660  0.63780  Biso   1.000  C
  C31      1.0000 0.47450  0.29660  0.86220  Biso   1.000  C
  C32      1.0000 0.47450  0.20340  0.36220  Biso   1.000  C
  C33      1.0000 0.48420  0.75360  0.16270  Biso   1.000  C
  C34      1.0000 0.48420  0.74640  0.66270  Biso   1.000  C
  C35      1.0000 0.51580  0.24640  0.83730  Biso   1.000  C
  C36      1.0000 0.51580  0.25360  0.33730  Biso   1.000  C
  H29      1.0000 0.44630  0.75020  0.14350  Biso   1.000  H
  H30      1.0000 0.44630  0.74980  0.64350  Biso   1.000  H
  H31      1.0000 0.55370  0.24980  0.85650  Biso   1.000  H
  H32      1.0000 0.55370  0.25020  0.35650  Biso   1.000  H
  C37      1.0000 0.47400  0.90310  0.27420  Biso   1.000  C
  C38      1.0000 0.47400  0.59690  0.77420  Biso   1.000  C
  C39      1.0000 0.52600  0.09690  0.72580  Biso   1.000  C
  C40      1.0000 0.52600  0.40310  0.22580  Biso   1.000  C
  C41      1.0000 0.43800  0.96320  0.30140  Biso   1.000  C
  C42      1.0000 0.43800  0.53680  0.80140  Biso   1.000  C
  C43      1.0000 0.56200  0.03680  0.69860  Biso   1.000  C
  C44      1.0000 0.56200  0.46320  0.19860  Biso   1.000  C
  H33      1.0000 0.45230  0.01950  0.29780  Biso   1.000  H
  H34      1.0000 0.45230  0.48050  0.79780  Biso   1.000  H
  H35      1.0000 0.54770  0.98050  0.70220  Biso   1.000  H
  H36      1.0000 0.54770  0.51950  0.20220  Biso   1.000  H
  H37      1.0000 0.43790  0.95120  0.34700  Biso   1.000  H
  H38      1.0000 0.43790  0.54880  0.84700  Biso   1.000  H
  H39      1.0000 0.56210  0.04880  0.65300  Biso   1.000  H
  H40      1.0000 0.56210  0.45120  0.15300  Biso   1.000  H
  C45      1.0000 0.67180  0.88380  0.35730  Biso   1.000  C
  C46      1.0000 0.67180  0.61620  0.85730  Biso   1.000  C
  C47      1.0000 0.32820  0.11620  0.64270  Biso   1.000  C
  C48      1.0000 0.32820  0.38380  0.14270  Biso   1.000  C
  C49      1.0000 0.64080  0.94310  0.38170  Biso   1.000  C
  C50      1.0000 0.64080  0.55690  0.88170  Biso   1.000  C
  C51      1.0000 0.35920  0.05690  0.61830  Biso   1.000  C
  C52      1.0000 0.35920  0.44310  0.11830  Biso   1.000  C
  H41      1.0000 0.60350  0.95270  0.36220  Biso   1.000  H
  H42      1.0000 0.60350  0.54730  0.86220  Biso   1.000  H
  H43      1.0000 0.39650  0.04730  0.63780  Biso   1.000  H
  H44      1.0000 0.39650  0.45270  0.13780  Biso   1.000  H
  C53      1.0000 0.66420  0.98960  0.43540  Biso   1.000  C
  C54      1.0000 0.66420  0.51040  0.93540  Biso   1.000  C
  C55      1.0000 0.33580  0.01040  0.56460  Biso   1.000  C
  C56      1.0000 0.33580  0.48960  0.06460  Biso   1.000  C
  H45      1.0000 0.64120  0.02970  0.45030  Biso   1.000  H
  H46      1.0000 0.64120  0.47030  0.95030  Biso   1.000  H
  H47      1.0000 0.35880  0.97030  0.54970  Biso   1.000  H
  H48      1.0000 0.35880  0.52970  0.04970  Biso   1.000  H
  C57      1.0000 0.71760  0.98150  0.46780  Biso   1.000  C
  C58      1.0000 0.71760  0.51850  0.96780  Biso   1.000  C
  C59      1.0000 0.28240  0.01850  0.53220  Biso   1.000  C
  C60      1.0000 0.28240  0.48150  0.03220  Biso   1.000  C
  H49      1.0000 0.73150  0.01340  0.50430  Biso   1.000  H
  H50      1.0000 0.73150  0.48660  0.00430  Biso   1.000  H
  H51      1.0000 0.26850  0.98660  0.49570  Biso   1.000  H
  H52      1.0000 0.26850  0.51340  0.99570  Biso   1.000  H
  C61      1.0000 0.75060  0.92120  0.44240  Biso   1.000  C
  C62      1.0000 0.75060  0.57880  0.94240  Biso   1.000  C
  C63      1.0000 0.24940  0.07880  0.55760  Biso   1.000  C
  C64      1.0000 0.24940  0.42120  0.05760  Biso   1.000  C
  H53      1.0000 0.78800  0.91340  0.46240  Biso   1.000  H
  H54      1.0000 0.78800  0.58660  0.96240  Biso   1.000  H
  H55      1.0000 0.21200  0.08660  0.53760  Biso   1.000  H
  H56      1.0000 0.21200  0.41340  0.03760  Biso   1.000  H
  C65      1.0000 0.72990  0.87310  0.38890  Biso   1.000  C
  C66      1.0000 0.72990  0.62690  0.88890  Biso   1.000  C
  C67      1.0000 0.27010  0.12690  0.61110  Biso   1.000  C
  C68      1.0000 0.27010  0.37310  0.11110  Biso   1.000  C
  C69      1.0000 0.76980  0.81210  0.36770  Biso   1.000  C
  C70      1.0000 0.76980  0.68790  0.86770  Biso   1.000  C
  C71      1.0000 0.23020  0.18790  0.63230  Biso   1.000  C
  C72      1.0000 0.23020  0.31210  0.13230  Biso   1.000  C
  H57      1.0000 0.80550  0.80540  0.39270  Biso   1.000  H
  H58      1.0000 0.80550  0.69460  0.89270  Biso   1.000  H
  H59      1.0000 0.19450  0.19460  0.60730  Biso   1.000  H
  H60      1.0000 0.19450  0.30540  0.10730  Biso   1.000  H
  C73      1.0000 0.92650  0.60350  0.23140  Biso   1.000  C
  C74      1.0000 0.92650  0.89650  0.73140  Biso   1.000  C
  C75      1.0000 0.07350  0.39650  0.76860  Biso   1.000  C
  C76      1.0000 0.07350  0.10350  0.26860  Biso   1.000  C
  H61      1.0000 0.91230  0.61460  0.18590  Biso   1.000  H
  H62      1.0000 0.91230  0.88540  0.68590  Biso   1.000  H
  H63      1.0000 0.08770  0.38540  0.81410  Biso   1.000  H
  H64      1.0000 0.08770  0.11460  0.31410  Biso   1.000  H
  H65      1.0000 0.93980  0.54610  0.23550  Biso   1.000  H
  H66      1.0000 0.93980  0.95390  0.73550  Biso   1.000  H
  H67      1.0000 0.06020  0.45390  0.76450  Biso   1.000  H
  H68      1.0000 0.06020  0.04610  0.26450  Biso   1.000  H
  C77      1.0000 0.97620  0.66480  0.25700  Biso   1.000  C
  C78      1.0000 0.97620  0.83520  0.75700  Biso   1.000  C
  C79      1.0000 0.02380  0.33520  0.74300  Biso   1.000  C
  C80      1.0000 0.02380  0.16480  0.24300  Biso   1.000  C
  C81      1.0000 0.14270  0.69860  0.16430  Biso   1.000  C
  C82      1.0000 0.14270  0.80140  0.66430  Biso   1.000  C
  C83      1.0000 0.85730  0.30140  0.83570  Biso   1.000  C
  C84      1.0000 0.85730  0.19860  0.33570  Biso   1.000  C
  C85      1.0000 0.19520  0.70230  0.13990  Biso   1.000  C
  C86      1.0000 0.19520  0.79770  0.63990  Biso   1.000  C
  C87      1.0000 0.80480  0.29770  0.86010  Biso   1.000  C
  C88      1.0000 0.80480  0.20230  0.36010  Biso   1.000  C
  C89      1.0000 0.20090  0.65390  0.08380  Biso   1.000  C
  C90      1.0000 0.20090  0.84610  0.58380  Biso   1.000  C
  C91      1.0000 0.79910  0.34610  0.91620  Biso   1.000  C
  C92      1.0000 0.79910  0.15390  0.41620  Biso   1.000  C
  H69      1.0000 0.23510  0.65380  0.06800  Biso   1.000  H
  H70      1.0000 0.23510  0.84620  0.56800  Biso   1.000  H
  H71      1.0000 0.76490  0.34620  0.93200  Biso   1.000  H
  H72      1.0000 0.76490  0.15380  0.43200  Biso   1.000  H
  C93      1.0000 0.15610  0.60780  0.05340  Biso   1.000  C
  C94      1.0000 0.15610  0.89220  0.55340  Biso   1.000  C
  C95      1.0000 0.84390  0.39220  0.94660  Biso   1.000  C
  C96      1.0000 0.84390  0.10780  0.44660  Biso   1.000  C
  H73      1.0000 0.15990  0.57640  0.01680  Biso   1.000  H
  H74      1.0000 0.15990  0.92360  0.51680  Biso   1.000  H
  H75      1.0000 0.84010  0.42360  0.98320  Biso   1.000  H
  H76      1.0000 0.84010  0.07640  0.48320  Biso   1.000  H
  C97      1.0000 0.10590  0.60770  0.07640  Biso   1.000  C
  C98      1.0000 0.10590  0.89230  0.57640  Biso   1.000  C
  C99      1.0000 0.89410  0.39230  0.92360  Biso   1.000  C
  C100     1.0000 0.89410  0.10770  0.42360  Biso   1.000  C
  H77      1.0000 0.07580  0.57690  0.05420  Biso   1.000  H
  H78      1.0000 0.07580  0.92310  0.55420  Biso   1.000  H
  H79      1.0000 0.92420  0.42310  0.94580  Biso   1.000  H
  H80      1.0000 0.92420  0.07690  0.44580  Biso   1.000  H
  C101     1.0000 0.09740  0.65320  0.13370  Biso   1.000  C
  C102     1.0000 0.09740  0.84680  0.63370  Biso   1.000  C
  C103     1.0000 0.90260  0.34680  0.86630  Biso   1.000  C
  C104     1.0000 0.90260  0.15320  0.36630  Biso   1.000  C
  H81      1.0000 0.06300  0.65180  0.14910  Biso   1.000  H
  H82      1.0000 0.06300  0.84820  0.64910  Biso   1.000  H
  H83      1.0000 0.93700  0.34820  0.85090  Biso   1.000  H
  H84      1.0000 0.93700  0.15180  0.35090  Biso   1.000  H
  C105     1.0000 0.24380  0.75280  0.16410  Biso   1.000  C
  C106     1.0000 0.24380  0.74720  0.66410  Biso   1.000  C
  C107     1.0000 0.75620  0.24720  0.83590  Biso   1.000  C
  C108     1.0000 0.75620  0.25280  0.33590  Biso   1.000  C
  H85      1.0000 0.27650  0.74790  0.14560  Biso   1.000  H
  H86      1.0000 0.27650  0.75210  0.64560  Biso   1.000  H
  H87      1.0000 0.72350  0.25210  0.85440  Biso   1.000  H
  H88      1.0000 0.72350  0.24790  0.35440  Biso   1.000  H
  C109     1.0000 0.10560  0.89510  0.35290  Biso   1.000  C
  C110     1.0000 0.10560  0.60490  0.85290  Biso   1.000  C
  C111     1.0000 0.89440  0.10490  0.64710  Biso   1.000  C
  C112     1.0000 0.89440  0.39510  0.14710  Biso   1.000  C
  C113     1.0000 0.14720  0.95800  0.37670  Biso   1.000  C
  C114     1.0000 0.14720  0.54200  0.87670  Biso   1.000  C
  C115     1.0000 0.85280  0.04200  0.62330  Biso   1.000  C
  C116     1.0000 0.85280  0.45800  0.12330  Biso   1.000  C
  H89      1.0000 0.18340  0.95610  0.36580  Biso   1.000  H
  H90      1.0000 0.18340  0.54390  0.86580  Biso   1.000  H
  H91      1.0000 0.81660  0.04390  0.63420  Biso   1.000  H
  H92      1.0000 0.81660  0.45610  0.13420  Biso   1.000  H
  C117     1.0000 0.13270  0.01970  0.41520  Biso   1.000  C
  C118     1.0000 0.13270  0.48030  0.91520  Biso   1.000  C
  C119     1.0000 0.86730  0.98030  0.58480  Biso   1.000  C
  C120     1.0000 0.86730  0.51970  0.08480  Biso   1.000  C
  H93      1.0000 0.16030  0.05850  0.43190  Biso   1.000  H
  H94      1.0000 0.16030  0.44150  0.93190  Biso   1.000  H
  H95      1.0000 0.83970  0.94150  0.56810  Biso   1.000  H
  H96      1.0000 0.83970  0.55850  0.06810  Biso   1.000  H
  C121     1.0000 0.07810  0.02810  0.43140  Biso   1.000  C
  C122     1.0000 0.07810  0.47190  0.93140  Biso   1.000  C
  C123     1.0000 0.92190  0.97190  0.56860  Biso   1.000  C
  C124     1.0000 0.92190  0.52810  0.06860  Biso   1.000  C
  H97      1.0000 0.06850  0.07120  0.45750  Biso   1.000  H
  H98      1.0000 0.06850  0.42880  0.95750  Biso   1.000  H
  H99      1.0000 0.93150  0.92880  0.54250  Biso   1.000  H
  H100     1.0000 0.93150  0.57120  0.04250  Biso   1.000  H
  C125     1.0000 0.03930  0.96630  0.40500  Biso   1.000  C
  C126     1.0000 0.03930  0.53370  0.90500  Biso   1.000  C
  C127     1.0000 0.96070  0.03370  0.59500  Biso   1.000  C
  C128     1.0000 0.96070  0.46630  0.09500  Biso   1.000  C
  H101     1.0000 0.00220  0.96980  0.41300  Biso   1.000  H
  H102     1.0000 0.00220  0.53020  0.91300  Biso   1.000  H
  H103     1.0000 0.99780  0.03020  0.58700  Biso   1.000  H
  H104     1.0000 0.99780  0.46980  0.08700  Biso   1.000  H
  C129     1.0000 0.05330  0.90080  0.36780  Biso   1.000  C
  C130     1.0000 0.05330  0.59920  0.86780  Biso   1.000  C
  C131     1.0000 0.94670  0.09920  0.63220  Biso   1.000  C
  C132     1.0000 0.94670  0.40080  0.13220  Biso   1.000  C
  C133     1.0000 0.00630  0.84270  0.34450  Biso   1.000  C
  C134     1.0000 0.00630  0.65730  0.84450  Biso   1.000  C
  C135     1.0000 0.99370  0.15730  0.65550  Biso   1.000  C
  C136     1.0000 0.99370  0.34270  0.15550  Biso   1.000  C
  H105     1.0000 0.97060  0.85480  0.35450  Biso   1.000  H
  H106     1.0000 0.97060  0.64520  0.85450  Biso   1.000  H
  H107     1.0000 0.02940  0.14520  0.64550  Biso   1.000  H
  H108     1.0000 0.02940  0.35480  0.14550  Biso   1.000  H
  C137     1.0000 0.33210  0.96800  0.30040  Biso   1.000  C
  C138     1.0000 0.33210  0.53200  0.80040  Biso   1.000  C
  C139     1.0000 0.66790  0.03200  0.69960  Biso   1.000  C
  C140     1.0000 0.66790  0.46800  0.19960  Biso   1.000  C
  H109     1.0000 0.31880  0.02530  0.29530  Biso   1.000  H
  H110     1.0000 0.31880  0.47470  0.79530  Biso   1.000  H
  H111     1.0000 0.68120  0.97470  0.70470  Biso   1.000  H
  H112     1.0000 0.68120  0.52530  0.20470  Biso   1.000  H
  H113     1.0000 0.34520  0.95810  0.34630  Biso   1.000  H
  H114     1.0000 0.34520  0.54190  0.84630  Biso   1.000  H
  H115     1.0000 0.65480  0.04190  0.65370  Biso   1.000  H
  H116     1.0000 0.65480  0.45810  0.15370  Biso   1.000  H
  C141     1.0000 0.28330  0.90800  0.27550  Biso   1.000  C
  C142     1.0000 0.28330  0.59200  0.77550  Biso   1.000  C
  C143     1.0000 0.71670  0.09200  0.72450  Biso   1.000  C
  C144     1.0000 0.71670  0.40800  0.22450  Biso   1.000  C
  S1       1.0000 0.85530  0.90660  0.24470  Biso   1.000  S
  S2       1.0000 0.85530  0.59340  0.74470  Biso   1.000  S
  S3       1.0000 0.14470  0.09340  0.75530  Biso   1.000  S
  S4       1.0000 0.14470  0.40660  0.25530  Biso   1.000  S
  S5       1.0000 0.95700  0.68560  0.45010  Biso   1.000  S
  S6       1.0000 0.95700  0.81440  0.95010  Biso   1.000  S
  S7       1.0000 0.04300  0.31440  0.54990  Biso   1.000  S
  S8       1.0000 0.04300  0.18560  0.04990  Biso   1.000  S
  S9       1.0000 0.38290  0.66480  0.26630  Biso   1.000  S
  S10      1.0000 0.38290  0.83520  0.76630  Biso   1.000  S
  S11      1.0000 0.61710  0.33520  0.73370  Biso   1.000  S
  S12      1.0000 0.61710  0.16480  0.23370  Biso   1.000  S
  S13      1.0000 0.54760  0.76380  0.40840  Biso   1.000  S
  S14      1.0000 0.54760  0.73620  0.90840  Biso   1.000  S
  S15      1.0000 0.45240  0.23620  0.59160  Biso   1.000  S
  S16      1.0000 0.45240  0.26380  0.09160  Biso   1.000  S
  Cl1      1.0000 0.07260  0.91910  0.14710  Biso   1.000  Cl
  Cl2      1.0000 0.07260  0.58090  0.64710  Biso   1.000  Cl
  Cl3      1.0000 0.92740  0.08090  0.85290  Biso   1.000  Cl
  Cl4      1.0000 0.92740  0.41910  0.35290  Biso   1.000  Cl
  Cl5      1.0000 0.16640  0.27190  0.40560  Biso   1.000  Cl
  Cl6      1.0000 0.16640  0.22810  0.90560  Biso   1.000  Cl
  Cl7      1.0000 0.83360  0.72810  0.59440  Biso   1.000  Cl
  Cl8      1.0000 0.83360  0.77190  0.09440  Biso   1.000  Cl
  Cl9      1.0000 0.58140  0.94150  0.10510  Biso   1.000  Cl
  Cl10     1.0000 0.58140  0.55850  0.60510  Biso   1.000  Cl
  Cl11     1.0000 0.41860  0.05850  0.89490  Biso   1.000  Cl
  Cl12     1.0000 0.41860  0.44150  0.39490  Biso   1.000  Cl
  Cl13     1.0000 0.34520  0.80750  0.45670  Biso   1.000  Cl
  Cl14     1.0000 0.34520  0.69250  0.95670  Biso   1.000  Cl
  Cl15     1.0000 0.65480  0.19250  0.54330  Biso   1.000  Cl
  Cl16     1.0000 0.65480  0.30750  0.04330  Biso   1.000  Cl
  C145     1.0000 0.91260  0.96400  0.22850  Biso   1.000  C
  C146     1.0000 0.91260  0.53600  0.72850  Biso   1.000  C
  C147     1.0000 0.08740  0.03600  0.77150  Biso   1.000  C
  C148     1.0000 0.08740  0.46400  0.27150  Biso   1.000  C
  H117     1.0000 0.94030  0.92630  0.21570  Biso   1.000  H
  H118     1.0000 0.94030  0.57370  0.71570  Biso   1.000  H
  H119     1.0000 0.05970  0.07370  0.78430  Biso   1.000  H
  H120     1.0000 0.05970  0.42630  0.28430  Biso   1.000  H
  H121     1.0000 0.92910  0.99360  0.26690  Biso   1.000  H
  H122     1.0000 0.92910  0.50640  0.76690  Biso   1.000  H
  H123     1.0000 0.07090  0.00640  0.73310  Biso   1.000  H
  H124     1.0000 0.07090  0.49360  0.23310  Biso   1.000  H
  H125     1.0000 0.90030  0.00240  0.19400  Biso   1.000  H
  H126     1.0000 0.90030  0.49760  0.69400  Biso   1.000  H
  H127     1.0000 0.09970  0.99760  0.80600  Biso   1.000  H
  H128     1.0000 0.09970  0.50240  0.30600  Biso   1.000  H
  C149     1.0000 0.81330  0.99120  0.26740  Biso   1.000  C
  C150     1.0000 0.81330  0.50880  0.76740  Biso   1.000  C
  C151     1.0000 0.18670  0.00880  0.73260  Biso   1.000  C
  C152     1.0000 0.18670  0.49120  0.23260  Biso   1.000  C
  H129     1.0000 0.77840  0.96970  0.27790  Biso   1.000  H
  H130     1.0000 0.77840  0.53030  0.77790  Biso   1.000  H
  H131     1.0000 0.22160  0.03030  0.72210  Biso   1.000  H
  H132     1.0000 0.22160  0.46970  0.22210  Biso   1.000  H
  H133     1.0000 0.80520  0.02990  0.23180  Biso   1.000  H
  H134     1.0000 0.80520  0.47010  0.73180  Biso   1.000  H
  H135     1.0000 0.19480  0.97010  0.76820  Biso   1.000  H
  H136     1.0000 0.19480  0.52990  0.26820  Biso   1.000  H
  H137     1.0000 0.83390  0.01940  0.30460  Biso   1.000  H
  H138     1.0000 0.83390  0.48060  0.80460  Biso   1.000  H
  H139     1.0000 0.16610  0.98060  0.69540  Biso   1.000  H
  H140     1.0000 0.16610  0.51940  0.19540  Biso   1.000  H
  C153     1.0000 0.92770  0.60600  0.49530  Biso   1.000  C
  C154     1.0000 0.92770  0.89400  0.99530  Biso   1.000  C
  C155     1.0000 0.07230  0.39400  0.50470  Biso   1.000  C
  C156     1.0000 0.07230  0.10600  0.00470  Biso   1.000  C
  H141     1.0000 0.91400  0.56060  0.46680  Biso   1.000  H
  H142     1.0000 0.91400  0.93940  0.96680  Biso   1.000  H
  H143     1.0000 0.08600  0.43940  0.53320  Biso   1.000  H
  H144     1.0000 0.08600  0.06060  0.03320  Biso   1.000  H
  H145     1.0000 0.89690  0.62880  0.51410  Biso   1.000  H
  H146     1.0000 0.89690  0.87120  0.01410  Biso   1.000  H
  H147     1.0000 0.10310  0.37120  0.48590  Biso   1.000  H
  H148     1.0000 0.10310  0.12880  0.98590  Biso   1.000  H
  H149     1.0000 0.95660  0.58560  0.52930  Biso   1.000  H
  H150     1.0000 0.95660  0.91440  0.02930  Biso   1.000  H
  H151     1.0000 0.04340  0.41440  0.47070  Biso   1.000  H
  H152     1.0000 0.04340  0.08560  0.97070  Biso   1.000  H
  C157     1.0000 0.97890  0.75760  0.52010  Biso   1.000  C
  C158     1.0000 0.97890  0.74240  0.02010  Biso   1.000  C
  C159     1.0000 0.02110  0.24240  0.47990  Biso   1.000  C
  C160     1.0000 0.02110  0.25760  0.97990  Biso   1.000  C
  H153     1.0000 0.99380  0.80830  0.50470  Biso   1.000  H
  H154     1.0000 0.99380  0.69170  0.00470  Biso   1.000  H
  H155     1.0000 0.00620  0.19170  0.49530  Biso   1.000  H
  H156     1.0000 0.00620  0.30830  0.99530  Biso   1.000  H
  H157     1.0000 0.00770  0.73120  0.55110  Biso   1.000  H
  H158     1.0000 0.00770  0.76880  0.05110  Biso   1.000  H
  H159     1.0000 0.99230  0.26880  0.44890  Biso   1.000  H
  H160     1.0000 0.99230  0.23120  0.94890  Biso   1.000  H
  H161     1.0000 0.94660  0.77040  0.54040  Biso   1.000  H
  H162     1.0000 0.94660  0.72960  0.04040  Biso   1.000  H
  H163     1.0000 0.05340  0.22960  0.45960  Biso   1.000  H
  H164     1.0000 0.05340  0.27040  0.95960  Biso   1.000  H
  C161     1.0000 0.37940  0.88320  0.06590  Biso   1.000  C
  C162     1.0000 0.37940  0.61680  0.56590  Biso   1.000  C
  C163     1.0000 0.62060  0.11680  0.93410  Biso   1.000  C
  C164     1.0000 0.62060  0.38320  0.43410  Biso   1.000  C
  H165     1.0000 0.35170  0.88320  0.02630  Biso   1.000  H
  H166     1.0000 0.35170  0.61680  0.52630  Biso   1.000  H
  H167     1.0000 0.64830  0.11680  0.97370  Biso   1.000  H
  H168     1.0000 0.64830  0.38320  0.47370  Biso   1.000  H
  H169     1.0000 0.40490  0.83670  0.06260  Biso   1.000  H
  H170     1.0000 0.40490  0.66330  0.56260  Biso   1.000  H
  H171     1.0000 0.59510  0.16330  0.93740  Biso   1.000  H
  H172     1.0000 0.59510  0.33670  0.43740  Biso   1.000  H
  C165     1.0000 0.41770  0.97130  0.06580  Biso   1.000  C
  C166     1.0000 0.41770  0.52870  0.56580  Biso   1.000  C
  C167     1.0000 0.58230  0.02870  0.93420  Biso   1.000  C
  C168     1.0000 0.58230  0.47130  0.43420  Biso   1.000  C
  H173     1.0000 0.43510  0.97280  0.02740  Biso   1.000  H
  H174     1.0000 0.43510  0.52720  0.52740  Biso   1.000  H
  H175     1.0000 0.56490  0.02720  0.97260  Biso   1.000  H
  H176     1.0000 0.56490  0.47280  0.47260  Biso   1.000  H
  H177     1.0000 0.44660  0.97250  0.10360  Biso   1.000  H
  H178     1.0000 0.44660  0.52750  0.60360  Biso   1.000  H
  H179     1.0000 0.55340  0.02750  0.89640  Biso   1.000  H
  H180     1.0000 0.55340  0.47250  0.39640  Biso   1.000  H
  H181     1.0000 0.39320  0.01890  0.06620  Biso   1.000  H
  H182     1.0000 0.39320  0.48110  0.56620  Biso   1.000  H
  H183     1.0000 0.60680  0.98110  0.93380  Biso   1.000  H
  H184     1.0000 0.60680  0.51890  0.43380  Biso   1.000  H
  C169     1.0000 0.43490  0.59900  0.25050  Biso   1.000  C
  C170     1.0000 0.43490  0.90100  0.75050  Biso   1.000  C
  C171     1.0000 0.56510  0.40100  0.74950  Biso   1.000  C
  C172     1.0000 0.56510  0.09900  0.24950  Biso   1.000  C
  H185     1.0000 0.47020  0.62890  0.25430  Biso   1.000  H
  H186     1.0000 0.47020  0.87110  0.75430  Biso   1.000  H
  H187     1.0000 0.52980  0.37110  0.74570  Biso   1.000  H
  H188     1.0000 0.52980  0.12890  0.24570  Biso   1.000  H
  H189     1.0000 0.42520  0.57730  0.20710  Biso   1.000  H
  H190     1.0000 0.42520  0.92270  0.70710  Biso   1.000  H
  H191     1.0000 0.57480  0.42270  0.79290  Biso   1.000  H
  H192     1.0000 0.57480  0.07730  0.29290  Biso   1.000  H
  H193     1.0000 0.43880  0.55350  0.28100  Biso   1.000  H
  H194     1.0000 0.43880  0.94650  0.78100  Biso   1.000  H
  H195     1.0000 0.56120  0.44650  0.71900  Biso   1.000  H
  H196     1.0000 0.56120  0.05350  0.21900  Biso   1.000  H
  C173     1.0000 0.32770  0.58850  0.25800  Biso   1.000  C
  C174     1.0000 0.32770  0.91150  0.75800  Biso   1.000  C
  C175     1.0000 0.67230  0.41150  0.74200  Biso   1.000  C
  C176     1.0000 0.67230  0.08850  0.24200  Biso   1.000  C
  H197     1.0000 0.29270  0.61480  0.26390  Biso   1.000  H
  H198     1.0000 0.29270  0.88520  0.76390  Biso   1.000  H
  H199     1.0000 0.70730  0.38520  0.73610  Biso   1.000  H
  H200     1.0000 0.70730  0.11480  0.23610  Biso   1.000  H
  H201     1.0000 0.33720  0.54570  0.29020  Biso   1.000  H
  H202     1.0000 0.33720  0.95430  0.79020  Biso   1.000  H
  H203     1.0000 0.66280  0.45430  0.70980  Biso   1.000  H
  H204     1.0000 0.66280  0.04570  0.20980  Biso   1.000  H
  H205     1.0000 0.32340  0.56410  0.21540  Biso   1.000  H
  H206     1.0000 0.32340  0.93590  0.71540  Biso   1.000  H
  H207     1.0000 0.67660  0.43590  0.78460  Biso   1.000  H
  H208     1.0000 0.67660  0.06410  0.28460  Biso   1.000  H
  C177     1.0000 0.61340  0.73650  0.45940  Biso   1.000  C
  C178     1.0000 0.61340  0.76350  0.95940  Biso   1.000  C
  C179     1.0000 0.38660  0.26350  0.54060  Biso   1.000  C
  C180     1.0000 0.38660  0.23650  0.04060  Biso   1.000  C
  H209     1.0000 0.64350  0.77060  0.44830  Biso   1.000  H
  H210     1.0000 0.64350  0.72940  0.94830  Biso   1.000  H
  H211     1.0000 0.35650  0.22940  0.55170  Biso   1.000  H
  H212     1.0000 0.35650  0.27060  0.05170  Biso   1.000  H
  H213     1.0000 0.62170  0.67860  0.45310  Biso   1.000  H
  H214     1.0000 0.62170  0.82140  0.95310  Biso   1.000  H
  H215     1.0000 0.37830  0.32140  0.54690  Biso   1.000  H
  H216     1.0000 0.37830  0.17860  0.04690  Biso   1.000  H
  H217     1.0000 0.61000  0.74570  0.50410  Biso   1.000  H
  H218     1.0000 0.61000  0.75430  0.00410  Biso   1.000  H
  H219     1.0000 0.39000  0.25430  0.49590  Biso   1.000  H
  H220     1.0000 0.39000  0.24570  0.99590  Biso   1.000  H
  C181     1.0000 0.49480  0.69810  0.43400  Biso   1.000  C
  C182     1.0000 0.49480  0.80190  0.93400  Biso   1.000  C
  C183     1.0000 0.50520  0.30190  0.56600  Biso   1.000  C
  C184     1.0000 0.50520  0.19810  0.06600  Biso   1.000  C
  H221     1.0000 0.45860  0.70980  0.40810  Biso   1.000  H
  H222     1.0000 0.45860  0.79020  0.90810  Biso   1.000  H
  H223     1.0000 0.54140  0.29020  0.59190  Biso   1.000  H
  H224     1.0000 0.54140  0.20980  0.09190  Biso   1.000  H
  H225     1.0000 0.49300  0.70870  0.47890  Biso   1.000  H
  H226     1.0000 0.49300  0.79130  0.97890  Biso   1.000  H
  H227     1.0000 0.50700  0.29130  0.52110  Biso   1.000  H
  H228     1.0000 0.50700  0.20870  0.02110  Biso   1.000  H
  H229     1.0000 0.50450  0.64050  0.42860  Biso   1.000  H
  H230     1.0000 0.50450  0.85950  0.92860  Biso   1.000  H
  H231     1.0000 0.49550  0.35950  0.57140  Biso   1.000  H
  H232     1.0000 0.49550  0.14050  0.07140  Biso   1.000  H
  O37      1.0000 0.04440  0.99700  0.13490  Biso   1.000  O
  O38      1.0000 0.04440  0.50300  0.63490  Biso   1.000  O
  O39      1.0000 0.95560  0.00300  0.86510  Biso   1.000  O
  O40      1.0000 0.95560  0.49700  0.36510  Biso   1.000  O
  O41      1.0000 0.08150  0.88090  0.08810  Biso   1.000  O
  O42      1.0000 0.08150  0.61910  0.58810  Biso   1.000  O
  O43      1.0000 0.91850  0.11910  0.91190  Biso   1.000  O
  O44      1.0000 0.91850  0.38090  0.41190  Biso   1.000  O
  O45      1.0000 0.12820  0.93440  0.18530  Biso   1.000  O
  O46      1.0000 0.12820  0.56560  0.68530  Biso   1.000  O
  O47      1.0000 0.87180  0.06560  0.81470  Biso   1.000  O
  O48      1.0000 0.87180  0.43440  0.31470  Biso   1.000  O
  O49      1.0000 0.03780  0.86990  0.18200  Biso   1.000  O
  O50      1.0000 0.03780  0.63010  0.68200  Biso   1.000  O
  O51      1.0000 0.96220  0.13010  0.81800  Biso   1.000  O
  O52      1.0000 0.96220  0.36990  0.31800  Biso   1.000  O
  O53      1.0000 0.12020  0.25370  0.35320  Biso   1.000  O
  O54      1.0000 0.12020  0.24630  0.85320  Biso   1.000  O
  O55      1.0000 0.87980  0.74630  0.64680  Biso   1.000  O
  O56      1.0000 0.87980  0.75370  0.14680  Biso   1.000  O
  O57      1.0000 0.21670  0.24020  0.38910  Biso   1.000  O
  O58      1.0000 0.21670  0.25980  0.88910  Biso   1.000  O
  O59      1.0000 0.78330  0.75980  0.61090  Biso   1.000  O
  O60      1.0000 0.78330  0.74020  0.11090  Biso   1.000  O
  O61      1.0000 0.15980  0.22840  0.46410  Biso   1.000  O
  O62      1.0000 0.15980  0.27160  0.96410  Biso   1.000  O
  O63      1.0000 0.84020  0.77160  0.53590  Biso   1.000  O
  O64      1.0000 0.84020  0.72840  0.03590  Biso   1.000  O
  O65      1.0000 0.17750  0.35970  0.41860  Biso   1.000  O
  O66      1.0000 0.17750  0.14030  0.91860  Biso   1.000  O
  O67      1.0000 0.82250  0.64030  0.58140  Biso   1.000  O
  O68      1.0000 0.82250  0.85970  0.08140  Biso   1.000  O
  O69      1.0000 0.53790  0.89290  0.07780  Biso   1.000  O
  O70      1.0000 0.53790  0.60710  0.57780  Biso   1.000  O
  O71      1.0000 0.46210  0.10710  0.92220  Biso   1.000  O
  O72      1.0000 0.46210  0.39290  0.42220  Biso   1.000  O
  O73      1.0000 0.63170  0.90870  0.08010  Biso   1.000  O
  O74      1.0000 0.63170  0.59130  0.58010  Biso   1.000  O
  O75      1.0000 0.36830  0.09130  0.91990  Biso   1.000  O
  O76      1.0000 0.36830  0.40870  0.41990  Biso   1.000  O
  O77      1.0000 0.59430  0.93230  0.17500  Biso   1.000  O
  O78      1.0000 0.59430  0.56770  0.67500  Biso   1.000  O
  O79      1.0000 0.40570  0.06770  0.82500  Biso   1.000  O
  O80      1.0000 0.40570  0.43230  0.32500  Biso   1.000  O
  O81      1.0000 0.57990  0.02530  0.09200  Biso   1.000  O
  O82      1.0000 0.57990  0.47470  0.59200  Biso   1.000  O
  O83      1.0000 0.42010  0.97470  0.90800  Biso   1.000  O
  O84      1.0000 0.42010  0.52530  0.40800  Biso   1.000  O
  O85      1.0000 0.38430  0.86100  0.44040  Biso   1.000  O
  O86      1.0000 0.38430  0.63900  0.94040  Biso   1.000  O
  O87      1.0000 0.61570  0.13900  0.55960  Biso   1.000  O
  O88      1.0000 0.61570  0.36100  0.05960  Biso   1.000  O
  O89      1.0000 0.29020  0.83080  0.44940  Biso   1.000  O
  O90      1.0000 0.29020  0.66920  0.94940  Biso   1.000  O
  O91      1.0000 0.70980  0.16920  0.55060  Biso   1.000  O
  O92      1.0000 0.70980  0.33080  0.05060  Biso   1.000  O
  O93      1.0000 0.35250  0.73520  0.42570  Biso   1.000  O
  O94      1.0000 0.35250  0.76480  0.92570  Biso   1.000  O
  O95      1.0000 0.64750  0.26480  0.57430  Biso   1.000  O
  O96      1.0000 0.64750  0.23520  0.07430  Biso   1.000  O
  O97      1.0000 0.36160  0.79130  0.52070  Biso   1.000  O
  O98      1.0000 0.36160  0.70870  0.02070  Biso   1.000  O
  O99      1.0000 0.63840  0.20870  0.47930  Biso   1.000  O
  O100     1.0000 0.63840  0.29130  0.97930  Biso   1.000  O
  O101     1.0000 0.87830  0.86170  0.30920  Biso   1.000  O
  O102     1.0000 0.87830  0.63830  0.80920  Biso   1.000  O
  O103     1.0000 0.12170  0.13830  0.69080  Biso   1.000  O
  O104     1.0000 0.12170  0.36170  0.19080  Biso   1.000  O
  O105     1.0000 0.90150  0.72410  0.41290  Biso   1.000  O
  O106     1.0000 0.90150  0.77590  0.91290  Biso   1.000  O
  O107     1.0000 0.09850  0.27590  0.58710  Biso   1.000  O
  O108     1.0000 0.09850  0.22410  0.08710  Biso   1.000  O
  O109     1.0000 0.35260  0.86640  0.11260  Biso   1.000  O
  O110     1.0000 0.35260  0.63360  0.61260  Biso   1.000  O
  O111     1.0000 0.64740  0.13360  0.88740  Biso   1.000  O
  O112     1.0000 0.64740  0.36640  0.38740  Biso   1.000  O
  O113     1.0000 0.36990  0.71990  0.20590  Biso   1.000  O
  O114     1.0000 0.36990  0.78010  0.70590  Biso   1.000  O
  O115     1.0000 0.63010  0.28010  0.79410  Biso   1.000  O
  O116     1.0000 0.63010  0.21990  0.29410  Biso   1.000  O
  O117     1.0000 0.55060  0.73070  0.34170  Biso   1.000  O
  O118     1.0000 0.55060  0.76930  0.84170  Biso   1.000  O
  O119     1.0000 0.44940  0.26930  0.65830  Biso   1.000  O
  O120     1.0000 0.44940  0.23070  0.15830  Biso   1.000  O
  O121     1.0000 0.71270  0.84400  0.18310  Biso   1.000  O
  O122     1.0000 0.71270  0.65600  0.68310  Biso   1.000  O
  O123     1.0000 0.28730  0.15600  0.81690  Biso   1.000  O
  O124     1.0000 0.28730  0.34400  0.31690  Biso   1.000  O
  H233     1.0000 0.75020  0.83000  0.17580  Biso   1.000  H
  H234     1.0000 0.75020  0.67000  0.67580  Biso   1.000  H
  H235     1.0000 0.24980  0.17000  0.82420  Biso   1.000  H
  H236     1.0000 0.24980  0.33000  0.32420  Biso   1.000  H
  H237     1.0000 0.68650  0.83850  0.14320  Biso   1.000  H
  H238     1.0000 0.68650  0.66150  0.64320  Biso   1.000  H
  H239     1.0000 0.31350  0.16150  0.85680  Biso   1.000  H
  H240     1.0000 0.31350  0.33850  0.35680  Biso   1.000  H
  O125     1.0000 0.62250  0.60500  0.31920  Biso   1.000  O
  O126     1.0000 0.62250  0.89500  0.81920  Biso   1.000  O
  O127     1.0000 0.37750  0.39500  0.68080  Biso   1.000  O
  O128     1.0000 0.37750  0.10500  0.18080  Biso   1.000  O
  O129     1.0000 0.23170  0.03800  0.06430  Biso   1.000  O
  O130     1.0000 0.23170  0.46200  0.56430  Biso   1.000  O
  O131     1.0000 0.76830  0.96200  0.93570  Biso   1.000  O
  O132     1.0000 0.76830  0.53800  0.43570  Biso   1.000  O
  S17      1.0000 0.11170  0.64800  0.41740  Biso   1.000  S
  S18      1.0000 0.11170  0.85200  0.91740  Biso   1.000  S
  S19      1.0000 0.88830  0.35200  0.58260  Biso   1.000  S
  S20      1.0000 0.88830  0.14800  0.08260  Biso   1.000  S
  O133     1.0000 0.11380  0.66810  0.34960  Biso   1.000  O
  O134     1.0000 0.11380  0.83190  0.84960  Biso   1.000  O
  O135     1.0000 0.88620  0.33190  0.65040  Biso   1.000  O
  O136     1.0000 0.88620  0.16810  0.15040  Biso   1.000  O
  C185     1.0000 0.14270  0.70930  0.46760  Biso   1.000  C
  C186     1.0000 0.14270  0.79070  0.96760  Biso   1.000  C
  C187     1.0000 0.85730  0.29070  0.53240  Biso   1.000  C
  C188     1.0000 0.85730  0.20930  0.03240  Biso   1.000  C
  H241     1.0000 0.18290  0.70280  0.47020  Biso   1.000  H
  H242     1.0000 0.18290  0.79720  0.97020  Biso   1.000  H
  H243     1.0000 0.81710  0.29720  0.52980  Biso   1.000  H
  H244     1.0000 0.81710  0.20280  0.02980  Biso   1.000  H
  H245     1.0000 0.13230  0.69810  0.50940  Biso   1.000  H
  H246     1.0000 0.13230  0.80190  0.00940  Biso   1.000  H
  H247     1.0000 0.86770  0.30190  0.49060  Biso   1.000  H
  H248     1.0000 0.86770  0.19810  0.99060  Biso   1.000  H
  H249     1.0000 0.13210  0.76560  0.45480  Biso   1.000  H
  H250     1.0000 0.13210  0.73440  0.95480  Biso   1.000  H
  H251     1.0000 0.86790  0.23440  0.54520  Biso   1.000  H
  H252     1.0000 0.86790  0.26560  0.04520  Biso   1.000  H
  C189     1.0000 0.11430  0.54570  0.43280  Biso   1.000  C
  C190     1.0000 0.11430  0.95430  0.93280  Biso   1.000  C
  C191     1.0000 0.88570  0.45430  0.56720  Biso   1.000  C
  C192     1.0000 0.88570  0.04570  0.06720  Biso   1.000  C
  H253     1.0000 0.11740  0.51570  0.39370  Biso   1.000  H
  H254     1.0000 0.11740  0.98430  0.89370  Biso   1.000  H
  H255     1.0000 0.88260  0.48430  0.60630  Biso   1.000  H
  H256     1.0000 0.88260  0.01570  0.10630  Biso   1.000  H
  H257     1.0000 0.08030  0.52890  0.44830  Biso   1.000  H
  H258     1.0000 0.08030  0.97110  0.94830  Biso   1.000  H
  H259     1.0000 0.91970  0.47110  0.55170  Biso   1.000  H
  H260     1.0000 0.91970  0.02890  0.05170  Biso   1.000  H
  H261     1.0000 0.14670  0.53360  0.46530  Biso   1.000  H
  H262     1.0000 0.14670  0.96640  0.96530  Biso   1.000  H
  H263     1.0000 0.85330  0.46640  0.53470  Biso   1.000  H
  H264     1.0000 0.85330  0.03360  0.03470  Biso   1.000  H
