data_image0
_cell_length_a       32.634
_cell_length_b       30.916
_cell_length_c       39.284
_cell_angle_alpha    90
_cell_angle_beta     109.93
_cell_angle_gamma    90

_symmetry_space_group_name_H-M    "P 1"
_symmetry_int_tables_number       1

loop_
  _symmetry_equiv_pos_as_xyz
  'x, y, z'

loop_
  _atom_site_label
  _atom_site_occupancy
  _atom_site_fract_x
  _atom_site_fract_y
  _atom_site_fract_z
  _atom_site_thermal_displace_type
  _atom_site_B_iso_or_equiv
  _atom_site_type_symbol
  Cu1      1.0000 0.78830  0.26072  0.27265  Biso   1.000  Cu
  Cu2      1.0000 0.21170  0.26072  0.22735  Biso   1.000  Cu
  Cu3      1.0000 0.28830  0.76072  0.27265  Biso   1.000  Cu
  Cu4      1.0000 0.71170  0.76072  0.22735  Biso   1.000  Cu
  Cu5      1.0000 0.21170  0.73928  0.72735  Biso   1.000  Cu
  Cu6      1.0000 0.78830  0.73928  0.77265  Biso   1.000  Cu
  Cu7      1.0000 0.71170  0.23928  0.72735  Biso   1.000  Cu
  Cu8      1.0000 0.28830  0.23928  0.77265  Biso   1.000  Cu
  Cu9      1.0000 0.25079  0.94184  0.37560  Biso   1.000  Cu
  Cu10     1.0000 0.74921  0.94184  0.12440  Biso   1.000  Cu
  Cu11     1.0000 0.75079  0.44184  0.37560  Biso   1.000  Cu
  Cu12     1.0000 0.24921  0.44184  0.12440  Biso   1.000  Cu
  Cu13     1.0000 0.74921  0.05816  0.62440  Biso   1.000  Cu
  Cu14     1.0000 0.25079  0.05816  0.87560  Biso   1.000  Cu
  Cu15     1.0000 0.24921  0.55816  0.62440  Biso   1.000  Cu
  Cu16     1.0000 0.75079  0.55816  0.87560  Biso   1.000  Cu
  Cu17     1.0000 0.24732  0.02659  0.37749  Biso   1.000  Cu
  Cu18     1.0000 0.75268  0.02659  0.12251  Biso   1.000  Cu
  Cu19     1.0000 0.74732  0.52659  0.37749  Biso   1.000  Cu
  Cu20     1.0000 0.25268  0.52659  0.12251  Biso   1.000  Cu
  Cu21     1.0000 0.75268  0.97341  0.62251  Biso   1.000  Cu
  Cu22     1.0000 0.24732  0.97341  0.87749  Biso   1.000  Cu
  Cu23     1.0000 0.25268  0.47341  0.62251  Biso   1.000  Cu
  Cu24     1.0000 0.74732  0.47341  0.87749  Biso   1.000  Cu
  Cu25     1.0000 0.73925  0.23532  0.20787  Biso   1.000  Cu
  Cu26     1.0000 0.26075  0.23532  0.29213  Biso   1.000  Cu
  Cu27     1.0000 0.23925  0.73532  0.20787  Biso   1.000  Cu
  Cu28     1.0000 0.76075  0.73532  0.29213  Biso   1.000  Cu
  Cu29     1.0000 0.26075  0.76468  0.79213  Biso   1.000  Cu
  Cu30     1.0000 0.73925  0.76468  0.70787  Biso   1.000  Cu
  Cu31     1.0000 0.76075  0.26468  0.79213  Biso   1.000  Cu
  Cu32     1.0000 0.23925  0.26468  0.70787  Biso   1.000  Cu
  Cu33     1.0000 0.77404  0.76272  0.53253  Biso   1.000  Cu
  Cu34     1.0000 0.22596  0.76272  0.96747  Biso   1.000  Cu
  Cu35     1.0000 0.27404  0.26272  0.53253  Biso   1.000  Cu
  Cu36     1.0000 0.72596  0.26272  0.96747  Biso   1.000  Cu
  Cu37     1.0000 0.22596  0.23728  0.46747  Biso   1.000  Cu
  Cu38     1.0000 0.77404  0.23728  0.03253  Biso   1.000  Cu
  Cu39     1.0000 0.72596  0.73728  0.46747  Biso   1.000  Cu
  Cu40     1.0000 0.27404  0.73728  0.03253  Biso   1.000  Cu
  Cu41     1.0000 0.72515  0.26444  0.46836  Biso   1.000  Cu
  Cu42     1.0000 0.27485  0.26444  0.03164  Biso   1.000  Cu
  Cu43     1.0000 0.22515  0.76444  0.46836  Biso   1.000  Cu
  Cu44     1.0000 0.77485  0.76444  0.03164  Biso   1.000  Cu
  Cu45     1.0000 0.27485  0.73556  0.53164  Biso   1.000  Cu
  Cu46     1.0000 0.72515  0.73556  0.96836  Biso   1.000  Cu
  Cu47     1.0000 0.77485  0.23556  0.53164  Biso   1.000  Cu
  Cu48     1.0000 0.22515  0.23556  0.96836  Biso   1.000  Cu
  O1       1.0000 0.25248  0.01688  0.42787  Biso   1.000  O
  O2       1.0000 0.74752  0.01688  0.07213  Biso   1.000  O
  O3       1.0000 0.75248  0.51688  0.42787  Biso   1.000  O
  O4       1.0000 0.24752  0.51688  0.07213  Biso   1.000  O
  O5       1.0000 0.74752  0.98312  0.57213  Biso   1.000  O
  O6       1.0000 0.25248  0.98312  0.92787  Biso   1.000  O
  O7       1.0000 0.24752  0.48312  0.57213  Biso   1.000  O
  O8       1.0000 0.75248  0.48312  0.92787  Biso   1.000  O
  O9       1.0000 0.18460  0.01719  0.36282  Biso   1.000  O
  O10      1.0000 0.81540  0.01719  0.13718  Biso   1.000  O
  O11      1.0000 0.68460  0.51719  0.36282  Biso   1.000  O
  O12      1.0000 0.31540  0.51719  0.13718  Biso   1.000  O
  O13      1.0000 0.81540  0.98281  0.63718  Biso   1.000  O
  O14      1.0000 0.18460  0.98281  0.86282  Biso   1.000  O
  O15      1.0000 0.31540  0.48281  0.63718  Biso   1.000  O
  O16      1.0000 0.68460  0.48281  0.86282  Biso   1.000  O
  O17      1.0000 0.31081  0.02414  0.39173  Biso   1.000  O
  O18      1.0000 0.68919  0.02414  0.10827  Biso   1.000  O
  O19      1.0000 0.81081  0.52414  0.39173  Biso   1.000  O
  O20      1.0000 0.18919  0.52414  0.10827  Biso   1.000  O
  O21      1.0000 0.68919  0.97586  0.60827  Biso   1.000  O
  O22      1.0000 0.31081  0.97586  0.89173  Biso   1.000  O
  O23      1.0000 0.18919  0.47586  0.60827  Biso   1.000  O
  O24      1.0000 0.81081  0.47586  0.89173  Biso   1.000  O
  O25      1.0000 0.24264  0.02300  0.32684  Biso   1.000  O
  O26      1.0000 0.75736  0.02300  0.17316  Biso   1.000  O
  O27      1.0000 0.74264  0.52300  0.32684  Biso   1.000  O
  O28      1.0000 0.25736  0.52300  0.17316  Biso   1.000  O
  O29      1.0000 0.75736  0.97700  0.67316  Biso   1.000  O
  O30      1.0000 0.24264  0.97700  0.82684  Biso   1.000  O
  O31      1.0000 0.25736  0.47700  0.67316  Biso   1.000  O
  O32      1.0000 0.74264  0.47700  0.82684  Biso   1.000  O
  O33      1.0000 0.78440  0.19253  0.20973  Biso   1.000  O
  O34      1.0000 0.21560  0.19253  0.29027  Biso   1.000  O
  O35      1.0000 0.28440  0.69253  0.20973  Biso   1.000  O
  O36      1.0000 0.71560  0.69253  0.29027  Biso   1.000  O
  O37      1.0000 0.21560  0.80747  0.79027  Biso   1.000  O
  O38      1.0000 0.78440  0.80747  0.70973  Biso   1.000  O
  O39      1.0000 0.71560  0.30747  0.79027  Biso   1.000  O
  O40      1.0000 0.28440  0.30747  0.70973  Biso   1.000  O
  O41      1.0000 0.31419  0.95228  0.39329  Biso   1.000  O
  O42      1.0000 0.68581  0.95228  0.10671  Biso   1.000  O
  O43      1.0000 0.81419  0.45228  0.39329  Biso   1.000  O
  O44      1.0000 0.18581  0.45228  0.10671  Biso   1.000  O
  O45      1.0000 0.68581  0.04772  0.60671  Biso   1.000  O
  O46      1.0000 0.31419  0.04772  0.89329  Biso   1.000  O
  O47      1.0000 0.18581  0.54772  0.60671  Biso   1.000  O
  O48      1.0000 0.81419  0.54772  0.89329  Biso   1.000  O
  O49      1.0000 0.24980  0.95105  0.32572  Biso   1.000  O
  O50      1.0000 0.75020  0.95105  0.17428  Biso   1.000  O
  O51      1.0000 0.74980  0.45105  0.32572  Biso   1.000  O
  O52      1.0000 0.25020  0.45105  0.17428  Biso   1.000  O
  O53      1.0000 0.75020  0.04895  0.67428  Biso   1.000  O
  O54      1.0000 0.24980  0.04895  0.82572  Biso   1.000  O
  O55      1.0000 0.25020  0.54895  0.67428  Biso   1.000  O
  O56      1.0000 0.74980  0.54895  0.82572  Biso   1.000  O
  O57      1.0000 0.82407  0.21175  0.26604  Biso   1.000  O
  O58      1.0000 0.17593  0.21175  0.23396  Biso   1.000  O
  O59      1.0000 0.32407  0.71175  0.26604  Biso   1.000  O
  O60      1.0000 0.67593  0.71175  0.23396  Biso   1.000  O
  O61      1.0000 0.17593  0.78825  0.73396  Biso   1.000  O
  O62      1.0000 0.82407  0.78825  0.76604  Biso   1.000  O
  O63      1.0000 0.67593  0.28825  0.73396  Biso   1.000  O
  O64      1.0000 0.32407  0.28825  0.76604  Biso   1.000  O
  O65      1.0000 0.25122  0.94478  0.42621  Biso   1.000  O
  O66      1.0000 0.74878  0.94478  0.07379  Biso   1.000  O
  O67      1.0000 0.75122  0.44478  0.42621  Biso   1.000  O
  O68      1.0000 0.24878  0.44478  0.07379  Biso   1.000  O
  O69      1.0000 0.74878  0.05522  0.57379  Biso   1.000  O
  O70      1.0000 0.25122  0.05522  0.92621  Biso   1.000  O
  O71      1.0000 0.24878  0.55522  0.57379  Biso   1.000  O
  O72      1.0000 0.75122  0.55522  0.92621  Biso   1.000  O
  O73      1.0000 0.72999  0.80712  0.52845  Biso   1.000  O
  O74      1.0000 0.27001  0.80712  0.97155  Biso   1.000  O
  O75      1.0000 0.22999  0.30712  0.52845  Biso   1.000  O
  O76      1.0000 0.77001  0.30712  0.97155  Biso   1.000  O
  O77      1.0000 0.27001  0.19288  0.47155  Biso   1.000  O
  O78      1.0000 0.72999  0.19288  0.02845  Biso   1.000  O
  O79      1.0000 0.77001  0.69288  0.47155  Biso   1.000  O
  O80      1.0000 0.22999  0.69288  0.02845  Biso   1.000  O
  O81      1.0000 0.81281  0.77392  0.58854  Biso   1.000  O
  O82      1.0000 0.18719  0.77392  0.91146  Biso   1.000  O
  O83      1.0000 0.31281  0.27392  0.58854  Biso   1.000  O
  O84      1.0000 0.68719  0.27392  0.91146  Biso   1.000  O
  O85      1.0000 0.18719  0.22608  0.41146  Biso   1.000  O
  O86      1.0000 0.81281  0.22608  0.08854  Biso   1.000  O
  O87      1.0000 0.68719  0.72608  0.41146  Biso   1.000  O
  O88      1.0000 0.31281  0.72608  0.08854  Biso   1.000  O
  O89      1.0000 0.18610  0.94488  0.35764  Biso   1.000  O
  O90      1.0000 0.81390  0.94488  0.14236  Biso   1.000  O
  O91      1.0000 0.68610  0.44488  0.35764  Biso   1.000  O
  O92      1.0000 0.31390  0.44488  0.14236  Biso   1.000  O
  O93      1.0000 0.81390  0.05512  0.64236  Biso   1.000  O
  O94      1.0000 0.18610  0.05512  0.85764  Biso   1.000  O
  O95      1.0000 0.31390  0.55512  0.64236  Biso   1.000  O
  O96      1.0000 0.68610  0.55512  0.85764  Biso   1.000  O
  O97      1.0000 0.68289  0.22089  0.47207  Biso   1.000  O
  O98      1.0000 0.31711  0.22089  0.02793  Biso   1.000  O
  O99      1.0000 0.18289  0.72089  0.47207  Biso   1.000  O
  O100     1.0000 0.81711  0.72089  0.02793  Biso   1.000  O
  O101     1.0000 0.31711  0.77911  0.52793  Biso   1.000  O
  O102     1.0000 0.68289  0.77911  0.97207  Biso   1.000  O
  O103     1.0000 0.81711  0.27911  0.52793  Biso   1.000  O
  O104     1.0000 0.18289  0.27911  0.97207  Biso   1.000  O
  O105     1.0000 0.70109  0.22191  0.15298  Biso   1.000  O
  O106     1.0000 0.29891  0.22191  0.34702  Biso   1.000  O
  O107     1.0000 0.20109  0.72191  0.15298  Biso   1.000  O
  O108     1.0000 0.79891  0.72191  0.34702  Biso   1.000  O
  O109     1.0000 0.29891  0.77809  0.84702  Biso   1.000  O
  O110     1.0000 0.70109  0.77809  0.65298  Biso   1.000  O
  O111     1.0000 0.79891  0.27809  0.84702  Biso   1.000  O
  O112     1.0000 0.20109  0.27809  0.65298  Biso   1.000  O
  O113     1.0000 0.25528  0.87299  0.37442  Biso   1.000  O
  O114     1.0000 0.74472  0.87299  0.12558  Biso   1.000  O
  O115     1.0000 0.75528  0.37299  0.37442  Biso   1.000  O
  O116     1.0000 0.24472  0.37299  0.12558  Biso   1.000  O
  O117     1.0000 0.74472  0.12701  0.62558  Biso   1.000  O
  O118     1.0000 0.25528  0.12701  0.87442  Biso   1.000  O
  O119     1.0000 0.24472  0.62701  0.62558  Biso   1.000  O
  O120     1.0000 0.75528  0.62701  0.87442  Biso   1.000  O
  C1       1.0000 0.33140  0.98878  0.39780  Biso   1.000  C
  C2       1.0000 0.66860  0.98878  0.10220  Biso   1.000  C
  C3       1.0000 0.83140  0.48878  0.39780  Biso   1.000  C
  C4       1.0000 0.16860  0.48878  0.10220  Biso   1.000  C
  C5       1.0000 0.66860  0.01122  0.60220  Biso   1.000  C
  C6       1.0000 0.33140  0.01122  0.89780  Biso   1.000  C
  C7       1.0000 0.16860  0.51122  0.60220  Biso   1.000  C
  C8       1.0000 0.83140  0.51122  0.89780  Biso   1.000  C
  C9       1.0000 0.16643  0.98056  0.35456  Biso   1.000  C
  C10      1.0000 0.83357  0.98056  0.14544  Biso   1.000  C
  C11      1.0000 0.66643  0.48056  0.35456  Biso   1.000  C
  C12      1.0000 0.33357  0.48056  0.14544  Biso   1.000  C
  C13      1.0000 0.83357  0.01944  0.64544  Biso   1.000  C
  C14      1.0000 0.16643  0.01944  0.85456  Biso   1.000  C
  C15      1.0000 0.33357  0.51944  0.64544  Biso   1.000  C
  C16      1.0000 0.66643  0.51944  0.85456  Biso   1.000  C
  O121     1.0000 0.68291  0.29528  0.41979  Biso   1.000  O
  O122     1.0000 0.31709  0.29528  0.08021  Biso   1.000  O
  O123     1.0000 0.18291  0.79528  0.41979  Biso   1.000  O
  O124     1.0000 0.81709  0.79528  0.08021  Biso   1.000  O
  O125     1.0000 0.31709  0.70472  0.58021  Biso   1.000  O
  O126     1.0000 0.68291  0.70472  0.91979  Biso   1.000  O
  O127     1.0000 0.81709  0.20472  0.58021  Biso   1.000  O
  O128     1.0000 0.18291  0.20472  0.91979  Biso   1.000  O
  C17      1.0000 0.24442  0.98788  0.31097  Biso   1.000  C
  C18      1.0000 0.75558  0.98788  0.18903  Biso   1.000  C
  C19      1.0000 0.74442  0.48788  0.31097  Biso   1.000  C
  C20      1.0000 0.25558  0.48788  0.18903  Biso   1.000  C
  C21      1.0000 0.75558  0.01212  0.68903  Biso   1.000  C
  C22      1.0000 0.24442  0.01212  0.81097  Biso   1.000  C
  C23      1.0000 0.25558  0.51212  0.68903  Biso   1.000  C
  C24      1.0000 0.74442  0.51212  0.81097  Biso   1.000  C
  C25      1.0000 0.37995  0.99174  0.41166  Biso   1.000  C
  C26      1.0000 0.62005  0.99174  0.08834  Biso   1.000  C
  C27      1.0000 0.87995  0.49174  0.41166  Biso   1.000  C
  C28      1.0000 0.12005  0.49174  0.08834  Biso   1.000  C
  C29      1.0000 0.62005  0.00826  0.58834  Biso   1.000  C
  C30      1.0000 0.37995  0.00826  0.91166  Biso   1.000  C
  C31      1.0000 0.12005  0.50826  0.58834  Biso   1.000  C
  C32      1.0000 0.87995  0.50826  0.91166  Biso   1.000  C
  C33      1.0000 0.11791  0.98064  0.33973  Biso   1.000  C
  C34      1.0000 0.88209  0.98064  0.16027  Biso   1.000  C
  C35      1.0000 0.61791  0.48064  0.33973  Biso   1.000  C
  C36      1.0000 0.38209  0.48064  0.16027  Biso   1.000  C
  C37      1.0000 0.88209  0.01936  0.66027  Biso   1.000  C
  C38      1.0000 0.11791  0.01936  0.83973  Biso   1.000  C
  C39      1.0000 0.38209  0.51936  0.66027  Biso   1.000  C
  C40      1.0000 0.61791  0.51936  0.83973  Biso   1.000  C
  C41      1.0000 0.91328  0.02797  0.26167  Biso   1.000  C
  C42      1.0000 0.08672  0.02797  0.23833  Biso   1.000  C
  C43      1.0000 0.41328  0.52797  0.26167  Biso   1.000  C
  C44      1.0000 0.58672  0.52797  0.23833  Biso   1.000  C
  C45      1.0000 0.08672  0.97203  0.73833  Biso   1.000  C
  C46      1.0000 0.91328  0.97203  0.76167  Biso   1.000  C
  C47      1.0000 0.58672  0.47203  0.73833  Biso   1.000  C
  C48      1.0000 0.41328  0.47203  0.76167  Biso   1.000  C
  C49      1.0000 0.95270  0.94819  0.28651  Biso   1.000  C
  C50      1.0000 0.04730  0.94819  0.21349  Biso   1.000  C
  C51      1.0000 0.45270  0.44819  0.28651  Biso   1.000  C
  C52      1.0000 0.54730  0.44819  0.21349  Biso   1.000  C
  C53      1.0000 0.04730  0.05181  0.71349  Biso   1.000  C
  C54      1.0000 0.95270  0.05181  0.78651  Biso   1.000  C
  C55      1.0000 0.54730  0.55181  0.71349  Biso   1.000  C
  C56      1.0000 0.45270  0.55181  0.78651  Biso   1.000  C
  C57      1.0000 0.90764  0.95077  0.26940  Biso   1.000  C
  C58      1.0000 0.09236  0.95077  0.23060  Biso   1.000  C
  C59      1.0000 0.40764  0.45077  0.26940  Biso   1.000  C
  C60      1.0000 0.59236  0.45077  0.23060  Biso   1.000  C
  C61      1.0000 0.09236  0.04923  0.73060  Biso   1.000  C
  C62      1.0000 0.90764  0.04923  0.76940  Biso   1.000  C
  C63      1.0000 0.59236  0.54923  0.73060  Biso   1.000  C
  C64      1.0000 0.40764  0.54923  0.76940  Biso   1.000  C
  C65      1.0000 0.88788  0.99079  0.25622  Biso   1.000  C
  C66      1.0000 0.11212  0.99079  0.24378  Biso   1.000  C
  C67      1.0000 0.38788  0.49079  0.25622  Biso   1.000  C
  C68      1.0000 0.61212  0.49079  0.24378  Biso   1.000  C
  C69      1.0000 0.11212  0.00921  0.74378  Biso   1.000  C
  C70      1.0000 0.88788  0.00921  0.75622  Biso   1.000  C
  C71      1.0000 0.61212  0.50921  0.74378  Biso   1.000  C
  C72      1.0000 0.38788  0.50921  0.75622  Biso   1.000  C
  C73      1.0000 0.95815  0.02507  0.27795  Biso   1.000  C
  C74      1.0000 0.04185  0.02507  0.22205  Biso   1.000  C
  C75      1.0000 0.45815  0.52507  0.27795  Biso   1.000  C
  C76      1.0000 0.54185  0.52507  0.22205  Biso   1.000  C
  C77      1.0000 0.04185  0.97493  0.72205  Biso   1.000  C
  C78      1.0000 0.95815  0.97493  0.77795  Biso   1.000  C
  C79      1.0000 0.54185  0.47493  0.72205  Biso   1.000  C
  C80      1.0000 0.45815  0.47493  0.77795  Biso   1.000  C
  C81      1.0000 0.23696  0.99041  0.27141  Biso   1.000  C
  C82      1.0000 0.76304  0.99041  0.22859  Biso   1.000  C
  C83      1.0000 0.73696  0.49041  0.27141  Biso   1.000  C
  C84      1.0000 0.26304  0.49041  0.22859  Biso   1.000  C
  C85      1.0000 0.76304  0.00959  0.72859  Biso   1.000  C
  C86      1.0000 0.23696  0.00959  0.77141  Biso   1.000  C
  C87      1.0000 0.26304  0.50959  0.72859  Biso   1.000  C
  C88      1.0000 0.73696  0.50959  0.77141  Biso   1.000  C
  C89      1.0000 0.97835  0.98526  0.29074  Biso   1.000  C
  C90      1.0000 0.02165  0.98526  0.20926  Biso   1.000  C
  C91      1.0000 0.47835  0.48526  0.29074  Biso   1.000  C
  C92      1.0000 0.52165  0.48526  0.20926  Biso   1.000  C
  C93      1.0000 0.02165  0.01474  0.70926  Biso   1.000  C
  C94      1.0000 0.97835  0.01474  0.79074  Biso   1.000  C
  C95      1.0000 0.52165  0.51474  0.70926  Biso   1.000  C
  C96      1.0000 0.47835  0.51474  0.79074  Biso   1.000  C
  C97      1.0000 0.25454  0.98059  0.44284  Biso   1.000  C
  C98      1.0000 0.74546  0.98059  0.05716  Biso   1.000  C
  C99      1.0000 0.75454  0.48059  0.44284  Biso   1.000  C
  C100     1.0000 0.24546  0.48059  0.05716  Biso   1.000  C
  C101     1.0000 0.74546  0.01941  0.55716  Biso   1.000  C
  C102     1.0000 0.25454  0.01941  0.94284  Biso   1.000  C
  C103     1.0000 0.24546  0.51941  0.55716  Biso   1.000  C
  C104     1.0000 0.75454  0.51941  0.94284  Biso   1.000  C
  C105     1.0000 0.26317  0.98071  0.48176  Biso   1.000  C
  C106     1.0000 0.73683  0.98071  0.01824  Biso   1.000  C
  C107     1.0000 0.76317  0.48071  0.48176  Biso   1.000  C
  C108     1.0000 0.23683  0.48071  0.01824  Biso   1.000  C
  C109     1.0000 0.73683  0.01929  0.51824  Biso   1.000  C
  C110     1.0000 0.26317  0.01929  0.98176  Biso   1.000  C
  C111     1.0000 0.23683  0.51929  0.51824  Biso   1.000  C
  C112     1.0000 0.76317  0.51929  0.98176  Biso   1.000  C
  C113     1.0000 0.83401  0.11686  0.21564  Biso   1.000  C
  C114     1.0000 0.16599  0.11686  0.28436  Biso   1.000  C
  C115     1.0000 0.33401  0.61686  0.21564  Biso   1.000  C
  C116     1.0000 0.66599  0.61686  0.28436  Biso   1.000  C
  C117     1.0000 0.16599  0.88314  0.78436  Biso   1.000  C
  C118     1.0000 0.83401  0.88314  0.71564  Biso   1.000  C
  C119     1.0000 0.66599  0.38314  0.78436  Biso   1.000  C
  C120     1.0000 0.33401  0.38314  0.71564  Biso   1.000  C
  H1       1.0000 0.81130  0.12150  0.19400  Biso   1.000  H
  H2       1.0000 0.18870  0.12150  0.30600  Biso   1.000  H
  H3       1.0000 0.31130  0.62150  0.19400  Biso   1.000  H
  H4       1.0000 0.68870  0.62150  0.30600  Biso   1.000  H
  H5       1.0000 0.18870  0.87850  0.80600  Biso   1.000  H
  H6       1.0000 0.81130  0.87850  0.69400  Biso   1.000  H
  H7       1.0000 0.68870  0.37850  0.80600  Biso   1.000  H
  H8       1.0000 0.31130  0.37850  0.69400  Biso   1.000  H
  C121     1.0000 0.61025  0.00392  0.48954  Biso   1.000  C
  C122     1.0000 0.38975  0.00392  0.01046  Biso   1.000  C
  C123     1.0000 0.11025  0.50392  0.48954  Biso   1.000  C
  C124     1.0000 0.88975  0.50392  0.01046  Biso   1.000  C
  C125     1.0000 0.38975  0.99608  0.51046  Biso   1.000  C
  C126     1.0000 0.61025  0.99608  0.98954  Biso   1.000  C
  C127     1.0000 0.88975  0.49608  0.51046  Biso   1.000  C
  C128     1.0000 0.11025  0.49608  0.98954  Biso   1.000  C
  H9       1.0000 0.64040  0.00540  0.50050  Biso   1.000  H
  H10      1.0000 0.35960  0.00540  0.99950  Biso   1.000  H
  H11      1.0000 0.14040  0.50540  0.50050  Biso   1.000  H
  H12      1.0000 0.85960  0.50540  0.99950  Biso   1.000  H
  H13      1.0000 0.35960  0.99460  0.49950  Biso   1.000  H
  H14      1.0000 0.64040  0.99460  0.00050  Biso   1.000  H
  H15      1.0000 0.85960  0.49460  0.49950  Biso   1.000  H
  H16      1.0000 0.14040  0.49460  0.00050  Biso   1.000  H
  C129     1.0000 0.04971  0.94606  0.30645  Biso   1.000  C
  C130     1.0000 0.95029  0.94606  0.19355  Biso   1.000  C
  C131     1.0000 0.54971  0.44606  0.30645  Biso   1.000  C
  C132     1.0000 0.45029  0.44606  0.19355  Biso   1.000  C
  C133     1.0000 0.95029  0.05394  0.69355  Biso   1.000  C
  C134     1.0000 0.04971  0.05394  0.80645  Biso   1.000  C
  C135     1.0000 0.45029  0.55394  0.69355  Biso   1.000  C
  C136     1.0000 0.54971  0.55394  0.80645  Biso   1.000  C
  H17      1.0000 0.03490  0.92190  0.29420  Biso   1.000  H
  H18      1.0000 0.96510  0.92190  0.20580  Biso   1.000  H
  H19      1.0000 0.53490  0.42190  0.29420  Biso   1.000  H
  H20      1.0000 0.46510  0.42190  0.20580  Biso   1.000  H
  H21      1.0000 0.96510  0.07810  0.70580  Biso   1.000  H
  H22      1.0000 0.03490  0.07810  0.79420  Biso   1.000  H
  H23      1.0000 0.46510  0.57810  0.70580  Biso   1.000  H
  H24      1.0000 0.53490  0.57810  0.79420  Biso   1.000  H
  C137     1.0000 0.51941  0.99935  0.45808  Biso   1.000  C
  C138     1.0000 0.48059  0.99935  0.04192  Biso   1.000  C
  C139     1.0000 0.01941  0.49935  0.45808  Biso   1.000  C
  C140     1.0000 0.98059  0.49935  0.04192  Biso   1.000  C
  C141     1.0000 0.48059  0.00065  0.54192  Biso   1.000  C
  C142     1.0000 0.51941  0.00065  0.95808  Biso   1.000  C
  C143     1.0000 0.98059  0.50065  0.54192  Biso   1.000  C
  C144     1.0000 0.01941  0.50065  0.95808  Biso   1.000  C
  C145     1.0000 0.09456  0.94470  0.32216  Biso   1.000  C
  C146     1.0000 0.90544  0.94470  0.17784  Biso   1.000  C
  C147     1.0000 0.59456  0.44470  0.32216  Biso   1.000  C
  C148     1.0000 0.40544  0.44470  0.17784  Biso   1.000  C
  C149     1.0000 0.90544  0.05530  0.67784  Biso   1.000  C
  C150     1.0000 0.09456  0.05530  0.82216  Biso   1.000  C
  C151     1.0000 0.40544  0.55530  0.67784  Biso   1.000  C
  C152     1.0000 0.59456  0.55530  0.82216  Biso   1.000  C
  H25      1.0000 0.10940  0.91940  0.32100  Biso   1.000  H
  H26      1.0000 0.89060  0.91940  0.17900  Biso   1.000  H
  H27      1.0000 0.60940  0.41940  0.32100  Biso   1.000  H
  H28      1.0000 0.39060  0.41940  0.17900  Biso   1.000  H
  H29      1.0000 0.89060  0.08060  0.67900  Biso   1.000  H
  H30      1.0000 0.10940  0.08060  0.82100  Biso   1.000  H
  H31      1.0000 0.39060  0.58060  0.67900  Biso   1.000  H
  H32      1.0000 0.60940  0.58060  0.82100  Biso   1.000  H
  C153     1.0000 0.05015  0.01869  0.32668  Biso   1.000  C
  C154     1.0000 0.94985  0.01869  0.17332  Biso   1.000  C
  C155     1.0000 0.55015  0.51869  0.32668  Biso   1.000  C
  C156     1.0000 0.44985  0.51869  0.17332  Biso   1.000  C
  C157     1.0000 0.94985  0.98131  0.67332  Biso   1.000  C
  C158     1.0000 0.05015  0.98131  0.82668  Biso   1.000  C
  C159     1.0000 0.44985  0.48131  0.67332  Biso   1.000  C
  C160     1.0000 0.55015  0.48131  0.82668  Biso   1.000  C
  H33      1.0000 0.03540  0.04370  0.32870  Biso   1.000  H
  H34      1.0000 0.96460  0.04370  0.17130  Biso   1.000  H
  H35      1.0000 0.53540  0.54370  0.32870  Biso   1.000  H
  H36      1.0000 0.46460  0.54370  0.17130  Biso   1.000  H
  H37      1.0000 0.96460  0.95630  0.67130  Biso   1.000  H
  H38      1.0000 0.03540  0.95630  0.82870  Biso   1.000  H
  H39      1.0000 0.46460  0.45630  0.67130  Biso   1.000  H
  H40      1.0000 0.53540  0.45630  0.82870  Biso   1.000  H
  C161     1.0000 0.85695  0.07858  0.22084  Biso   1.000  C
  C162     1.0000 0.14305  0.07858  0.27916  Biso   1.000  C
  C163     1.0000 0.35695  0.57858  0.22084  Biso   1.000  C
  C164     1.0000 0.64305  0.57858  0.27916  Biso   1.000  C
  C165     1.0000 0.14305  0.92142  0.77916  Biso   1.000  C
  C166     1.0000 0.85695  0.92142  0.72084  Biso   1.000  C
  C167     1.0000 0.64305  0.42142  0.77916  Biso   1.000  C
  C168     1.0000 0.35695  0.42142  0.72084  Biso   1.000  C
  H41      1.0000 0.84920  0.05760  0.20280  Biso   1.000  H
  H42      1.0000 0.15080  0.05760  0.29720  Biso   1.000  H
  H43      1.0000 0.34920  0.55760  0.20280  Biso   1.000  H
  H44      1.0000 0.65080  0.55760  0.29720  Biso   1.000  H
  H45      1.0000 0.15080  0.94240  0.79720  Biso   1.000  H
  H46      1.0000 0.84920  0.94240  0.70280  Biso   1.000  H
  H47      1.0000 0.65080  0.44240  0.79720  Biso   1.000  H
  H48      1.0000 0.34920  0.44240  0.70280  Biso   1.000  H
  C169     1.0000 0.02627  0.98286  0.30857  Biso   1.000  C
  C170     1.0000 0.97373  0.98286  0.19143  Biso   1.000  C
  C171     1.0000 0.52627  0.48286  0.30857  Biso   1.000  C
  C172     1.0000 0.47373  0.48286  0.19143  Biso   1.000  C
  C173     1.0000 0.97373  0.01714  0.69143  Biso   1.000  C
  C174     1.0000 0.02627  0.01714  0.80857  Biso   1.000  C
  C175     1.0000 0.47373  0.51714  0.69143  Biso   1.000  C
  C176     1.0000 0.52627  0.51714  0.80857  Biso   1.000  C
  C177     1.0000 0.59039  0.96402  0.48139  Biso   1.000  C
  C178     1.0000 0.40961  0.96402  0.01861  Biso   1.000  C
  C179     1.0000 0.09039  0.46402  0.48139  Biso   1.000  C
  C180     1.0000 0.90961  0.46402  0.01861  Biso   1.000  C
  C181     1.0000 0.40961  0.03598  0.51861  Biso   1.000  C
  C182     1.0000 0.59039  0.03598  0.98139  Biso   1.000  C
  C183     1.0000 0.90961  0.53598  0.51861  Biso   1.000  C
  C184     1.0000 0.09039  0.53598  0.98139  Biso   1.000  C
  C185     1.0000 0.54166  0.03878  0.46622  Biso   1.000  C
  C186     1.0000 0.45834  0.03878  0.03378  Biso   1.000  C
  C187     1.0000 0.04166  0.53878  0.46622  Biso   1.000  C
  C188     1.0000 0.95834  0.53878  0.03378  Biso   1.000  C
  C189     1.0000 0.45834  0.96122  0.53378  Biso   1.000  C
  C190     1.0000 0.54166  0.96122  0.96622  Biso   1.000  C
  C191     1.0000 0.95834  0.46122  0.53378  Biso   1.000  C
  C192     1.0000 0.04166  0.46122  0.96622  Biso   1.000  C
  H49      1.0000 0.52560  0.06420  0.46090  Biso   1.000  H
  H50      1.0000 0.47440  0.06420  0.03910  Biso   1.000  H
  H51      1.0000 0.02560  0.56420  0.46090  Biso   1.000  H
  H52      1.0000 0.97440  0.56420  0.03910  Biso   1.000  H
  H53      1.0000 0.47440  0.93580  0.53910  Biso   1.000  H
  H54      1.0000 0.52560  0.93580  0.96090  Biso   1.000  H
  H55      1.0000 0.97440  0.43580  0.53910  Biso   1.000  H
  H56      1.0000 0.02560  0.43580  0.96090  Biso   1.000  H
  C193     1.0000 0.58649  0.04166  0.48188  Biso   1.000  C
  C194     1.0000 0.41351  0.04166  0.01812  Biso   1.000  C
  C195     1.0000 0.08649  0.54166  0.48188  Biso   1.000  C
  C196     1.0000 0.91351  0.54166  0.01812  Biso   1.000  C
  C197     1.0000 0.41351  0.95834  0.51812  Biso   1.000  C
  C198     1.0000 0.58649  0.95834  0.98188  Biso   1.000  C
  C199     1.0000 0.91351  0.45834  0.51812  Biso   1.000  C
  C200     1.0000 0.08649  0.45834  0.98188  Biso   1.000  C
  C201     1.0000 0.81570  0.18774  0.23889  Biso   1.000  C
  C202     1.0000 0.18430  0.18774  0.26111  Biso   1.000  C
  C203     1.0000 0.31570  0.68774  0.23889  Biso   1.000  C
  C204     1.0000 0.68430  0.68774  0.26111  Biso   1.000  C
  C205     1.0000 0.18430  0.81226  0.76111  Biso   1.000  C
  C206     1.0000 0.81570  0.81226  0.73889  Biso   1.000  C
  C207     1.0000 0.68430  0.31226  0.76111  Biso   1.000  C
  C208     1.0000 0.31570  0.31226  0.73889  Biso   1.000  C
  C209     1.0000 0.89139  0.07092  0.25263  Biso   1.000  C
  C210     1.0000 0.10861  0.07092  0.24737  Biso   1.000  C
  C211     1.0000 0.39139  0.57092  0.25263  Biso   1.000  C
  C212     1.0000 0.60861  0.57092  0.24737  Biso   1.000  C
  C213     1.0000 0.10861  0.92908  0.74737  Biso   1.000  C
  C214     1.0000 0.89139  0.92908  0.75263  Biso   1.000  C
  C215     1.0000 0.60861  0.42908  0.74737  Biso   1.000  C
  C216     1.0000 0.39139  0.42908  0.75263  Biso   1.000  C
  C217     1.0000 0.09528  0.01773  0.34161  Biso   1.000  C
  C218     1.0000 0.90472  0.01773  0.15839  Biso   1.000  C
  C219     1.0000 0.59528  0.51773  0.34161  Biso   1.000  C
  C220     1.0000 0.40472  0.51773  0.15839  Biso   1.000  C
  C221     1.0000 0.90472  0.98227  0.65839  Biso   1.000  C
  C222     1.0000 0.09528  0.98227  0.84161  Biso   1.000  C
  C223     1.0000 0.40472  0.48227  0.65839  Biso   1.000  C
  C224     1.0000 0.59528  0.48227  0.84161  Biso   1.000  C
  H57      1.0000 0.11040  0.04220  0.35290  Biso   1.000  H
  H58      1.0000 0.88960  0.04220  0.14710  Biso   1.000  H
  H59      1.0000 0.61040  0.54220  0.35290  Biso   1.000  H
  H60      1.0000 0.38960  0.54220  0.14710  Biso   1.000  H
  H61      1.0000 0.88960  0.95780  0.64710  Biso   1.000  H
  H62      1.0000 0.11040  0.95780  0.85290  Biso   1.000  H
  H63      1.0000 0.38960  0.45780  0.64710  Biso   1.000  H
  H64      1.0000 0.61040  0.45780  0.85290  Biso   1.000  H
  C225     1.0000 0.60947  0.08388  0.48809  Biso   1.000  C
  C226     1.0000 0.39053  0.08388  0.01191  Biso   1.000  C
  C227     1.0000 0.10947  0.58388  0.48809  Biso   1.000  C
  C228     1.0000 0.89053  0.58388  0.01191  Biso   1.000  C
  C229     1.0000 0.39053  0.91612  0.51191  Biso   1.000  C
  C230     1.0000 0.60947  0.91612  0.98809  Biso   1.000  C
  C231     1.0000 0.89053  0.41612  0.51191  Biso   1.000  C
  C232     1.0000 0.10947  0.41612  0.98809  Biso   1.000  C
  C233     1.0000 0.47164  0.99649  0.44175  Biso   1.000  C
  C234     1.0000 0.52836  0.99649  0.05825  Biso   1.000  C
  C235     1.0000 0.97164  0.49649  0.44175  Biso   1.000  C
  C236     1.0000 0.02836  0.49649  0.05825  Biso   1.000  C
  C237     1.0000 0.52836  0.00351  0.55825  Biso   1.000  C
  C238     1.0000 0.47164  0.00351  0.94175  Biso   1.000  C
  C239     1.0000 0.02836  0.50351  0.55825  Biso   1.000  C
  C240     1.0000 0.97164  0.50351  0.94175  Biso   1.000  C
  O129     1.0000 0.83444  0.27864  0.32521  Biso   1.000  O
  O130     1.0000 0.16556  0.27864  0.17479  Biso   1.000  O
  O131     1.0000 0.33444  0.77864  0.32521  Biso   1.000  O
  O132     1.0000 0.66556  0.77864  0.17479  Biso   1.000  O
  O133     1.0000 0.16556  0.72136  0.67479  Biso   1.000  O
  O134     1.0000 0.83444  0.72136  0.82521  Biso   1.000  O
  O135     1.0000 0.66556  0.22136  0.67479  Biso   1.000  O
  O136     1.0000 0.33444  0.22136  0.82521  Biso   1.000  O
  C241     1.0000 0.66830  0.84881  0.49567  Biso   1.000  C
  C242     1.0000 0.33170  0.84881  0.00433  Biso   1.000  C
  C243     1.0000 0.16830  0.34881  0.49567  Biso   1.000  C
  C244     1.0000 0.83170  0.34881  0.00433  Biso   1.000  C
  C245     1.0000 0.33170  0.15119  0.50433  Biso   1.000  C
  C246     1.0000 0.66830  0.15119  0.99567  Biso   1.000  C
  C247     1.0000 0.83170  0.65119  0.50433  Biso   1.000  C
  C248     1.0000 0.16830  0.65119  0.99567  Biso   1.000  C
  C249     1.0000 0.67841  0.88088  0.52263  Biso   1.000  C
  C250     1.0000 0.32159  0.88088  0.97737  Biso   1.000  C
  C251     1.0000 0.17841  0.38088  0.52263  Biso   1.000  C
  C252     1.0000 0.82159  0.38088  0.97737  Biso   1.000  C
  C253     1.0000 0.32159  0.11912  0.47737  Biso   1.000  C
  C254     1.0000 0.67841  0.11912  0.02263  Biso   1.000  C
  C255     1.0000 0.82159  0.61912  0.47737  Biso   1.000  C
  C256     1.0000 0.17841  0.61912  0.02263  Biso   1.000  C
  H65      1.0000 0.70230  0.87730  0.54370  Biso   1.000  H
  H66      1.0000 0.29770  0.87730  0.95630  Biso   1.000  H
  H67      1.0000 0.20230  0.37730  0.54370  Biso   1.000  H
  H68      1.0000 0.79770  0.37730  0.95630  Biso   1.000  H
  H69      1.0000 0.29770  0.12270  0.45630  Biso   1.000  H
  H70      1.0000 0.70230  0.12270  0.04370  Biso   1.000  H
  H71      1.0000 0.79770  0.62270  0.45630  Biso   1.000  H
  H72      1.0000 0.20230  0.62270  0.04370  Biso   1.000  H
  C257     1.0000 0.84428  0.14876  0.24224  Biso   1.000  C
  C258     1.0000 0.15572  0.14876  0.25776  Biso   1.000  C
  C259     1.0000 0.34428  0.64876  0.24224  Biso   1.000  C
  C260     1.0000 0.65572  0.64876  0.25776  Biso   1.000  C
  C261     1.0000 0.15572  0.85124  0.75776  Biso   1.000  C
  C262     1.0000 0.84428  0.85124  0.74224  Biso   1.000  C
  C263     1.0000 0.65572  0.35124  0.75776  Biso   1.000  C
  C264     1.0000 0.34428  0.35124  0.74224  Biso   1.000  C
  C265     1.0000 0.20831  0.02989  0.21571  Biso   1.000  C
  C266     1.0000 0.79169  0.02989  0.28429  Biso   1.000  C
  C267     1.0000 0.70831  0.52989  0.21571  Biso   1.000  C
  C268     1.0000 0.29169  0.52989  0.28429  Biso   1.000  C
  C269     1.0000 0.79169  0.97011  0.78429  Biso   1.000  C
  C270     1.0000 0.20831  0.97011  0.71571  Biso   1.000  C
  C271     1.0000 0.29169  0.47011  0.78429  Biso   1.000  C
  C272     1.0000 0.70831  0.47011  0.71571  Biso   1.000  C
  H73      1.0000 0.19660  0.05540  0.20380  Biso   1.000  H
  H74      1.0000 0.80340  0.05540  0.29620  Biso   1.000  H
  H75      1.0000 0.69660  0.55540  0.20380  Biso   1.000  H
  H76      1.0000 0.30340  0.55540  0.29620  Biso   1.000  H
  H77      1.0000 0.80340  0.94460  0.79620  Biso   1.000  H
  H78      1.0000 0.19660  0.94460  0.70380  Biso   1.000  H
  H79      1.0000 0.30340  0.44460  0.79620  Biso   1.000  H
  H80      1.0000 0.69660  0.44460  0.70380  Biso   1.000  H
  C273     1.0000 0.54535  0.96247  0.46586  Biso   1.000  C
  C274     1.0000 0.45465  0.96247  0.03414  Biso   1.000  C
  C275     1.0000 0.04535  0.46247  0.46586  Biso   1.000  C
  C276     1.0000 0.95465  0.46247  0.03414  Biso   1.000  C
  C277     1.0000 0.45465  0.03753  0.53414  Biso   1.000  C
  C278     1.0000 0.54535  0.03753  0.96586  Biso   1.000  C
  C279     1.0000 0.95465  0.53753  0.53414  Biso   1.000  C
  C280     1.0000 0.04535  0.53753  0.96586  Biso   1.000  C
  H81      1.0000 0.53190  0.93560  0.46040  Biso   1.000  H
  H82      1.0000 0.46810  0.93560  0.03960  Biso   1.000  H
  H83      1.0000 0.03190  0.43560  0.46040  Biso   1.000  H
  H84      1.0000 0.96810  0.43560  0.03960  Biso   1.000  H
  H85      1.0000 0.46810  0.06440  0.53960  Biso   1.000  H
  H86      1.0000 0.53190  0.06440  0.96040  Biso   1.000  H
  H87      1.0000 0.96810  0.56440  0.53960  Biso   1.000  H
  H88      1.0000 0.03190  0.56440  0.96040  Biso   1.000  H
  C281     1.0000 0.26989  0.94318  0.50251  Biso   1.000  C
  C282     1.0000 0.73011  0.94318  0.99749  Biso   1.000  C
  C283     1.0000 0.76989  0.44318  0.50251  Biso   1.000  C
  C284     1.0000 0.23011  0.44318  0.99749  Biso   1.000  C
  C285     1.0000 0.73011  0.05682  0.49749  Biso   1.000  C
  C286     1.0000 0.26989  0.05682  0.00251  Biso   1.000  C
  C287     1.0000 0.23011  0.55682  0.49749  Biso   1.000  C
  C288     1.0000 0.76989  0.55682  0.00251  Biso   1.000  C
  H89      1.0000 0.26550  0.91640  0.49100  Biso   1.000  H
  H90      1.0000 0.73450  0.91640  0.00900  Biso   1.000  H
  H91      1.0000 0.76550  0.41640  0.49100  Biso   1.000  H
  H92      1.0000 0.23450  0.41640  0.00900  Biso   1.000  H
  H93      1.0000 0.73450  0.08360  0.50900  Biso   1.000  H
  H94      1.0000 0.26550  0.08360  0.99100  Biso   1.000  H
  H95      1.0000 0.23450  0.58360  0.50900  Biso   1.000  H
  H96      1.0000 0.76550  0.58360  0.99100  Biso   1.000  H
  C289     1.0000 0.21995  0.02800  0.25216  Biso   1.000  C
  C290     1.0000 0.78005  0.02800  0.24784  Biso   1.000  C
  C291     1.0000 0.71995  0.52800  0.25216  Biso   1.000  C
  C292     1.0000 0.28005  0.52800  0.24784  Biso   1.000  C
  C293     1.0000 0.78005  0.97200  0.74784  Biso   1.000  C
  C294     1.0000 0.21995  0.97200  0.75216  Biso   1.000  C
  C295     1.0000 0.28005  0.47200  0.74784  Biso   1.000  C
  C296     1.0000 0.71995  0.47200  0.75216  Biso   1.000  C
  H97      1.0000 0.21650  0.05240  0.26470  Biso   1.000  H
  H98      1.0000 0.78350  0.05240  0.23530  Biso   1.000  H
  H99      1.0000 0.71650  0.55240  0.26470  Biso   1.000  H
  H100     1.0000 0.28350  0.55240  0.23530  Biso   1.000  H
  H101     1.0000 0.78350  0.94760  0.73530  Biso   1.000  H
  H102     1.0000 0.21650  0.94760  0.76470  Biso   1.000  H
  H103     1.0000 0.28350  0.44760  0.73530  Biso   1.000  H
  H104     1.0000 0.71650  0.44760  0.76470  Biso   1.000  H
  C297     1.0000 0.88044  0.14235  0.27339  Biso   1.000  C
  C298     1.0000 0.11956  0.14235  0.22661  Biso   1.000  C
  C299     1.0000 0.38044  0.64235  0.27339  Biso   1.000  C
  C300     1.0000 0.61956  0.64235  0.22661  Biso   1.000  C
  C301     1.0000 0.11956  0.85765  0.72661  Biso   1.000  C
  C302     1.0000 0.88044  0.85765  0.77339  Biso   1.000  C
  C303     1.0000 0.61956  0.35765  0.72661  Biso   1.000  C
  C304     1.0000 0.38044  0.35765  0.77339  Biso   1.000  C
  H105     1.0000 0.88910  0.16400  0.29080  Biso   1.000  H
  H106     1.0000 0.11090  0.16400  0.20920  Biso   1.000  H
  H107     1.0000 0.38910  0.66400  0.29080  Biso   1.000  H
  H108     1.0000 0.61090  0.66400  0.20920  Biso   1.000  H
  H109     1.0000 0.11090  0.83600  0.70920  Biso   1.000  H
  H110     1.0000 0.88910  0.83600  0.79080  Biso   1.000  H
  H111     1.0000 0.61090  0.33600  0.70920  Biso   1.000  H
  H112     1.0000 0.38910  0.33600  0.79080  Biso   1.000  H
  C305     1.0000 0.65302  0.91777  0.51803  Biso   1.000  C
  C306     1.0000 0.34698  0.91777  0.98197  Biso   1.000  C
  C307     1.0000 0.15302  0.41777  0.51803  Biso   1.000  C
  C308     1.0000 0.84698  0.41777  0.98197  Biso   1.000  C
  C309     1.0000 0.34698  0.08223  0.48197  Biso   1.000  C
  C310     1.0000 0.65302  0.08223  0.01803  Biso   1.000  C
  C311     1.0000 0.84698  0.58223  0.48197  Biso   1.000  C
  C312     1.0000 0.15302  0.58223  0.01803  Biso   1.000  C
  H113     1.0000 0.66030  0.93900  0.53590  Biso   1.000  H
  H114     1.0000 0.33970  0.93900  0.96410  Biso   1.000  H
  H115     1.0000 0.16030  0.43900  0.53590  Biso   1.000  H
  H116     1.0000 0.83970  0.43900  0.96410  Biso   1.000  H
  H117     1.0000 0.33970  0.06100  0.46410  Biso   1.000  H
  H118     1.0000 0.66030  0.06100  0.03590  Biso   1.000  H
  H119     1.0000 0.83970  0.56100  0.46410  Biso   1.000  H
  H120     1.0000 0.16030  0.56100  0.03590  Biso   1.000  H
  C313     1.0000 0.69761  0.81031  0.49950  Biso   1.000  C
  C314     1.0000 0.30239  0.81031  0.00050  Biso   1.000  C
  C315     1.0000 0.19761  0.31031  0.49950  Biso   1.000  C
  C316     1.0000 0.80239  0.31031  0.00050  Biso   1.000  C
  C317     1.0000 0.30239  0.18969  0.50050  Biso   1.000  C
  C318     1.0000 0.69761  0.18969  0.99950  Biso   1.000  C
  C319     1.0000 0.80239  0.68969  0.50050  Biso   1.000  C
  C320     1.0000 0.19761  0.68969  0.99950  Biso   1.000  C
  C321     1.0000 0.66104  0.15867  0.49625  Biso   1.000  C
  C322     1.0000 0.33896  0.15867  0.00375  Biso   1.000  C
  C323     1.0000 0.16104  0.65867  0.49625  Biso   1.000  C
  C324     1.0000 0.83896  0.65867  0.00375  Biso   1.000  C
  C325     1.0000 0.33896  0.84133  0.50375  Biso   1.000  C
  C326     1.0000 0.66104  0.84133  0.99625  Biso   1.000  C
  C327     1.0000 0.83896  0.34133  0.50375  Biso   1.000  C
  C328     1.0000 0.16104  0.34133  0.99625  Biso   1.000  C
  C329     1.0000 0.69178  0.19503  0.49853  Biso   1.000  C
  C330     1.0000 0.30822  0.19503  0.00147  Biso   1.000  C
  C331     1.0000 0.19178  0.69503  0.49853  Biso   1.000  C
  C332     1.0000 0.80822  0.69503  0.00147  Biso   1.000  C
  C333     1.0000 0.30822  0.80497  0.50147  Biso   1.000  C
  C334     1.0000 0.69178  0.80497  0.99853  Biso   1.000  C
  C335     1.0000 0.80822  0.30497  0.50147  Biso   1.000  C
  C336     1.0000 0.19178  0.30497  0.99853  Biso   1.000  C
  C337     1.0000 0.21341  0.99444  0.19548  Biso   1.000  C
  C338     1.0000 0.78659  0.99444  0.30452  Biso   1.000  C
  C339     1.0000 0.71341  0.49444  0.19548  Biso   1.000  C
  C340     1.0000 0.28659  0.49444  0.30452  Biso   1.000  C
  C341     1.0000 0.78659  0.00556  0.80452  Biso   1.000  C
  C342     1.0000 0.21341  0.00556  0.69548  Biso   1.000  C
  C343     1.0000 0.28659  0.50556  0.80452  Biso   1.000  C
  C344     1.0000 0.71341  0.50556  0.69548  Biso   1.000  C
  C345     1.0000 0.64421  0.09151  0.51955  Biso   1.000  C
  C346     1.0000 0.35579  0.09151  0.98045  Biso   1.000  C
  C347     1.0000 0.14421  0.59151  0.51955  Biso   1.000  C
  C348     1.0000 0.85579  0.59151  0.98045  Biso   1.000  C
  C349     1.0000 0.35579  0.90849  0.48045  Biso   1.000  C
  C350     1.0000 0.64421  0.90849  0.01955  Biso   1.000  C
  C351     1.0000 0.85579  0.40849  0.48045  Biso   1.000  C
  C352     1.0000 0.14421  0.40849  0.01955  Biso   1.000  C
  H121     1.0000 0.65060  0.07150  0.53830  Biso   1.000  H
  H122     1.0000 0.34940  0.07150  0.96170  Biso   1.000  H
  H123     1.0000 0.15060  0.57150  0.53830  Biso   1.000  H
  H124     1.0000 0.84940  0.57150  0.96170  Biso   1.000  H
  H125     1.0000 0.34940  0.92850  0.46170  Biso   1.000  H
  H126     1.0000 0.65060  0.92850  0.03830  Biso   1.000  H
  H127     1.0000 0.84940  0.42850  0.46170  Biso   1.000  H
  H128     1.0000 0.15060  0.42850  0.03830  Biso   1.000  H
  C353     1.0000 0.19422  0.95860  0.13462  Biso   1.000  C
  C354     1.0000 0.80578  0.95860  0.36538  Biso   1.000  C
  C355     1.0000 0.69422  0.45860  0.13462  Biso   1.000  C
  C356     1.0000 0.30578  0.45860  0.36538  Biso   1.000  C
  C357     1.0000 0.80578  0.04140  0.86538  Biso   1.000  C
  C358     1.0000 0.19422  0.04140  0.63462  Biso   1.000  C
  C359     1.0000 0.30578  0.54140  0.86538  Biso   1.000  C
  C360     1.0000 0.69422  0.54140  0.63462  Biso   1.000  C
  H129     1.0000 0.19520  0.93200  0.14600  Biso   1.000  H
  H130     1.0000 0.80480  0.93200  0.35400  Biso   1.000  H
  H131     1.0000 0.69520  0.43200  0.14600  Biso   1.000  H
  H132     1.0000 0.30480  0.43200  0.35400  Biso   1.000  H
  H133     1.0000 0.80480  0.06800  0.85400  Biso   1.000  H
  H134     1.0000 0.19520  0.06800  0.64600  Biso   1.000  H
  H135     1.0000 0.30480  0.56800  0.85400  Biso   1.000  H
  H136     1.0000 0.69520  0.56800  0.64600  Biso   1.000  H
  C361     1.0000 0.66976  0.12845  0.52372  Biso   1.000  C
  C362     1.0000 0.33024  0.12845  0.97628  Biso   1.000  C
  C363     1.0000 0.16976  0.62845  0.52372  Biso   1.000  C
  C364     1.0000 0.83024  0.62845  0.97628  Biso   1.000  C
  C365     1.0000 0.33024  0.87155  0.47628  Biso   1.000  C
  C366     1.0000 0.66976  0.87155  0.02372  Biso   1.000  C
  C367     1.0000 0.83024  0.37155  0.47628  Biso   1.000  C
  C368     1.0000 0.16976  0.37155  0.02372  Biso   1.000  C
  H137     1.0000 0.69290  0.13290  0.54520  Biso   1.000  H
  H138     1.0000 0.30710  0.13290  0.95480  Biso   1.000  H
  H139     1.0000 0.19290  0.63290  0.54520  Biso   1.000  H
  H140     1.0000 0.80710  0.63290  0.95480  Biso   1.000  H
  H141     1.0000 0.30710  0.86710  0.45480  Biso   1.000  H
  H142     1.0000 0.69290  0.86710  0.04520  Biso   1.000  H
  H143     1.0000 0.80710  0.36710  0.45480  Biso   1.000  H
  H144     1.0000 0.19290  0.36710  0.04520  Biso   1.000  H
  C369     1.0000 0.20090  0.99637  0.15534  Biso   1.000  C
  C370     1.0000 0.79910  0.99637  0.34466  Biso   1.000  C
  C371     1.0000 0.70090  0.49637  0.15534  Biso   1.000  C
  C372     1.0000 0.29910  0.49637  0.34466  Biso   1.000  C
  C373     1.0000 0.79910  0.00363  0.84466  Biso   1.000  C
  C374     1.0000 0.20090  0.00363  0.65534  Biso   1.000  C
  C375     1.0000 0.29910  0.50363  0.84466  Biso   1.000  C
  C376     1.0000 0.70090  0.50363  0.65534  Biso   1.000  C
  C377     1.0000 0.28861  0.98341  0.55835  Biso   1.000  C
  C378     1.0000 0.71139  0.98341  0.94165  Biso   1.000  C
  C379     1.0000 0.78861  0.48341  0.55835  Biso   1.000  C
  C380     1.0000 0.21139  0.48341  0.94165  Biso   1.000  C
  C381     1.0000 0.71139  0.01659  0.44165  Biso   1.000  C
  C382     1.0000 0.28861  0.01659  0.05835  Biso   1.000  C
  C383     1.0000 0.21139  0.51659  0.44165  Biso   1.000  C
  C384     1.0000 0.78861  0.51659  0.05835  Biso   1.000  C
  C385     1.0000 0.30390  0.94939  0.61984  Biso   1.000  C
  C386     1.0000 0.69610  0.94939  0.88016  Biso   1.000  C
  C387     1.0000 0.80390  0.44939  0.61984  Biso   1.000  C
  C388     1.0000 0.19610  0.44939  0.88016  Biso   1.000  C
  C389     1.0000 0.69610  0.05061  0.38016  Biso   1.000  C
  C390     1.0000 0.30390  0.05061  0.11984  Biso   1.000  C
  C391     1.0000 0.19610  0.55061  0.38016  Biso   1.000  C
  C392     1.0000 0.80390  0.55061  0.11984  Biso   1.000  C
  H145     1.0000 0.29900  0.92230  0.60900  Biso   1.000  H
  H146     1.0000 0.70100  0.92230  0.89100  Biso   1.000  H
  H147     1.0000 0.79900  0.42230  0.60900  Biso   1.000  H
  H148     1.0000 0.20100  0.42230  0.89100  Biso   1.000  H
  H149     1.0000 0.70100  0.07770  0.39100  Biso   1.000  H
  H150     1.0000 0.29900  0.07770  0.10900  Biso   1.000  H
  H151     1.0000 0.20100  0.57770  0.39100  Biso   1.000  H
  H152     1.0000 0.79900  0.57770  0.10900  Biso   1.000  H
  C393     1.0000 0.31310  0.95242  0.65712  Biso   1.000  C
  C394     1.0000 0.68690  0.95242  0.84288  Biso   1.000  C
  C395     1.0000 0.81310  0.45242  0.65712  Biso   1.000  C
  C396     1.0000 0.18690  0.45242  0.84288  Biso   1.000  C
  C397     1.0000 0.68690  0.04758  0.34288  Biso   1.000  C
  C398     1.0000 0.31310  0.04758  0.15712  Biso   1.000  C
  C399     1.0000 0.18690  0.54758  0.34288  Biso   1.000  C
  C400     1.0000 0.81310  0.54758  0.15712  Biso   1.000  C
  C401     1.0000 0.32083  0.99304  0.67297  Biso   1.000  C
  C402     1.0000 0.67917  0.99304  0.82703  Biso   1.000  C
  C403     1.0000 0.82083  0.49304  0.67297  Biso   1.000  C
  C404     1.0000 0.17917  0.49304  0.82703  Biso   1.000  C
  C405     1.0000 0.67917  0.00696  0.32703  Biso   1.000  C
  C406     1.0000 0.32083  0.00696  0.17297  Biso   1.000  C
  C407     1.0000 0.17917  0.50696  0.32703  Biso   1.000  C
  C408     1.0000 0.82083  0.50696  0.17297  Biso   1.000  C
  H153     1.0000 0.32790  0.99540  0.69790  Biso   1.000  H
  H154     1.0000 0.67210  0.99540  0.80210  Biso   1.000  H
  H155     1.0000 0.82790  0.49540  0.69790  Biso   1.000  H
  H156     1.0000 0.17210  0.49540  0.80210  Biso   1.000  H
  H157     1.0000 0.67210  0.00460  0.30210  Biso   1.000  H
  H158     1.0000 0.32790  0.00460  0.19790  Biso   1.000  H
  H159     1.0000 0.17210  0.50460  0.30210  Biso   1.000  H
  H160     1.0000 0.82790  0.50460  0.19790  Biso   1.000  H
  C409     1.0000 0.30176  0.98609  0.59812  Biso   1.000  C
  C410     1.0000 0.69824  0.98609  0.90188  Biso   1.000  C
  C411     1.0000 0.80176  0.48609  0.59812  Biso   1.000  C
  C412     1.0000 0.19824  0.48609  0.90188  Biso   1.000  C
  C413     1.0000 0.69824  0.01391  0.40188  Biso   1.000  C
  C414     1.0000 0.30176  0.01391  0.09812  Biso   1.000  C
  C415     1.0000 0.19824  0.51391  0.40188  Biso   1.000  C
  C416     1.0000 0.80176  0.51391  0.09812  Biso   1.000  C
  C417     1.0000 0.31837  0.03048  0.65257  Biso   1.000  C
  C418     1.0000 0.68163  0.03048  0.84743  Biso   1.000  C
  C419     1.0000 0.81837  0.53048  0.65257  Biso   1.000  C
  C420     1.0000 0.18163  0.53048  0.84743  Biso   1.000  C
  C421     1.0000 0.68163  0.96952  0.34743  Biso   1.000  C
  C422     1.0000 0.31837  0.96952  0.15257  Biso   1.000  C
  C423     1.0000 0.18163  0.46952  0.34743  Biso   1.000  C
  C424     1.0000 0.81837  0.46952  0.15257  Biso   1.000  C
  C425     1.0000 0.40110  0.03075  0.42038  Biso   1.000  C
  C426     1.0000 0.59890  0.03075  0.07962  Biso   1.000  C
  C427     1.0000 0.90110  0.53075  0.42038  Biso   1.000  C
  C428     1.0000 0.09890  0.53075  0.07962  Biso   1.000  C
  C429     1.0000 0.59890  0.96925  0.57962  Biso   1.000  C
  C430     1.0000 0.40110  0.96925  0.92038  Biso   1.000  C
  C431     1.0000 0.09890  0.46925  0.57962  Biso   1.000  C
  C432     1.0000 0.90110  0.46925  0.92038  Biso   1.000  C
  H161     1.0000 0.38490  0.05620  0.41600  Biso   1.000  H
  H162     1.0000 0.61510  0.05620  0.08400  Biso   1.000  H
  H163     1.0000 0.88490  0.55620  0.41600  Biso   1.000  H
  H164     1.0000 0.11510  0.55620  0.08400  Biso   1.000  H
  H165     1.0000 0.61510  0.94380  0.58400  Biso   1.000  H
  H166     1.0000 0.38490  0.94380  0.91600  Biso   1.000  H
  H167     1.0000 0.11510  0.44380  0.58400  Biso   1.000  H
  H168     1.0000 0.88490  0.44380  0.91600  Biso   1.000  H
  C433     1.0000 0.19828  0.03576  0.13801  Biso   1.000  C
  C434     1.0000 0.80172  0.03576  0.36199  Biso   1.000  C
  C435     1.0000 0.69828  0.53576  0.13801  Biso   1.000  C
  C436     1.0000 0.30172  0.53576  0.36199  Biso   1.000  C
  C437     1.0000 0.80172  0.96424  0.86199  Biso   1.000  C
  C438     1.0000 0.19828  0.96424  0.63801  Biso   1.000  C
  C439     1.0000 0.30172  0.46424  0.86199  Biso   1.000  C
  C440     1.0000 0.69828  0.46424  0.63801  Biso   1.000  C
  H169     1.0000 0.20240  0.06120  0.15140  Biso   1.000  H
  H170     1.0000 0.79760  0.06120  0.34860  Biso   1.000  H
  H171     1.0000 0.70240  0.56120  0.15140  Biso   1.000  H
  H172     1.0000 0.29760  0.56120  0.34860  Biso   1.000  H
  H173     1.0000 0.79760  0.93880  0.84860  Biso   1.000  H
  H174     1.0000 0.20240  0.93880  0.65140  Biso   1.000  H
  H175     1.0000 0.29760  0.43880  0.84860  Biso   1.000  H
  H176     1.0000 0.70240  0.43880  0.65140  Biso   1.000  H
  C441     1.0000 0.18623  0.95959  0.09797  Biso   1.000  C
  C442     1.0000 0.81377  0.95959  0.40203  Biso   1.000  C
  C443     1.0000 0.68623  0.45959  0.09797  Biso   1.000  C
  C444     1.0000 0.31377  0.45959  0.40203  Biso   1.000  C
  C445     1.0000 0.81377  0.04041  0.90203  Biso   1.000  C
  C446     1.0000 0.18623  0.04041  0.59797  Biso   1.000  C
  C447     1.0000 0.31377  0.54041  0.90203  Biso   1.000  C
  C448     1.0000 0.68623  0.54041  0.59797  Biso   1.000  C
  C449     1.0000 0.18600  0.91930  0.07737  Biso   1.000  C
  C450     1.0000 0.81400  0.91930  0.42263  Biso   1.000  C
  C451     1.0000 0.68600  0.41930  0.07737  Biso   1.000  C
  C452     1.0000 0.31400  0.41930  0.42263  Biso   1.000  C
  C453     1.0000 0.81400  0.08070  0.92263  Biso   1.000  C
  C454     1.0000 0.18600  0.08070  0.57737  Biso   1.000  C
  C455     1.0000 0.31400  0.58070  0.92263  Biso   1.000  C
  C456     1.0000 0.68600  0.58070  0.57737  Biso   1.000  C
  C457     1.0000 0.18963  0.03804  0.10112  Biso   1.000  C
  C458     1.0000 0.81037  0.03804  0.39888  Biso   1.000  C
  C459     1.0000 0.68963  0.53804  0.10112  Biso   1.000  C
  C460     1.0000 0.31037  0.53804  0.39888  Biso   1.000  C
  C461     1.0000 0.81037  0.96196  0.89888  Biso   1.000  C
  C462     1.0000 0.18963  0.96196  0.60112  Biso   1.000  C
  C463     1.0000 0.31037  0.46196  0.89888  Biso   1.000  C
  C464     1.0000 0.68963  0.46196  0.60112  Biso   1.000  C
  C465     1.0000 0.19175  0.08039  0.08325  Biso   1.000  C
  C466     1.0000 0.80825  0.08039  0.41675  Biso   1.000  C
  C467     1.0000 0.69175  0.58039  0.08325  Biso   1.000  C
  C468     1.0000 0.30825  0.58039  0.41675  Biso   1.000  C
  C469     1.0000 0.80825  0.91961  0.91675  Biso   1.000  C
  C470     1.0000 0.19175  0.91961  0.58325  Biso   1.000  C
  C471     1.0000 0.30825  0.41961  0.91675  Biso   1.000  C
  C472     1.0000 0.69175  0.41961  0.58325  Biso   1.000  C
  C473     1.0000 0.30977  0.02630  0.61541  Biso   1.000  C
  C474     1.0000 0.69023  0.02630  0.88459  Biso   1.000  C
  C475     1.0000 0.80977  0.52630  0.61541  Biso   1.000  C
  C476     1.0000 0.19023  0.52630  0.88459  Biso   1.000  C
  C477     1.0000 0.69023  0.97370  0.38459  Biso   1.000  C
  C478     1.0000 0.30977  0.97370  0.11541  Biso   1.000  C
  C479     1.0000 0.19023  0.47370  0.38459  Biso   1.000  C
  C480     1.0000 0.80977  0.47370  0.11541  Biso   1.000  C
  H177     1.0000 0.30940  0.05100  0.60180  Biso   1.000  H
  H178     1.0000 0.69060  0.05100  0.89820  Biso   1.000  H
  H179     1.0000 0.80940  0.55100  0.60180  Biso   1.000  H
  H180     1.0000 0.19060  0.55100  0.89820  Biso   1.000  H
  H181     1.0000 0.69060  0.94900  0.39820  Biso   1.000  H
  H182     1.0000 0.30940  0.94900  0.10180  Biso   1.000  H
  H183     1.0000 0.19060  0.44900  0.39820  Biso   1.000  H
  H184     1.0000 0.80940  0.44900  0.10180  Biso   1.000  H
  C481     1.0000 0.24284  0.95437  0.25220  Biso   1.000  C
  C482     1.0000 0.75716  0.95437  0.24780  Biso   1.000  C
  C483     1.0000 0.74284  0.45437  0.25220  Biso   1.000  C
  C484     1.0000 0.25716  0.45437  0.24780  Biso   1.000  C
  C485     1.0000 0.75716  0.04563  0.74780  Biso   1.000  C
  C486     1.0000 0.24284  0.04563  0.75220  Biso   1.000  C
  C487     1.0000 0.25716  0.54563  0.74780  Biso   1.000  C
  C488     1.0000 0.74284  0.54563  0.75220  Biso   1.000  C
  H185     1.0000 0.25430  0.92890  0.26430  Biso   1.000  H
  H186     1.0000 0.74570  0.92890  0.23570  Biso   1.000  H
  H187     1.0000 0.75430  0.42890  0.26430  Biso   1.000  H
  H188     1.0000 0.24570  0.42890  0.23570  Biso   1.000  H
  H189     1.0000 0.74570  0.07110  0.73570  Biso   1.000  H
  H190     1.0000 0.25430  0.07110  0.76430  Biso   1.000  H
  H191     1.0000 0.24570  0.57110  0.73570  Biso   1.000  H
  H192     1.0000 0.75430  0.57110  0.76430  Biso   1.000  H
  C489     1.0000 0.32039  0.07346  0.66894  Biso   1.000  C
  C490     1.0000 0.67961  0.07346  0.83106  Biso   1.000  C
  C491     1.0000 0.82039  0.57346  0.66894  Biso   1.000  C
  C492     1.0000 0.17961  0.57346  0.83106  Biso   1.000  C
  C493     1.0000 0.67961  0.92654  0.33106  Biso   1.000  C
  C494     1.0000 0.32039  0.92654  0.16894  Biso   1.000  C
  C495     1.0000 0.17961  0.42654  0.33106  Biso   1.000  C
  C496     1.0000 0.82039  0.42654  0.16894  Biso   1.000  C
  C497     1.0000 0.18400  0.99944  0.08159  Biso   1.000  C
  C498     1.0000 0.81600  0.99944  0.41841  Biso   1.000  C
  C499     1.0000 0.68400  0.49944  0.08159  Biso   1.000  C
  C500     1.0000 0.31600  0.49944  0.41841  Biso   1.000  C
  C501     1.0000 0.81600  0.00056  0.91841  Biso   1.000  C
  C502     1.0000 0.18400  0.00056  0.58159  Biso   1.000  C
  C503     1.0000 0.31600  0.50056  0.91841  Biso   1.000  C
  C504     1.0000 0.68400  0.50056  0.58159  Biso   1.000  C
  H193     1.0000 0.17850  0.00060  0.05680  Biso   1.000  H
  H194     1.0000 0.82150  0.00060  0.44320  Biso   1.000  H
  H195     1.0000 0.67850  0.50060  0.05680  Biso   1.000  H
  H196     1.0000 0.32150  0.50060  0.44320  Biso   1.000  H
  H197     1.0000 0.82150  0.99940  0.94320  Biso   1.000  H
  H198     1.0000 0.17850  0.99940  0.55680  Biso   1.000  H
  H199     1.0000 0.32150  0.49940  0.94320  Biso   1.000  H
  H200     1.0000 0.67850  0.49940  0.55680  Biso   1.000  H
  C505     1.0000 0.33240  0.12021  0.71985  Biso   1.000  C
  C506     1.0000 0.66760  0.12021  0.78015  Biso   1.000  C
  C507     1.0000 0.83240  0.62021  0.71985  Biso   1.000  C
  C508     1.0000 0.16760  0.62021  0.78015  Biso   1.000  C
  C509     1.0000 0.66760  0.87979  0.28015  Biso   1.000  C
  C510     1.0000 0.33240  0.87979  0.21985  Biso   1.000  C
  C511     1.0000 0.16760  0.37979  0.28015  Biso   1.000  C
  C512     1.0000 0.83240  0.37979  0.21985  Biso   1.000  C
  H201     1.0000 0.34430  0.12390  0.74480  Biso   1.000  H
  H202     1.0000 0.65570  0.12390  0.75520  Biso   1.000  H
  H203     1.0000 0.84430  0.62390  0.74480  Biso   1.000  H
  H204     1.0000 0.15570  0.62390  0.75520  Biso   1.000  H
  H205     1.0000 0.65570  0.87610  0.25520  Biso   1.000  H
  H206     1.0000 0.34430  0.87610  0.24480  Biso   1.000  H
  H207     1.0000 0.15570  0.37610  0.25520  Biso   1.000  H
  H208     1.0000 0.84430  0.37610  0.24480  Biso   1.000  H
  C513     1.0000 0.61730  0.92341  0.48745  Biso   1.000  C
  C514     1.0000 0.38270  0.92341  0.01255  Biso   1.000  C
  C515     1.0000 0.11730  0.42341  0.48745  Biso   1.000  C
  C516     1.0000 0.88270  0.42341  0.01255  Biso   1.000  C
  C517     1.0000 0.38270  0.07659  0.51255  Biso   1.000  C
  C518     1.0000 0.61730  0.07659  0.98745  Biso   1.000  C
  C519     1.0000 0.88270  0.57659  0.51255  Biso   1.000  C
  C520     1.0000 0.11730  0.57659  0.98745  Biso   1.000  C
  C521     1.0000 0.60708  0.89101  0.46174  Biso   1.000  C
  C522     1.0000 0.39292  0.89101  0.03826  Biso   1.000  C
  C523     1.0000 0.10708  0.39101  0.46174  Biso   1.000  C
  C524     1.0000 0.89292  0.39101  0.03826  Biso   1.000  C
  C525     1.0000 0.39292  0.10899  0.53826  Biso   1.000  C
  C526     1.0000 0.60708  0.10899  0.96174  Biso   1.000  C
  C527     1.0000 0.89292  0.60899  0.53826  Biso   1.000  C
  C528     1.0000 0.10708  0.60899  0.96174  Biso   1.000  C
  H209     1.0000 0.58240  0.89390  0.44120  Biso   1.000  H
  H210     1.0000 0.41760  0.89390  0.05880  Biso   1.000  H
  H211     1.0000 0.08240  0.39390  0.44120  Biso   1.000  H
  H212     1.0000 0.91760  0.39390  0.05880  Biso   1.000  H
  H213     1.0000 0.41760  0.10610  0.55880  Biso   1.000  H
  H214     1.0000 0.58240  0.10610  0.94120  Biso   1.000  H
  H215     1.0000 0.91760  0.60610  0.55880  Biso   1.000  H
  H216     1.0000 0.08240  0.60610  0.94120  Biso   1.000  H
  C529     1.0000 0.28140  0.02004  0.53730  Biso   1.000  C
  C530     1.0000 0.71860  0.02004  0.96270  Biso   1.000  C
  C531     1.0000 0.78140  0.52004  0.53730  Biso   1.000  C
  C532     1.0000 0.21860  0.52004  0.96270  Biso   1.000  C
  C533     1.0000 0.71860  0.97996  0.46270  Biso   1.000  C
  C534     1.0000 0.28140  0.97996  0.03730  Biso   1.000  C
  C535     1.0000 0.21860  0.47996  0.46270  Biso   1.000  C
  C536     1.0000 0.78140  0.47996  0.03730  Biso   1.000  C
  H217     1.0000 0.28500  0.04690  0.54860  Biso   1.000  H
  H218     1.0000 0.71500  0.04690  0.95140  Biso   1.000  H
  H219     1.0000 0.78500  0.54690  0.54860  Biso   1.000  H
  H220     1.0000 0.21500  0.54690  0.95140  Biso   1.000  H
  H221     1.0000 0.71500  0.95310  0.45140  Biso   1.000  H
  H222     1.0000 0.28500  0.95310  0.04860  Biso   1.000  H
  H223     1.0000 0.21500  0.45310  0.45140  Biso   1.000  H
  H224     1.0000 0.78500  0.45310  0.04860  Biso   1.000  H
  C537     1.0000 0.26910  0.01851  0.50050  Biso   1.000  C
  C538     1.0000 0.73090  0.01851  0.99950  Biso   1.000  C
  C539     1.0000 0.76910  0.51851  0.50050  Biso   1.000  C
  C540     1.0000 0.23090  0.51851  0.99950  Biso   1.000  C
  C541     1.0000 0.73090  0.98149  0.49950  Biso   1.000  C
  C542     1.0000 0.26910  0.98149  0.00050  Biso   1.000  C
  C543     1.0000 0.23090  0.48149  0.49950  Biso   1.000  C
  C544     1.0000 0.76910  0.48149  0.00050  Biso   1.000  C
  H225     1.0000 0.26460  0.04440  0.48770  Biso   1.000  H
  H226     1.0000 0.73540  0.04440  0.01230  Biso   1.000  H
  H227     1.0000 0.76460  0.54440  0.48770  Biso   1.000  H
  H228     1.0000 0.23540  0.54440  0.01230  Biso   1.000  H
  H229     1.0000 0.73540  0.95560  0.51230  Biso   1.000  H
  H230     1.0000 0.26460  0.95560  0.98770  Biso   1.000  H
  H231     1.0000 0.23540  0.45560  0.51230  Biso   1.000  H
  H232     1.0000 0.76460  0.45560  0.98770  Biso   1.000  H
  C545     1.0000 0.63236  0.85468  0.46568  Biso   1.000  C
  C546     1.0000 0.36764  0.85468  0.03432  Biso   1.000  C
  C547     1.0000 0.13236  0.35468  0.46568  Biso   1.000  C
  C548     1.0000 0.86764  0.35468  0.03432  Biso   1.000  C
  C549     1.0000 0.36764  0.14532  0.53432  Biso   1.000  C
  C550     1.0000 0.63236  0.14532  0.96568  Biso   1.000  C
  C551     1.0000 0.86764  0.64532  0.53432  Biso   1.000  C
  C552     1.0000 0.13236  0.64532  0.96568  Biso   1.000  C
  H233     1.0000 0.62480  0.83370  0.44760  Biso   1.000  H
  H234     1.0000 0.37520  0.83370  0.05240  Biso   1.000  H
  H235     1.0000 0.12480  0.33370  0.44760  Biso   1.000  H
  H236     1.0000 0.87520  0.33370  0.05240  Biso   1.000  H
  H237     1.0000 0.37520  0.16630  0.55240  Biso   1.000  H
  H238     1.0000 0.62480  0.16630  0.94760  Biso   1.000  H
  H239     1.0000 0.87520  0.66630  0.55240  Biso   1.000  H
  H240     1.0000 0.12480  0.66630  0.94760  Biso   1.000  H
  C553     1.0000 0.90338  0.10401  0.27852  Biso   1.000  C
  C554     1.0000 0.09662  0.10401  0.22148  Biso   1.000  C
  C555     1.0000 0.40338  0.60401  0.27852  Biso   1.000  C
  C556     1.0000 0.59662  0.60401  0.22148  Biso   1.000  C
  C557     1.0000 0.09662  0.89599  0.72148  Biso   1.000  C
  C558     1.0000 0.90338  0.89599  0.77852  Biso   1.000  C
  C559     1.0000 0.59662  0.39599  0.72148  Biso   1.000  C
  C560     1.0000 0.40338  0.39599  0.77852  Biso   1.000  C
  H241     1.0000 0.92720  0.10010  0.29950  Biso   1.000  H
  H242     1.0000 0.07280  0.10010  0.20050  Biso   1.000  H
  H243     1.0000 0.42720  0.60010  0.29950  Biso   1.000  H
  H244     1.0000 0.57280  0.60010  0.20050  Biso   1.000  H
  H245     1.0000 0.07280  0.89990  0.70050  Biso   1.000  H
  H246     1.0000 0.92720  0.89990  0.79950  Biso   1.000  H
  H247     1.0000 0.57280  0.39990  0.70050  Biso   1.000  H
  H248     1.0000 0.42720  0.39990  0.79950  Biso   1.000  H
  C561     1.0000 0.28285  0.94481  0.53937  Biso   1.000  C
  C562     1.0000 0.71715  0.94481  0.96063  Biso   1.000  C
  C563     1.0000 0.78285  0.44481  0.53937  Biso   1.000  C
  C564     1.0000 0.21715  0.44481  0.96063  Biso   1.000  C
  C565     1.0000 0.71715  0.05519  0.46063  Biso   1.000  C
  C566     1.0000 0.28285  0.05519  0.03937  Biso   1.000  C
  C567     1.0000 0.21715  0.55519  0.46063  Biso   1.000  C
  C568     1.0000 0.78285  0.55519  0.03937  Biso   1.000  C
  H249     1.0000 0.28800  0.91900  0.55230  Biso   1.000  H
  H250     1.0000 0.71200  0.91900  0.94770  Biso   1.000  H
  H251     1.0000 0.78800  0.41900  0.55230  Biso   1.000  H
  H252     1.0000 0.21200  0.41900  0.94770  Biso   1.000  H
  H253     1.0000 0.71200  0.08100  0.44770  Biso   1.000  H
  H254     1.0000 0.28800  0.08100  0.05230  Biso   1.000  H
  H255     1.0000 0.21200  0.58100  0.44770  Biso   1.000  H
  H256     1.0000 0.78800  0.58100  0.05230  Biso   1.000  H
  C569     1.0000 0.59912  0.11563  0.46154  Biso   1.000  C
  C570     1.0000 0.40088  0.11563  0.03846  Biso   1.000  C
  C571     1.0000 0.09912  0.61563  0.46154  Biso   1.000  C
  C572     1.0000 0.90088  0.61563  0.03846  Biso   1.000  C
  C573     1.0000 0.40088  0.88437  0.53846  Biso   1.000  C
  C574     1.0000 0.59912  0.88437  0.96154  Biso   1.000  C
  C575     1.0000 0.90088  0.38437  0.53846  Biso   1.000  C
  C576     1.0000 0.09912  0.38437  0.96154  Biso   1.000  C
  H257     1.0000 0.57470  0.11240  0.44080  Biso   1.000  H
  H258     1.0000 0.42530  0.11240  0.05920  Biso   1.000  H
  H259     1.0000 0.07470  0.61240  0.44080  Biso   1.000  H
  H260     1.0000 0.92530  0.61240  0.05920  Biso   1.000  H
  H261     1.0000 0.42530  0.88760  0.55920  Biso   1.000  H
  H262     1.0000 0.57470  0.88760  0.94080  Biso   1.000  H
  H263     1.0000 0.92530  0.38760  0.55920  Biso   1.000  H
  H264     1.0000 0.07470  0.38760  0.94080  Biso   1.000  H
  C577     1.0000 0.62513  0.15226  0.46574  Biso   1.000  C
  C578     1.0000 0.37487  0.15226  0.03426  Biso   1.000  C
  C579     1.0000 0.12513  0.65226  0.46574  Biso   1.000  C
  C580     1.0000 0.87487  0.65226  0.03426  Biso   1.000  C
  C581     1.0000 0.37487  0.84774  0.53426  Biso   1.000  C
  C582     1.0000 0.62513  0.84774  0.96574  Biso   1.000  C
  C583     1.0000 0.87487  0.34774  0.53426  Biso   1.000  C
  C584     1.0000 0.12513  0.34774  0.96574  Biso   1.000  C
  H265     1.0000 0.61810  0.17290  0.44740  Biso   1.000  H
  H266     1.0000 0.38190  0.17290  0.05260  Biso   1.000  H
  H267     1.0000 0.11810  0.67290  0.44740  Biso   1.000  H
  H268     1.0000 0.88190  0.67290  0.05260  Biso   1.000  H
  H269     1.0000 0.38190  0.82710  0.55260  Biso   1.000  H
  H270     1.0000 0.61810  0.82710  0.94740  Biso   1.000  H
  H271     1.0000 0.88190  0.32710  0.55260  Biso   1.000  H
  H272     1.0000 0.11810  0.32710  0.94740  Biso   1.000  H
  C585     1.0000 0.23148  0.95674  0.21512  Biso   1.000  C
  C586     1.0000 0.76852  0.95674  0.28488  Biso   1.000  C
  C587     1.0000 0.73148  0.45674  0.21512  Biso   1.000  C
  C588     1.0000 0.26852  0.45674  0.28488  Biso   1.000  C
  C589     1.0000 0.76852  0.04326  0.78488  Biso   1.000  C
  C590     1.0000 0.23148  0.04326  0.71512  Biso   1.000  C
  C591     1.0000 0.26852  0.54326  0.78488  Biso   1.000  C
  C592     1.0000 0.73148  0.54326  0.71512  Biso   1.000  C
  H273     1.0000 0.23590  0.93270  0.20260  Biso   1.000  H
  H274     1.0000 0.76410  0.93270  0.29740  Biso   1.000  H
  H275     1.0000 0.73590  0.43270  0.20260  Biso   1.000  H
  H276     1.0000 0.26410  0.43270  0.29740  Biso   1.000  H
  H277     1.0000 0.76410  0.06730  0.79740  Biso   1.000  H
  H278     1.0000 0.23590  0.06730  0.70260  Biso   1.000  H
  H279     1.0000 0.26410  0.56730  0.79740  Biso   1.000  H
  H280     1.0000 0.73590  0.56730  0.70260  Biso   1.000  H
  C593     1.0000 0.45021  0.95800  0.43361  Biso   1.000  C
  C594     1.0000 0.54979  0.95800  0.06639  Biso   1.000  C
  C595     1.0000 0.95021  0.45800  0.43361  Biso   1.000  C
  C596     1.0000 0.04979  0.45800  0.06639  Biso   1.000  C
  C597     1.0000 0.54979  0.04200  0.56639  Biso   1.000  C
  C598     1.0000 0.45021  0.04200  0.93361  Biso   1.000  C
  C599     1.0000 0.04979  0.54200  0.56639  Biso   1.000  C
  C600     1.0000 0.95021  0.54200  0.93361  Biso   1.000  C
  H281     1.0000 0.46630  0.93250  0.43840  Biso   1.000  H
  H282     1.0000 0.53370  0.93250  0.06160  Biso   1.000  H
  H283     1.0000 0.96630  0.43250  0.43840  Biso   1.000  H
  H284     1.0000 0.03370  0.43250  0.06160  Biso   1.000  H
  H285     1.0000 0.53370  0.06750  0.56160  Biso   1.000  H
  H286     1.0000 0.46630  0.06750  0.93840  Biso   1.000  H
  H287     1.0000 0.03370  0.56750  0.56160  Biso   1.000  H
  H288     1.0000 0.96630  0.56750  0.93840  Biso   1.000  H
  C601     1.0000 0.21210  0.11596  0.10337  Biso   1.000  C
  C602     1.0000 0.78790  0.11596  0.39663  Biso   1.000  C
  C603     1.0000 0.71210  0.61596  0.10337  Biso   1.000  C
  C604     1.0000 0.28790  0.61596  0.39663  Biso   1.000  C
  C605     1.0000 0.78790  0.88404  0.89663  Biso   1.000  C
  C606     1.0000 0.21210  0.88404  0.60337  Biso   1.000  C
  C607     1.0000 0.28790  0.38404  0.89663  Biso   1.000  C
  C608     1.0000 0.71210  0.38404  0.60337  Biso   1.000  C
  H289     1.0000 0.22010  0.11530  0.12850  Biso   1.000  H
  H290     1.0000 0.77990  0.11530  0.37150  Biso   1.000  H
  H291     1.0000 0.72010  0.61530  0.12850  Biso   1.000  H
  H292     1.0000 0.27990  0.61530  0.37150  Biso   1.000  H
  H293     1.0000 0.77990  0.88470  0.87150  Biso   1.000  H
  H294     1.0000 0.22010  0.88470  0.62850  Biso   1.000  H
  H295     1.0000 0.27990  0.38470  0.87150  Biso   1.000  H
  H296     1.0000 0.72010  0.38470  0.62850  Biso   1.000  H
  C609     1.0000 0.44580  0.03300  0.43552  Biso   1.000  C
  C610     1.0000 0.55420  0.03300  0.06448  Biso   1.000  C
  C611     1.0000 0.94580  0.53300  0.43552  Biso   1.000  C
  C612     1.0000 0.05420  0.53300  0.06448  Biso   1.000  C
  C613     1.0000 0.55420  0.96700  0.56448  Biso   1.000  C
  C614     1.0000 0.44580  0.96700  0.93552  Biso   1.000  C
  C615     1.0000 0.05420  0.46700  0.56448  Biso   1.000  C
  C616     1.0000 0.94580  0.46700  0.93552  Biso   1.000  C
  H297     1.0000 0.45900  0.05990  0.44170  Biso   1.000  H
  H298     1.0000 0.54100  0.05990  0.05830  Biso   1.000  H
  H299     1.0000 0.95900  0.55990  0.44170  Biso   1.000  H
  H300     1.0000 0.04100  0.55990  0.05830  Biso   1.000  H
  H301     1.0000 0.54100  0.94010  0.55830  Biso   1.000  H
  H302     1.0000 0.45900  0.94010  0.94170  Biso   1.000  H
  H303     1.0000 0.04100  0.44010  0.55830  Biso   1.000  H
  H304     1.0000 0.95900  0.44010  0.94170  Biso   1.000  H
  C617     1.0000 0.40586  0.95551  0.41866  Biso   1.000  C
  C618     1.0000 0.59414  0.95551  0.08134  Biso   1.000  C
  C619     1.0000 0.90586  0.45551  0.41866  Biso   1.000  C
  C620     1.0000 0.09414  0.45551  0.08134  Biso   1.000  C
  C621     1.0000 0.59414  0.04449  0.58134  Biso   1.000  C
  C622     1.0000 0.40586  0.04449  0.91866  Biso   1.000  C
  C623     1.0000 0.09414  0.54449  0.58134  Biso   1.000  C
  C624     1.0000 0.90586  0.54449  0.91866  Biso   1.000  C
  H305     1.0000 0.39280  0.92850  0.41310  Biso   1.000  H
  H306     1.0000 0.60720  0.92850  0.08690  Biso   1.000  H
  H307     1.0000 0.89280  0.42850  0.41310  Biso   1.000  H
  H308     1.0000 0.10720  0.42850  0.08690  Biso   1.000  H
  H309     1.0000 0.60720  0.07150  0.58690  Biso   1.000  H
  H310     1.0000 0.39280  0.07150  0.91310  Biso   1.000  H
  H311     1.0000 0.10720  0.57150  0.58690  Biso   1.000  H
  H312     1.0000 0.89280  0.57150  0.91310  Biso   1.000  H
  C625     1.0000 0.17820  0.08456  0.04633  Biso   1.000  C
  C626     1.0000 0.82180  0.08456  0.45367  Biso   1.000  C
  C627     1.0000 0.67820  0.58456  0.04633  Biso   1.000  C
  C628     1.0000 0.32180  0.58456  0.45367  Biso   1.000  C
  C629     1.0000 0.82180  0.91544  0.95367  Biso   1.000  C
  C630     1.0000 0.17820  0.91544  0.54633  Biso   1.000  C
  C631     1.0000 0.32180  0.41544  0.95367  Biso   1.000  C
  C632     1.0000 0.67820  0.41544  0.54633  Biso   1.000  C
  H313     1.0000 0.16340  0.06170  0.03200  Biso   1.000  H
  H314     1.0000 0.83660  0.06170  0.46800  Biso   1.000  H
  H315     1.0000 0.66340  0.56170  0.03200  Biso   1.000  H
  H316     1.0000 0.33660  0.56170  0.46800  Biso   1.000  H
  H317     1.0000 0.83660  0.93830  0.96800  Biso   1.000  H
  H318     1.0000 0.16340  0.93830  0.53200  Biso   1.000  H
  H319     1.0000 0.33660  0.43830  0.96800  Biso   1.000  H
  H320     1.0000 0.66340  0.43830  0.53200  Biso   1.000  H
  C633     1.0000 0.19820  0.84282  0.07609  Biso   1.000  C
  C634     1.0000 0.80180  0.84282  0.42391  Biso   1.000  C
  C635     1.0000 0.69820  0.34282  0.07609  Biso   1.000  C
  C636     1.0000 0.30180  0.34282  0.42391  Biso   1.000  C
  C637     1.0000 0.80180  0.15718  0.92391  Biso   1.000  C
  C638     1.0000 0.19820  0.15718  0.57609  Biso   1.000  C
  C639     1.0000 0.30180  0.65718  0.92391  Biso   1.000  C
  C640     1.0000 0.69820  0.65718  0.57609  Biso   1.000  C
  H321     1.0000 0.20220  0.81640  0.08810  Biso   1.000  H
  H322     1.0000 0.79780  0.81640  0.41190  Biso   1.000  H
  H323     1.0000 0.70220  0.31640  0.08810  Biso   1.000  H
  H324     1.0000 0.29780  0.31640  0.41190  Biso   1.000  H
  H325     1.0000 0.79780  0.18360  0.91190  Biso   1.000  H
  H326     1.0000 0.20220  0.18360  0.58810  Biso   1.000  H
  H327     1.0000 0.29780  0.68360  0.91190  Biso   1.000  H
  H328     1.0000 0.70220  0.68360  0.58810  Biso   1.000  H
  C641     1.0000 0.18190  0.91920  0.04273  Biso   1.000  C
  C642     1.0000 0.81810  0.91920  0.45727  Biso   1.000  C
  C643     1.0000 0.68190  0.41920  0.04273  Biso   1.000  C
  C644     1.0000 0.31810  0.41920  0.45727  Biso   1.000  C
  C645     1.0000 0.81810  0.08080  0.95727  Biso   1.000  C
  C646     1.0000 0.18190  0.08080  0.54273  Biso   1.000  C
  C647     1.0000 0.31810  0.58080  0.95727  Biso   1.000  C
  C648     1.0000 0.68190  0.58080  0.54273  Biso   1.000  C
  H329     1.0000 0.17550  0.94510  0.02990  Biso   1.000  H
  H330     1.0000 0.82450  0.94510  0.47010  Biso   1.000  H
  H331     1.0000 0.67550  0.44510  0.02990  Biso   1.000  H
  H332     1.0000 0.32450  0.44510  0.47010  Biso   1.000  H
  H333     1.0000 0.82450  0.05490  0.97010  Biso   1.000  H
  H334     1.0000 0.17550  0.05490  0.52990  Biso   1.000  H
  H335     1.0000 0.32450  0.55490  0.97010  Biso   1.000  H
  H336     1.0000 0.67550  0.55490  0.52990  Biso   1.000  H
  C649     1.0000 0.18700  0.88160  0.02437  Biso   1.000  C
  C650     1.0000 0.81300  0.88160  0.47563  Biso   1.000  C
  C651     1.0000 0.68700  0.38160  0.02437  Biso   1.000  C
  C652     1.0000 0.31300  0.38160  0.47563  Biso   1.000  C
  C653     1.0000 0.81300  0.11840  0.97563  Biso   1.000  C
  C654     1.0000 0.18700  0.11840  0.52437  Biso   1.000  C
  C655     1.0000 0.31300  0.61840  0.97563  Biso   1.000  C
  C656     1.0000 0.68700  0.61840  0.52437  Biso   1.000  C
  H337     1.0000 0.18230  0.88290  0.99970  Biso   1.000  H
  H338     1.0000 0.81770  0.88290  0.50030  Biso   1.000  H
  H339     1.0000 0.68230  0.38290  0.99970  Biso   1.000  H
  H340     1.0000 0.31770  0.38290  0.50030  Biso   1.000  H
  H341     1.0000 0.81770  0.11710  0.00030  Biso   1.000  H
  H342     1.0000 0.18230  0.11710  0.49970  Biso   1.000  H
  H343     1.0000 0.31770  0.61710  0.00030  Biso   1.000  H
  H344     1.0000 0.68230  0.61710  0.49970  Biso   1.000  H
  C657     1.0000 0.19240  0.87920  0.09401  Biso   1.000  C
  C658     1.0000 0.80760  0.87920  0.40599  Biso   1.000  C
  C659     1.0000 0.69240  0.37920  0.09401  Biso   1.000  C
  C660     1.0000 0.30760  0.37920  0.40599  Biso   1.000  C
  C661     1.0000 0.80760  0.12080  0.90599  Biso   1.000  C
  C662     1.0000 0.19240  0.12080  0.59401  Biso   1.000  C
  C663     1.0000 0.30760  0.62080  0.90599  Biso   1.000  C
  C664     1.0000 0.69240  0.62080  0.59401  Biso   1.000  C
  H345     1.0000 0.19270  0.87680  0.11770  Biso   1.000  H
  H346     1.0000 0.80730  0.87680  0.38230  Biso   1.000  H
  H347     1.0000 0.69270  0.37680  0.11770  Biso   1.000  H
  H348     1.0000 0.30730  0.37680  0.38230  Biso   1.000  H
  H349     1.0000 0.80730  0.12320  0.88230  Biso   1.000  H
  H350     1.0000 0.19270  0.12320  0.61770  Biso   1.000  H
  H351     1.0000 0.30730  0.62320  0.88230  Biso   1.000  H
  H352     1.0000 0.69270  0.62320  0.61770  Biso   1.000  H
  O137     1.0000 0.72512  0.19655  0.52621  Biso   1.000  O
  O138     1.0000 0.27488  0.19655  0.97379  Biso   1.000  O
  O139     1.0000 0.22512  0.69655  0.52621  Biso   1.000  O
  O140     1.0000 0.77488  0.69655  0.97379  Biso   1.000  O
  O141     1.0000 0.27488  0.80345  0.47379  Biso   1.000  O
  O142     1.0000 0.72512  0.80345  0.02621  Biso   1.000  O
  O143     1.0000 0.77488  0.30345  0.47379  Biso   1.000  O
  O144     1.0000 0.22512  0.30345  0.02621  Biso   1.000  O
  O145     1.0000 0.68874  0.78505  0.47323  Biso   1.000  O
  O146     1.0000 0.31126  0.78505  0.02677  Biso   1.000  O
  O147     1.0000 0.18874  0.28505  0.47323  Biso   1.000  O
  O148     1.0000 0.81126  0.28505  0.02677  Biso   1.000  O
  O149     1.0000 0.31126  0.21495  0.52677  Biso   1.000  O
  O150     1.0000 0.68874  0.21495  0.97323  Biso   1.000  O
  O151     1.0000 0.81126  0.71495  0.52677  Biso   1.000  O
  O152     1.0000 0.18874  0.71495  0.97323  Biso   1.000  O
  C665     1.0000 0.19830  0.84399  0.04181  Biso   1.000  C
  C666     1.0000 0.80170  0.84399  0.45819  Biso   1.000  C
  C667     1.0000 0.69830  0.34399  0.04181  Biso   1.000  C
  C668     1.0000 0.30170  0.34399  0.45819  Biso   1.000  C
  C669     1.0000 0.80170  0.15601  0.95819  Biso   1.000  C
  C670     1.0000 0.19830  0.15601  0.54181  Biso   1.000  C
  C671     1.0000 0.30170  0.65601  0.95819  Biso   1.000  C
  C672     1.0000 0.69830  0.65601  0.54181  Biso   1.000  C
  C673     1.0000 0.18580  0.12134  0.02960  Biso   1.000  C
  C674     1.0000 0.81420  0.12134  0.47040  Biso   1.000  C
  C675     1.0000 0.68580  0.62134  0.02960  Biso   1.000  C
  C676     1.0000 0.31420  0.62134  0.47040  Biso   1.000  C
  C677     1.0000 0.81420  0.87866  0.97040  Biso   1.000  C
  C678     1.0000 0.18580  0.87866  0.52960  Biso   1.000  C
  C679     1.0000 0.31420  0.37866  0.97040  Biso   1.000  C
  C680     1.0000 0.68580  0.37866  0.52960  Biso   1.000  C
  H353     1.0000 0.17590  0.12300  0.00450  Biso   1.000  H
  H354     1.0000 0.82410  0.12300  0.49550  Biso   1.000  H
  H355     1.0000 0.67590  0.62300  0.00450  Biso   1.000  H
  H356     1.0000 0.32410  0.62300  0.49550  Biso   1.000  H
  H357     1.0000 0.82410  0.87700  0.99550  Biso   1.000  H
  H358     1.0000 0.17590  0.87700  0.50450  Biso   1.000  H
  H359     1.0000 0.32410  0.37700  0.99550  Biso   1.000  H
  H360     1.0000 0.67590  0.37700  0.50450  Biso   1.000  H
  C681     1.0000 0.22080  0.15238  0.08672  Biso   1.000  C
  C682     1.0000 0.77920  0.15238  0.41328  Biso   1.000  C
  C683     1.0000 0.72080  0.65238  0.08672  Biso   1.000  C
  C684     1.0000 0.27920  0.65238  0.41328  Biso   1.000  C
  C685     1.0000 0.77920  0.84762  0.91328  Biso   1.000  C
  C686     1.0000 0.22080  0.84762  0.58672  Biso   1.000  C
  C687     1.0000 0.27920  0.34762  0.91328  Biso   1.000  C
  C688     1.0000 0.72080  0.34762  0.58672  Biso   1.000  C
  H361     1.0000 0.23580  0.17530  0.10090  Biso   1.000  H
  H362     1.0000 0.76420  0.17530  0.39910  Biso   1.000  H
  H363     1.0000 0.73580  0.67530  0.10090  Biso   1.000  H
  H364     1.0000 0.26420  0.67530  0.39910  Biso   1.000  H
  H365     1.0000 0.76420  0.82470  0.89910  Biso   1.000  H
  H366     1.0000 0.23580  0.82470  0.60090  Biso   1.000  H
  H367     1.0000 0.26420  0.32470  0.89910  Biso   1.000  H
  H368     1.0000 0.73580  0.32470  0.60090  Biso   1.000  H
  C689     1.0000 0.20785  0.15564  0.04994  Biso   1.000  C
  C690     1.0000 0.79215  0.15564  0.45006  Biso   1.000  C
  C691     1.0000 0.70785  0.65564  0.04994  Biso   1.000  C
  C692     1.0000 0.29215  0.65564  0.45006  Biso   1.000  C
  C693     1.0000 0.79215  0.84436  0.95006  Biso   1.000  C
  C694     1.0000 0.20785  0.84436  0.54994  Biso   1.000  C
  C695     1.0000 0.29215  0.34436  0.95006  Biso   1.000  C
  C696     1.0000 0.70785  0.34436  0.54994  Biso   1.000  C
  C697     1.0000 0.21170  0.80596  0.02480  Biso   1.000  C
  C698     1.0000 0.78830  0.80596  0.47520  Biso   1.000  C
  C699     1.0000 0.71170  0.30596  0.02480  Biso   1.000  C
  C700     1.0000 0.28830  0.30596  0.47520  Biso   1.000  C
  C701     1.0000 0.78830  0.19404  0.97520  Biso   1.000  C
  C702     1.0000 0.21170  0.19404  0.52480  Biso   1.000  C
  C703     1.0000 0.28830  0.69404  0.97520  Biso   1.000  C
  C704     1.0000 0.71170  0.69404  0.52480  Biso   1.000  C
  O153     1.0000 0.19848  0.80374  0.99107  Biso   1.000  O
  O154     1.0000 0.80152  0.80374  0.50893  Biso   1.000  O
  O155     1.0000 0.69848  0.30374  0.99107  Biso   1.000  O
  O156     1.0000 0.30152  0.30374  0.50893  Biso   1.000  O
  O157     1.0000 0.80152  0.19626  0.00893  Biso   1.000  O
  O158     1.0000 0.19848  0.19626  0.49107  Biso   1.000  O
  O159     1.0000 0.30152  0.69626  0.00893  Biso   1.000  O
  O160     1.0000 0.69848  0.69626  0.49107  Biso   1.000  O
  O161     1.0000 0.23770  0.77981  0.04630  Biso   1.000  O
  O162     1.0000 0.76230  0.77981  0.45370  Biso   1.000  O
  O163     1.0000 0.73770  0.27981  0.04630  Biso   1.000  O
  O164     1.0000 0.26230  0.27981  0.45370  Biso   1.000  O
  O165     1.0000 0.76230  0.22019  0.95370  Biso   1.000  O
  O166     1.0000 0.23770  0.22019  0.54630  Biso   1.000  O
  O167     1.0000 0.26230  0.72019  0.95370  Biso   1.000  O
  O168     1.0000 0.73770  0.72019  0.54630  Biso   1.000  O
  C705     1.0000 0.22078  0.19333  0.03164  Biso   1.000  C
  C706     1.0000 0.77922  0.19333  0.46836  Biso   1.000  C
  C707     1.0000 0.72078  0.69333  0.03164  Biso   1.000  C
  C708     1.0000 0.27922  0.69333  0.46836  Biso   1.000  C
  C709     1.0000 0.77922  0.80667  0.96836  Biso   1.000  C
  C710     1.0000 0.22078  0.80667  0.53164  Biso   1.000  C
  C711     1.0000 0.27922  0.30667  0.96836  Biso   1.000  C
  C712     1.0000 0.72078  0.30667  0.53164  Biso   1.000  C
  O169     1.0000 0.24778  0.21945  0.05202  Biso   1.000  O
  O170     1.0000 0.75222  0.21945  0.44798  Biso   1.000  O
  O171     1.0000 0.74778  0.71945  0.05202  Biso   1.000  O
  O172     1.0000 0.25222  0.71945  0.44798  Biso   1.000  O
  O173     1.0000 0.75222  0.78055  0.94798  Biso   1.000  O
  O174     1.0000 0.24778  0.78055  0.55202  Biso   1.000  O
  O175     1.0000 0.25222  0.28055  0.94798  Biso   1.000  O
  O176     1.0000 0.74778  0.28055  0.55202  Biso   1.000  O
  O177     1.0000 0.20487  0.19503  0.99803  Biso   1.000  O
  O178     1.0000 0.79513  0.19503  0.50197  Biso   1.000  O
  O179     1.0000 0.70487  0.69503  0.99803  Biso   1.000  O
  O180     1.0000 0.29513  0.69503  0.50197  Biso   1.000  O
  O181     1.0000 0.79513  0.80497  0.00197  Biso   1.000  O
  O182     1.0000 0.20487  0.80497  0.49803  Biso   1.000  O
  O183     1.0000 0.29513  0.30497  0.00197  Biso   1.000  O
  O184     1.0000 0.70487  0.30497  0.49803  Biso   1.000  O
  C713     1.0000 0.87903  0.91175  0.26560  Biso   1.000  C
  C714     1.0000 0.12097  0.91175  0.23440  Biso   1.000  C
  C715     1.0000 0.37903  0.41175  0.26560  Biso   1.000  C
  C716     1.0000 0.62097  0.41175  0.23440  Biso   1.000  C
  C717     1.0000 0.12097  0.08825  0.73440  Biso   1.000  C
  C718     1.0000 0.87903  0.08825  0.76560  Biso   1.000  C
  C719     1.0000 0.62097  0.58825  0.73440  Biso   1.000  C
  C720     1.0000 0.37903  0.58825  0.76560  Biso   1.000  C
  C721     1.0000 0.84376  0.90409  0.23487  Biso   1.000  C
  C722     1.0000 0.15624  0.90409  0.26513  Biso   1.000  C
  C723     1.0000 0.34376  0.40409  0.23487  Biso   1.000  C
  C724     1.0000 0.65624  0.40409  0.26513  Biso   1.000  C
  C725     1.0000 0.15624  0.09591  0.76513  Biso   1.000  C
  C726     1.0000 0.84376  0.09591  0.73487  Biso   1.000  C
  C727     1.0000 0.65624  0.59591  0.76513  Biso   1.000  C
  C728     1.0000 0.34376  0.59591  0.73487  Biso   1.000  C
  H369     1.0000 0.83860  0.92240  0.21500  Biso   1.000  H
  H370     1.0000 0.16140  0.92240  0.28500  Biso   1.000  H
  H371     1.0000 0.33860  0.42240  0.21500  Biso   1.000  H
  H372     1.0000 0.66140  0.42240  0.28500  Biso   1.000  H
  H373     1.0000 0.16140  0.07760  0.78500  Biso   1.000  H
  H374     1.0000 0.83860  0.07760  0.71500  Biso   1.000  H
  H375     1.0000 0.66140  0.57760  0.78500  Biso   1.000  H
  H376     1.0000 0.33860  0.57760  0.71500  Biso   1.000  H
  C729     1.0000 0.88633  0.88312  0.29455  Biso   1.000  C
  C730     1.0000 0.11367  0.88312  0.20545  Biso   1.000  C
  C731     1.0000 0.38633  0.38312  0.29455  Biso   1.000  C
  C732     1.0000 0.61367  0.38312  0.20545  Biso   1.000  C
  C733     1.0000 0.11367  0.11688  0.70545  Biso   1.000  C
  C734     1.0000 0.88633  0.11688  0.79455  Biso   1.000  C
  C735     1.0000 0.61367  0.61688  0.70545  Biso   1.000  C
  C736     1.0000 0.38633  0.61688  0.79455  Biso   1.000  C
  H377     1.0000 0.91040  0.88700  0.31550  Biso   1.000  H
  H378     1.0000 0.08960  0.88700  0.18450  Biso   1.000  H
  H379     1.0000 0.41040  0.38700  0.31550  Biso   1.000  H
  H380     1.0000 0.58960  0.38700  0.18450  Biso   1.000  H
  H381     1.0000 0.08960  0.11300  0.68450  Biso   1.000  H
  H382     1.0000 0.91040  0.11300  0.81550  Biso   1.000  H
  H383     1.0000 0.58960  0.61300  0.68450  Biso   1.000  H
  H384     1.0000 0.41040  0.61300  0.81550  Biso   1.000  H
  C737     1.0000 0.81586  0.86990  0.23279  Biso   1.000  C
  C738     1.0000 0.18414  0.86990  0.26721  Biso   1.000  C
  C739     1.0000 0.31586  0.36990  0.23279  Biso   1.000  C
  C740     1.0000 0.68414  0.36990  0.26721  Biso   1.000  C
  C741     1.0000 0.18414  0.13010  0.76721  Biso   1.000  C
  C742     1.0000 0.81586  0.13010  0.73279  Biso   1.000  C
  C743     1.0000 0.68414  0.63010  0.76721  Biso   1.000  C
  C744     1.0000 0.31586  0.63010  0.73279  Biso   1.000  C
  H385     1.0000 0.79220  0.86570  0.21170  Biso   1.000  H
  H386     1.0000 0.20780  0.86570  0.28830  Biso   1.000  H
  H387     1.0000 0.29220  0.36570  0.21170  Biso   1.000  H
  H388     1.0000 0.70780  0.36570  0.28830  Biso   1.000  H
  H389     1.0000 0.20780  0.13430  0.78830  Biso   1.000  H
  H390     1.0000 0.79220  0.13430  0.71170  Biso   1.000  H
  H391     1.0000 0.70780  0.63430  0.78830  Biso   1.000  H
  H392     1.0000 0.29220  0.63430  0.71170  Biso   1.000  H
  C745     1.0000 0.85796  0.84891  0.29238  Biso   1.000  C
  C746     1.0000 0.14204  0.84891  0.20762  Biso   1.000  C
  C747     1.0000 0.35796  0.34891  0.29238  Biso   1.000  C
  C748     1.0000 0.64204  0.34891  0.20762  Biso   1.000  C
  C749     1.0000 0.14204  0.15109  0.70762  Biso   1.000  C
  C750     1.0000 0.85796  0.15109  0.79238  Biso   1.000  C
  C751     1.0000 0.64204  0.65109  0.70762  Biso   1.000  C
  C752     1.0000 0.35796  0.65109  0.79238  Biso   1.000  C
  H393     1.0000 0.86310  0.83050  0.31210  Biso   1.000  H
  H394     1.0000 0.13690  0.83050  0.18790  Biso   1.000  H
  H395     1.0000 0.36310  0.33050  0.31210  Biso   1.000  H
  H396     1.0000 0.63690  0.33050  0.18790  Biso   1.000  H
  H397     1.0000 0.13690  0.16950  0.68790  Biso   1.000  H
  H398     1.0000 0.86310  0.16950  0.81210  Biso   1.000  H
  H399     1.0000 0.63690  0.66950  0.68790  Biso   1.000  H
  H400     1.0000 0.36310  0.66950  0.81210  Biso   1.000  H
  C753     1.0000 0.82231  0.84155  0.26158  Biso   1.000  C
  C754     1.0000 0.17769  0.84155  0.23842  Biso   1.000  C
  C755     1.0000 0.32231  0.34155  0.26158  Biso   1.000  C
  C756     1.0000 0.67769  0.34155  0.23842  Biso   1.000  C
  C757     1.0000 0.17769  0.15845  0.73842  Biso   1.000  C
  C758     1.0000 0.82231  0.15845  0.76158  Biso   1.000  C
  C759     1.0000 0.67769  0.65845  0.73842  Biso   1.000  C
  C760     1.0000 0.32231  0.65845  0.76158  Biso   1.000  C
  C761     1.0000 0.79111  0.80639  0.26013  Biso   1.000  C
  C762     1.0000 0.20889  0.80639  0.23987  Biso   1.000  C
  C763     1.0000 0.29111  0.30639  0.26013  Biso   1.000  C
  C764     1.0000 0.70889  0.30639  0.23987  Biso   1.000  C
  C765     1.0000 0.20889  0.19361  0.73987  Biso   1.000  C
  C766     1.0000 0.79111  0.19361  0.76013  Biso   1.000  C
  C767     1.0000 0.70889  0.69361  0.73987  Biso   1.000  C
  C768     1.0000 0.29111  0.69361  0.76013  Biso   1.000  C
  O185     1.0000 0.75715  0.80470  0.23276  Biso   1.000  O
  O186     1.0000 0.24285  0.80470  0.26724  Biso   1.000  O
  O187     1.0000 0.25715  0.30470  0.23276  Biso   1.000  O
  O188     1.0000 0.74285  0.30470  0.26724  Biso   1.000  O
  O189     1.0000 0.24285  0.19530  0.76724  Biso   1.000  O
  O190     1.0000 0.75715  0.19530  0.73276  Biso   1.000  O
  O191     1.0000 0.74285  0.69530  0.76724  Biso   1.000  O
  O192     1.0000 0.25715  0.69530  0.73276  Biso   1.000  O
  O193     1.0000 0.80026  0.78038  0.28606  Biso   1.000  O
  O194     1.0000 0.19974  0.78038  0.21394  Biso   1.000  O
  O195     1.0000 0.30026  0.28038  0.28606  Biso   1.000  O
  O196     1.0000 0.69974  0.28038  0.21394  Biso   1.000  O
  O197     1.0000 0.19974  0.21962  0.71394  Biso   1.000  O
  O198     1.0000 0.80026  0.21962  0.78606  Biso   1.000  O
  O199     1.0000 0.69974  0.71962  0.71394  Biso   1.000  O
  O200     1.0000 0.30026  0.71962  0.78606  Biso   1.000  O
  C769     1.0000 0.33710  0.08117  0.70471  Biso   1.000  C
  C770     1.0000 0.66290  0.08117  0.79529  Biso   1.000  C
  C771     1.0000 0.83710  0.58117  0.70471  Biso   1.000  C
  C772     1.0000 0.16290  0.58117  0.79529  Biso   1.000  C
  C773     1.0000 0.66290  0.91883  0.29529  Biso   1.000  C
  C774     1.0000 0.33710  0.91883  0.20471  Biso   1.000  C
  C775     1.0000 0.16290  0.41883  0.29529  Biso   1.000  C
  C776     1.0000 0.83710  0.41883  0.20471  Biso   1.000  C
  H401     1.0000 0.35250  0.05920  0.71990  Biso   1.000  H
  H402     1.0000 0.64750  0.05920  0.78010  Biso   1.000  H
  H403     1.0000 0.85250  0.55920  0.71990  Biso   1.000  H
  H404     1.0000 0.14750  0.55920  0.78010  Biso   1.000  H
  H405     1.0000 0.64750  0.94080  0.28010  Biso   1.000  H
  H406     1.0000 0.35250  0.94080  0.21990  Biso   1.000  H
  H407     1.0000 0.14750  0.44080  0.28010  Biso   1.000  H
  H408     1.0000 0.85250  0.44080  0.21990  Biso   1.000  H
  C777     1.0000 0.29780  0.10813  0.64669  Biso   1.000  C
  C778     1.0000 0.70220  0.10813  0.85331  Biso   1.000  C
  C779     1.0000 0.79780  0.60813  0.64669  Biso   1.000  C
  C780     1.0000 0.20220  0.60813  0.85331  Biso   1.000  C
  C781     1.0000 0.70220  0.89187  0.35331  Biso   1.000  C
  C782     1.0000 0.29780  0.89187  0.14669  Biso   1.000  C
  C783     1.0000 0.20220  0.39187  0.35331  Biso   1.000  C
  C784     1.0000 0.79780  0.39187  0.14669  Biso   1.000  C
  H409     1.0000 0.28550  0.10440  0.62180  Biso   1.000  H
  H410     1.0000 0.71450  0.10440  0.87820  Biso   1.000  H
  H411     1.0000 0.78550  0.60440  0.62180  Biso   1.000  H
  H412     1.0000 0.21450  0.60440  0.87820  Biso   1.000  H
  H413     1.0000 0.71450  0.89560  0.37820  Biso   1.000  H
  H414     1.0000 0.28550  0.89560  0.12180  Biso   1.000  H
  H415     1.0000 0.21450  0.39560  0.37820  Biso   1.000  H
  H416     1.0000 0.78550  0.39560  0.12180  Biso   1.000  H
  C785     1.0000 0.29390  0.14728  0.66201  Biso   1.000  C
  C786     1.0000 0.70610  0.14728  0.83799  Biso   1.000  C
  C787     1.0000 0.79390  0.64728  0.66201  Biso   1.000  C
  C788     1.0000 0.20610  0.64728  0.83799  Biso   1.000  C
  C789     1.0000 0.70610  0.85272  0.33799  Biso   1.000  C
  C790     1.0000 0.29390  0.85272  0.16201  Biso   1.000  C
  C791     1.0000 0.20610  0.35272  0.33799  Biso   1.000  C
  C792     1.0000 0.79390  0.35272  0.16201  Biso   1.000  C
  H417     1.0000 0.27980  0.17000  0.64710  Biso   1.000  H
  H418     1.0000 0.72020  0.17000  0.85290  Biso   1.000  H
  H419     1.0000 0.77980  0.67000  0.64710  Biso   1.000  H
  H420     1.0000 0.22020  0.67000  0.85290  Biso   1.000  H
  H421     1.0000 0.72020  0.83000  0.35290  Biso   1.000  H
  H422     1.0000 0.27980  0.83000  0.14710  Biso   1.000  H
  H423     1.0000 0.22020  0.33000  0.35290  Biso   1.000  H
  H424     1.0000 0.77980  0.33000  0.14710  Biso   1.000  H
  C793     1.0000 0.31019  0.15370  0.69841  Biso   1.000  C
  C794     1.0000 0.68981  0.15370  0.80159  Biso   1.000  C
  C795     1.0000 0.81019  0.65370  0.69841  Biso   1.000  C
  C796     1.0000 0.18981  0.65370  0.80159  Biso   1.000  C
  C797     1.0000 0.68981  0.84630  0.30159  Biso   1.000  C
  C798     1.0000 0.31019  0.84630  0.19841  Biso   1.000  C
  C799     1.0000 0.18981  0.34630  0.30159  Biso   1.000  C
  C800     1.0000 0.81019  0.34630  0.19841  Biso   1.000  C
  C801     1.0000 0.30926  0.91418  0.67857  Biso   1.000  C
  C802     1.0000 0.69074  0.91418  0.82143  Biso   1.000  C
  C803     1.0000 0.80926  0.41418  0.67857  Biso   1.000  C
  C804     1.0000 0.19074  0.41418  0.82143  Biso   1.000  C
  C805     1.0000 0.69074  0.08582  0.32143  Biso   1.000  C
  C806     1.0000 0.30926  0.08582  0.17857  Biso   1.000  C
  C807     1.0000 0.19074  0.58582  0.32143  Biso   1.000  C
  C808     1.0000 0.80926  0.58582  0.17857  Biso   1.000  C
  C809     1.0000 0.30042  0.91926  0.70981  Biso   1.000  C
  C810     1.0000 0.69958  0.91926  0.79019  Biso   1.000  C
  C811     1.0000 0.80042  0.41926  0.70981  Biso   1.000  C
  C812     1.0000 0.19958  0.41926  0.79019  Biso   1.000  C
  C813     1.0000 0.69958  0.08074  0.29019  Biso   1.000  C
  C814     1.0000 0.30042  0.08074  0.20981  Biso   1.000  C
  C815     1.0000 0.19958  0.58074  0.29019  Biso   1.000  C
  C816     1.0000 0.80042  0.58074  0.20981  Biso   1.000  C
  H425     1.0000 0.30100  0.94690  0.71930  Biso   1.000  H
  H426     1.0000 0.69900  0.94690  0.78070  Biso   1.000  H
  H427     1.0000 0.80100  0.44690  0.71930  Biso   1.000  H
  H428     1.0000 0.19900  0.44690  0.78070  Biso   1.000  H
  H429     1.0000 0.69900  0.05310  0.28070  Biso   1.000  H
  H430     1.0000 0.30100  0.05310  0.21930  Biso   1.000  H
  H431     1.0000 0.19900  0.55310  0.28070  Biso   1.000  H
  H432     1.0000 0.80100  0.55310  0.21930  Biso   1.000  H
  C817     1.0000 0.31030  0.87201  0.66660  Biso   1.000  C
  C818     1.0000 0.68970  0.87201  0.83340  Biso   1.000  C
  C819     1.0000 0.81030  0.37201  0.66660  Biso   1.000  C
  C820     1.0000 0.18970  0.37201  0.83340  Biso   1.000  C
  C821     1.0000 0.68970  0.12799  0.33340  Biso   1.000  C
  C822     1.0000 0.31030  0.12799  0.16660  Biso   1.000  C
  C823     1.0000 0.18970  0.62799  0.33340  Biso   1.000  C
  C824     1.0000 0.81030  0.62799  0.16660  Biso   1.000  C
  H433     1.0000 0.31820  0.86730  0.64630  Biso   1.000  H
  H434     1.0000 0.68180  0.86730  0.85370  Biso   1.000  H
  H435     1.0000 0.81820  0.36730  0.64630  Biso   1.000  H
  H436     1.0000 0.18180  0.36730  0.85370  Biso   1.000  H
  H437     1.0000 0.68180  0.13270  0.35370  Biso   1.000  H
  H438     1.0000 0.31820  0.13270  0.14630  Biso   1.000  H
  H439     1.0000 0.18180  0.63270  0.35370  Biso   1.000  H
  H440     1.0000 0.81820  0.63270  0.14630  Biso   1.000  H
  C825     1.0000 0.29050  0.88406  0.72818  Biso   1.000  C
  C826     1.0000 0.70950  0.88406  0.77182  Biso   1.000  C
  C827     1.0000 0.79050  0.38406  0.72818  Biso   1.000  C
  C828     1.0000 0.20950  0.38406  0.77182  Biso   1.000  C
  C829     1.0000 0.70950  0.11594  0.27182  Biso   1.000  C
  C830     1.0000 0.29050  0.11594  0.22818  Biso   1.000  C
  C831     1.0000 0.20950  0.61594  0.27182  Biso   1.000  C
  C832     1.0000 0.79050  0.61594  0.22818  Biso   1.000  C
  H441     1.0000 0.28590  0.88840  0.75000  Biso   1.000  H
  H442     1.0000 0.71410  0.88840  0.75000  Biso   1.000  H
  H443     1.0000 0.78590  0.38840  0.75000  Biso   1.000  H
  H444     1.0000 0.21410  0.38840  0.75000  Biso   1.000  H
  H445     1.0000 0.71410  0.11160  0.25000  Biso   1.000  H
  H446     1.0000 0.28590  0.11160  0.25000  Biso   1.000  H
  H447     1.0000 0.21410  0.61160  0.25000  Biso   1.000  H
  H448     1.0000 0.78590  0.61160  0.25000  Biso   1.000  H
  C833     1.0000 0.29990  0.83694  0.68381  Biso   1.000  C
  C834     1.0000 0.70010  0.83694  0.81619  Biso   1.000  C
  C835     1.0000 0.79990  0.33694  0.68381  Biso   1.000  C
  C836     1.0000 0.20010  0.33694  0.81619  Biso   1.000  C
  C837     1.0000 0.70010  0.16306  0.31619  Biso   1.000  C
  C838     1.0000 0.29990  0.16306  0.18381  Biso   1.000  C
  C839     1.0000 0.20010  0.66306  0.31619  Biso   1.000  C
  C840     1.0000 0.79990  0.66306  0.18381  Biso   1.000  C
  H449     1.0000 0.30110  0.80910  0.67520  Biso   1.000  H
  H450     1.0000 0.69890  0.80910  0.82480  Biso   1.000  H
  H451     1.0000 0.80110  0.30910  0.67520  Biso   1.000  H
  H452     1.0000 0.19890  0.30910  0.82480  Biso   1.000  H
  H453     1.0000 0.69890  0.19090  0.32480  Biso   1.000  H
  H454     1.0000 0.30110  0.19090  0.17520  Biso   1.000  H
  H455     1.0000 0.19890  0.69090  0.32480  Biso   1.000  H
  H456     1.0000 0.80110  0.69090  0.17520  Biso   1.000  H
  C841     1.0000 0.28754  0.84313  0.71391  Biso   1.000  C
  C842     1.0000 0.71246  0.84313  0.78609  Biso   1.000  C
  C843     1.0000 0.78754  0.34313  0.71391  Biso   1.000  C
  C844     1.0000 0.21246  0.34313  0.78609  Biso   1.000  C
  C845     1.0000 0.71246  0.15687  0.28609  Biso   1.000  C
  C846     1.0000 0.28754  0.15687  0.21391  Biso   1.000  C
  C847     1.0000 0.21246  0.65687  0.28609  Biso   1.000  C
  C848     1.0000 0.78754  0.65687  0.21391  Biso   1.000  C
  C849     1.0000 0.27120  0.80663  0.73084  Biso   1.000  C
  C850     1.0000 0.72880  0.80663  0.76916  Biso   1.000  C
  C851     1.0000 0.77120  0.30663  0.73084  Biso   1.000  C
  C852     1.0000 0.22880  0.30663  0.76916  Biso   1.000  C
  C853     1.0000 0.72880  0.19337  0.26916  Biso   1.000  C
  C854     1.0000 0.27120  0.19337  0.23084  Biso   1.000  C
  C855     1.0000 0.22880  0.69337  0.26916  Biso   1.000  C
  C856     1.0000 0.77120  0.69337  0.23084  Biso   1.000  C
  O201     1.0000 0.24552  0.78019  0.70974  Biso   1.000  O
  O202     1.0000 0.75448  0.78019  0.79026  Biso   1.000  O
  O203     1.0000 0.74552  0.28019  0.70974  Biso   1.000  O
  O204     1.0000 0.25448  0.28019  0.79026  Biso   1.000  O
  O205     1.0000 0.75448  0.21981  0.29026  Biso   1.000  O
  O206     1.0000 0.24552  0.21981  0.20974  Biso   1.000  O
  O207     1.0000 0.25448  0.71981  0.29026  Biso   1.000  O
  O208     1.0000 0.74552  0.71981  0.20974  Biso   1.000  O
  O209     1.0000 0.28341  0.80638  0.76483  Biso   1.000  O
  O210     1.0000 0.71659  0.80638  0.73517  Biso   1.000  O
  O211     1.0000 0.78341  0.30638  0.76483  Biso   1.000  O
  O212     1.0000 0.21659  0.30638  0.73517  Biso   1.000  O
  O213     1.0000 0.71659  0.19362  0.23517  Biso   1.000  O
  O214     1.0000 0.28341  0.19362  0.26483  Biso   1.000  O
  O215     1.0000 0.21659  0.69362  0.23517  Biso   1.000  O
  O216     1.0000 0.78341  0.69362  0.26483  Biso   1.000  O
  C857     1.0000 0.29850  0.19397  0.71476  Biso   1.000  C
  C858     1.0000 0.70150  0.19397  0.78524  Biso   1.000  C
  C859     1.0000 0.79850  0.69397  0.71476  Biso   1.000  C
  C860     1.0000 0.20150  0.69397  0.78524  Biso   1.000  C
  C861     1.0000 0.70150  0.80603  0.28524  Biso   1.000  C
  C862     1.0000 0.29850  0.80603  0.21476  Biso   1.000  C
  C863     1.0000 0.20150  0.30603  0.28524  Biso   1.000  C
  C864     1.0000 0.79850  0.30603  0.21476  Biso   1.000  C
  O217     1.0000 0.31500  0.19902  0.74823  Biso   1.000  O
  O218     1.0000 0.68500  0.19902  0.75177  Biso   1.000  O
  O219     1.0000 0.81500  0.69902  0.74823  Biso   1.000  O
  O220     1.0000 0.18500  0.69902  0.75177  Biso   1.000  O
  O221     1.0000 0.68500  0.80098  0.25177  Biso   1.000  O
  O222     1.0000 0.31500  0.80098  0.24823  Biso   1.000  O
  O223     1.0000 0.18500  0.30098  0.25177  Biso   1.000  O
  O224     1.0000 0.81500  0.30098  0.24823  Biso   1.000  O
  O225     1.0000 0.27145  0.21865  0.69322  Biso   1.000  O
  O226     1.0000 0.72855  0.21865  0.80678  Biso   1.000  O
  O227     1.0000 0.77145  0.71865  0.69322  Biso   1.000  O
  O228     1.0000 0.22855  0.71865  0.80678  Biso   1.000  O
  O229     1.0000 0.72855  0.78135  0.30678  Biso   1.000  O
  O230     1.0000 0.27145  0.78135  0.19322  Biso   1.000  O
  O231     1.0000 0.22855  0.28135  0.30678  Biso   1.000  O
  O232     1.0000 0.77145  0.28135  0.19322  Biso   1.000  O
  C865     1.0000 0.68970  0.33480  0.41680  Biso   1.000  C
  C866     1.0000 0.31030  0.33480  0.08320  Biso   1.000  C
  C867     1.0000 0.18970  0.83480  0.41680  Biso   1.000  C
  C868     1.0000 0.81030  0.83480  0.08320  Biso   1.000  C
  C869     1.0000 0.31030  0.66520  0.58320  Biso   1.000  C
  C870     1.0000 0.68970  0.66520  0.91680  Biso   1.000  C
  C871     1.0000 0.81030  0.16520  0.58320  Biso   1.000  C
  C872     1.0000 0.18970  0.16520  0.91680  Biso   1.000  C
  H457     1.0000 0.71160  0.34940  0.43470  Biso   1.000  H
  H458     1.0000 0.28840  0.34940  0.06530  Biso   1.000  H
  H459     1.0000 0.21160  0.84940  0.43470  Biso   1.000  H
  H460     1.0000 0.78840  0.84940  0.06530  Biso   1.000  H
  H461     1.0000 0.28840  0.65060  0.56530  Biso   1.000  H
  H462     1.0000 0.71160  0.65060  0.93470  Biso   1.000  H
  H463     1.0000 0.78840  0.15060  0.56530  Biso   1.000  H
  H464     1.0000 0.21160  0.15060  0.93470  Biso   1.000  H
  C873     1.0000 0.67170  0.24500  0.13770  Biso   1.000  C
  C874     1.0000 0.32830  0.24500  0.36230  Biso   1.000  C
  C875     1.0000 0.17170  0.74500  0.13770  Biso   1.000  C
  C876     1.0000 0.82830  0.74500  0.36230  Biso   1.000  C
  C877     1.0000 0.32830  0.75500  0.86230  Biso   1.000  C
  C878     1.0000 0.67170  0.75500  0.63770  Biso   1.000  C
  C879     1.0000 0.82830  0.25500  0.86230  Biso   1.000  C
  C880     1.0000 0.17170  0.25500  0.63770  Biso   1.000  C
  H465     1.0000 0.66400  0.26600  0.15140  Biso   1.000  H
  H466     1.0000 0.33600  0.26600  0.34860  Biso   1.000  H
  H467     1.0000 0.16400  0.76600  0.15140  Biso   1.000  H
  H468     1.0000 0.83600  0.76600  0.34860  Biso   1.000  H
  H469     1.0000 0.33600  0.73400  0.84860  Biso   1.000  H
  H470     1.0000 0.66400  0.73400  0.65140  Biso   1.000  H
  H471     1.0000 0.83600  0.23400  0.84860  Biso   1.000  H
  H472     1.0000 0.16400  0.23400  0.65140  Biso   1.000  H
  N1       1.0000 0.66410  0.35530  0.38670  Biso   1.000  N
  N2       1.0000 0.33590  0.35530  0.11330  Biso   1.000  N
  N3       1.0000 0.16410  0.85530  0.38670  Biso   1.000  N
  N4       1.0000 0.83590  0.85530  0.11330  Biso   1.000  N
  N5       1.0000 0.33590  0.64470  0.61330  Biso   1.000  N
  N6       1.0000 0.66410  0.64470  0.88670  Biso   1.000  N
  N7       1.0000 0.83590  0.14470  0.61330  Biso   1.000  N
  N8       1.0000 0.16410  0.14470  0.88670  Biso   1.000  N
  H473     1.0000 0.66170  0.38300  0.38630  Biso   1.000  H
  H474     1.0000 0.33830  0.38300  0.11370  Biso   1.000  H
  H475     1.0000 0.16170  0.88300  0.38630  Biso   1.000  H
  H476     1.0000 0.83830  0.88300  0.11370  Biso   1.000  H
  H477     1.0000 0.33830  0.61700  0.61370  Biso   1.000  H
  H478     1.0000 0.66170  0.61700  0.88630  Biso   1.000  H
  H479     1.0000 0.83830  0.11700  0.61370  Biso   1.000  H
  H480     1.0000 0.16170  0.11700  0.88630  Biso   1.000  H
  C881     1.0000 0.83900  0.74770  0.60550  Biso   1.000  C
  C882     1.0000 0.16100  0.74770  0.89450  Biso   1.000  C
  C883     1.0000 0.33900  0.24770  0.60550  Biso   1.000  C
  C884     1.0000 0.66100  0.24770  0.89450  Biso   1.000  C
  C885     1.0000 0.16100  0.25230  0.39450  Biso   1.000  C
  C886     1.0000 0.83900  0.25230  0.10550  Biso   1.000  C
  C887     1.0000 0.66100  0.75230  0.39450  Biso   1.000  C
  C888     1.0000 0.33900  0.75230  0.10550  Biso   1.000  C
  H481     1.0000 0.84410  0.72450  0.59240  Biso   1.000  H
  H482     1.0000 0.15590  0.72450  0.90760  Biso   1.000  H
  H483     1.0000 0.34410  0.22450  0.59240  Biso   1.000  H
  H484     1.0000 0.65590  0.22450  0.90760  Biso   1.000  H
  H485     1.0000 0.15590  0.27550  0.40760  Biso   1.000  H
  H486     1.0000 0.84410  0.27550  0.09240  Biso   1.000  H
  H487     1.0000 0.65590  0.77550  0.40760  Biso   1.000  H
  H488     1.0000 0.34410  0.77550  0.09240  Biso   1.000  H
  N9       1.0000 0.86120  0.74780  0.64030  Biso   1.000  N
  N10      1.0000 0.13880  0.74780  0.85970  Biso   1.000  N
  N11      1.0000 0.36120  0.24780  0.64030  Biso   1.000  N
  N12      1.0000 0.63880  0.24780  0.85970  Biso   1.000  N
  N13      1.0000 0.13880  0.25220  0.35970  Biso   1.000  N
  N14      1.0000 0.86120  0.25220  0.14030  Biso   1.000  N
  N15      1.0000 0.63880  0.75220  0.35970  Biso   1.000  N
  N16      1.0000 0.36120  0.75220  0.14030  Biso   1.000  N
  H489     1.0000 0.88100  0.72870  0.64930  Biso   1.000  H
  H490     1.0000 0.11900  0.72870  0.85070  Biso   1.000  H
  H491     1.0000 0.38100  0.22870  0.64930  Biso   1.000  H
  H492     1.0000 0.61900  0.22870  0.85070  Biso   1.000  H
  H493     1.0000 0.11900  0.27130  0.35070  Biso   1.000  H
  H494     1.0000 0.88100  0.27130  0.14930  Biso   1.000  H
  H495     1.0000 0.61900  0.77130  0.35070  Biso   1.000  H
  H496     1.0000 0.38100  0.77130  0.14930  Biso   1.000  H
  N17      1.0000 0.64820  0.24310  0.10170  Biso   1.000  N
  N18      1.0000 0.35180  0.24310  0.39830  Biso   1.000  N
  N19      1.0000 0.14820  0.74310  0.10170  Biso   1.000  N
  N20      1.0000 0.85180  0.74310  0.39830  Biso   1.000  N
  N21      1.0000 0.35180  0.75690  0.89830  Biso   1.000  N
  N22      1.0000 0.64820  0.75690  0.60170  Biso   1.000  N
  N23      1.0000 0.85180  0.25690  0.89830  Biso   1.000  N
  N24      1.0000 0.14820  0.25690  0.60170  Biso   1.000  N
  H497     1.0000 0.62580  0.25940  0.09270  Biso   1.000  H
  H498     1.0000 0.37420  0.25940  0.40730  Biso   1.000  H
  H499     1.0000 0.12580  0.75940  0.09270  Biso   1.000  H
  H500     1.0000 0.87420  0.75940  0.40730  Biso   1.000  H
  H501     1.0000 0.37420  0.74060  0.90730  Biso   1.000  H
  H502     1.0000 0.62580  0.74060  0.59270  Biso   1.000  H
  H503     1.0000 0.87420  0.24060  0.90730  Biso   1.000  H
  H504     1.0000 0.12580  0.24060  0.59270  Biso   1.000  H
  C889     1.0000 0.25750  0.78090  0.37040  Biso   1.000  C
  C890     1.0000 0.74250  0.78090  0.12960  Biso   1.000  C
  C891     1.0000 0.75750  0.28090  0.37040  Biso   1.000  C
  C892     1.0000 0.24250  0.28090  0.12960  Biso   1.000  C
  C893     1.0000 0.74250  0.21910  0.62960  Biso   1.000  C
  C894     1.0000 0.25750  0.21910  0.87040  Biso   1.000  C
  C895     1.0000 0.24250  0.71910  0.62960  Biso   1.000  C
  C896     1.0000 0.75750  0.71910  0.87040  Biso   1.000  C
  C897     1.0000 0.85260  0.77990  0.66380  Biso   1.000  C
  C898     1.0000 0.14740  0.77990  0.83620  Biso   1.000  C
  C899     1.0000 0.35260  0.27990  0.66380  Biso   1.000  C
  C900     1.0000 0.64740  0.27990  0.83620  Biso   1.000  C
  C901     1.0000 0.14740  0.22010  0.33620  Biso   1.000  C
  C902     1.0000 0.85260  0.22010  0.16380  Biso   1.000  C
  C903     1.0000 0.64740  0.72010  0.33620  Biso   1.000  C
  C904     1.0000 0.35260  0.72010  0.16380  Biso   1.000  C
  H505     1.0000 0.86510  0.80700  0.66060  Biso   1.000  H
  H506     1.0000 0.13490  0.80700  0.83940  Biso   1.000  H
  H507     1.0000 0.36510  0.30700  0.66060  Biso   1.000  H
  H508     1.0000 0.63490  0.30700  0.83940  Biso   1.000  H
  H509     1.0000 0.13490  0.19300  0.33940  Biso   1.000  H
  H510     1.0000 0.86510  0.19300  0.16060  Biso   1.000  H
  H511     1.0000 0.63490  0.69300  0.33940  Biso   1.000  H
  H512     1.0000 0.36510  0.69300  0.16060  Biso   1.000  H
  H513     1.0000 0.86530  0.77070  0.68850  Biso   1.000  H
  H514     1.0000 0.13470  0.77070  0.81150  Biso   1.000  H
  H515     1.0000 0.36530  0.27070  0.68850  Biso   1.000  H
  H516     1.0000 0.63470  0.27070  0.81150  Biso   1.000  H
  H517     1.0000 0.13470  0.22930  0.31150  Biso   1.000  H
  H518     1.0000 0.86530  0.22930  0.18850  Biso   1.000  H
  H519     1.0000 0.63470  0.72930  0.31150  Biso   1.000  H
  H520     1.0000 0.36530  0.72930  0.18850  Biso   1.000  H
  H521     1.0000 0.82170  0.78310  0.65780  Biso   1.000  H
  H522     1.0000 0.17830  0.78310  0.84220  Biso   1.000  H
  H523     1.0000 0.32170  0.28310  0.65780  Biso   1.000  H
  H524     1.0000 0.67830  0.28310  0.84220  Biso   1.000  H
  H525     1.0000 0.17830  0.21690  0.34220  Biso   1.000  H
  H526     1.0000 0.82170  0.21690  0.15780  Biso   1.000  H
  H527     1.0000 0.67830  0.71690  0.34220  Biso   1.000  H
  H528     1.0000 0.32170  0.71690  0.15780  Biso   1.000  H
  C905     1.0000 0.66140  0.21280  0.07800  Biso   1.000  C
  C906     1.0000 0.33860  0.21280  0.42200  Biso   1.000  C
  C907     1.0000 0.16140  0.71280  0.07800  Biso   1.000  C
  C908     1.0000 0.83860  0.71280  0.42200  Biso   1.000  C
  C909     1.0000 0.33860  0.78720  0.92200  Biso   1.000  C
  C910     1.0000 0.66140  0.78720  0.57800  Biso   1.000  C
  C911     1.0000 0.83860  0.28720  0.92200  Biso   1.000  C
  C912     1.0000 0.16140  0.28720  0.57800  Biso   1.000  C
  H529     1.0000 0.69260  0.21280  0.08480  Biso   1.000  H
  H530     1.0000 0.30740  0.21280  0.41520  Biso   1.000  H
  H531     1.0000 0.19260  0.71280  0.08480  Biso   1.000  H
  H532     1.0000 0.80740  0.71280  0.41520  Biso   1.000  H
  H533     1.0000 0.30740  0.78720  0.91520  Biso   1.000  H
  H534     1.0000 0.69260  0.78720  0.58480  Biso   1.000  H
  H535     1.0000 0.80740  0.28720  0.91520  Biso   1.000  H
  H536     1.0000 0.19260  0.28720  0.58480  Biso   1.000  H
  H537     1.0000 0.64870  0.22190  0.05320  Biso   1.000  H
  H538     1.0000 0.35130  0.22190  0.44680  Biso   1.000  H
  H539     1.0000 0.14870  0.72190  0.05320  Biso   1.000  H
  H540     1.0000 0.85130  0.72190  0.44680  Biso   1.000  H
  H541     1.0000 0.35130  0.77810  0.94680  Biso   1.000  H
  H542     1.0000 0.64870  0.77810  0.55320  Biso   1.000  H
  H543     1.0000 0.85130  0.27810  0.94680  Biso   1.000  H
  H544     1.0000 0.14870  0.27810  0.55320  Biso   1.000  H
  H545     1.0000 0.65150  0.18420  0.08060  Biso   1.000  H
  H546     1.0000 0.34850  0.18420  0.41940  Biso   1.000  H
  H547     1.0000 0.15150  0.68420  0.08060  Biso   1.000  H
  H548     1.0000 0.84850  0.68420  0.41940  Biso   1.000  H
  H549     1.0000 0.34850  0.81580  0.91940  Biso   1.000  H
  H550     1.0000 0.65150  0.81580  0.58060  Biso   1.000  H
  H551     1.0000 0.84850  0.31580  0.91940  Biso   1.000  H
  H552     1.0000 0.15150  0.31580  0.58060  Biso   1.000  H
  C913     1.0000 0.63920  0.32840  0.35300  Biso   1.000  C
  C914     1.0000 0.36080  0.32840  0.14700  Biso   1.000  C
  C915     1.0000 0.13920  0.82840  0.35300  Biso   1.000  C
  C916     1.0000 0.86080  0.82840  0.14700  Biso   1.000  C
  C917     1.0000 0.36080  0.67160  0.64700  Biso   1.000  C
  C918     1.0000 0.63920  0.67160  0.85300  Biso   1.000  C
  C919     1.0000 0.86080  0.17160  0.64700  Biso   1.000  C
  C920     1.0000 0.13920  0.17160  0.85300  Biso   1.000  C
  H553     1.0000 0.65030  0.29940  0.35600  Biso   1.000  H
  H554     1.0000 0.34970  0.29940  0.14400  Biso   1.000  H
  H555     1.0000 0.15030  0.79940  0.35600  Biso   1.000  H
  H556     1.0000 0.84970  0.79940  0.14400  Biso   1.000  H
  H557     1.0000 0.34970  0.70060  0.64400  Biso   1.000  H
  H558     1.0000 0.65030  0.70060  0.85600  Biso   1.000  H
  H559     1.0000 0.84970  0.20060  0.64400  Biso   1.000  H
  H560     1.0000 0.15030  0.20060  0.85600  Biso   1.000  H
  H561     1.0000 0.64300  0.34110  0.33200  Biso   1.000  H
  H562     1.0000 0.35700  0.34110  0.16800  Biso   1.000  H
  H563     1.0000 0.14300  0.84110  0.33200  Biso   1.000  H
  H564     1.0000 0.85700  0.84110  0.16800  Biso   1.000  H
  H565     1.0000 0.35700  0.65890  0.66800  Biso   1.000  H
  H566     1.0000 0.64300  0.65890  0.83200  Biso   1.000  H
  H567     1.0000 0.85700  0.15890  0.66800  Biso   1.000  H
  H568     1.0000 0.14300  0.15890  0.83200  Biso   1.000  H
  H569     1.0000 0.60880  0.32790  0.35000  Biso   1.000  H
  H570     1.0000 0.39120  0.32790  0.15000  Biso   1.000  H
  H571     1.0000 0.10880  0.82790  0.35000  Biso   1.000  H
  H572     1.0000 0.89120  0.82790  0.15000  Biso   1.000  H
  H573     1.0000 0.39120  0.67210  0.65000  Biso   1.000  H
  H574     1.0000 0.60880  0.67210  0.85000  Biso   1.000  H
  H575     1.0000 0.89120  0.17210  0.65000  Biso   1.000  H
  H576     1.0000 0.10880  0.17210  0.85000  Biso   1.000  H
  O233     1.0000 0.24790  0.09650  0.37280  Biso   1.000  O
  O234     1.0000 0.75210  0.09650  0.12720  Biso   1.000  O
  O235     1.0000 0.74790  0.59650  0.37280  Biso   1.000  O
  O236     1.0000 0.25210  0.59650  0.12720  Biso   1.000  O
  O237     1.0000 0.75210  0.90350  0.62720  Biso   1.000  O
  O238     1.0000 0.24790  0.90350  0.87280  Biso   1.000  O
  O239     1.0000 0.25210  0.40350  0.62720  Biso   1.000  O
  O240     1.0000 0.74790  0.40350  0.87280  Biso   1.000  O
  N25      1.0000 0.21320  0.14310  0.39690  Biso   1.000  N
  N26      1.0000 0.78680  0.14310  0.10310  Biso   1.000  N
  N27      1.0000 0.71320  0.64310  0.39690  Biso   1.000  N
  N28      1.0000 0.28680  0.64310  0.10310  Biso   1.000  N
  N29      1.0000 0.78680  0.85690  0.60310  Biso   1.000  N
  N30      1.0000 0.21320  0.85690  0.89690  Biso   1.000  N
  N31      1.0000 0.28680  0.35690  0.60310  Biso   1.000  N
  N32      1.0000 0.71320  0.35690  0.89690  Biso   1.000  N
  C921     1.0000 0.19230  0.11090  0.41560  Biso   1.000  C
  C922     1.0000 0.80770  0.11090  0.08440  Biso   1.000  C
  C923     1.0000 0.69230  0.61090  0.41560  Biso   1.000  C
  C924     1.0000 0.30770  0.61090  0.08440  Biso   1.000  C
  C925     1.0000 0.80770  0.88910  0.58440  Biso   1.000  C
  C926     1.0000 0.19230  0.88910  0.91560  Biso   1.000  C
  C927     1.0000 0.30770  0.38910  0.58440  Biso   1.000  C
  C928     1.0000 0.69230  0.38910  0.91560  Biso   1.000  C
  C929     1.0000 0.24270  0.13340  0.37930  Biso   1.000  C
  C930     1.0000 0.75730  0.13340  0.12070  Biso   1.000  C
  C931     1.0000 0.74270  0.63340  0.37930  Biso   1.000  C
  C932     1.0000 0.25730  0.63340  0.12070  Biso   1.000  C
  C933     1.0000 0.75730  0.86660  0.62070  Biso   1.000  C
  C934     1.0000 0.24270  0.86660  0.87930  Biso   1.000  C
  C935     1.0000 0.25730  0.36660  0.62070  Biso   1.000  C
  C936     1.0000 0.74270  0.36660  0.87930  Biso   1.000  C
  N33      1.0000 0.28770  0.81330  0.36620  Biso   1.000  N
  N34      1.0000 0.71230  0.81330  0.13380  Biso   1.000  N
  N35      1.0000 0.78770  0.31330  0.36620  Biso   1.000  N
  N36      1.0000 0.21230  0.31330  0.13380  Biso   1.000  N
  N37      1.0000 0.71230  0.18670  0.63380  Biso   1.000  N
  N38      1.0000 0.28770  0.18670  0.86620  Biso   1.000  N
  N39      1.0000 0.21230  0.68670  0.63380  Biso   1.000  N
  N40      1.0000 0.78770  0.68670  0.86620  Biso   1.000  N
  C937     1.0000 0.28030  0.85640  0.36710  Biso   1.000  C
  C938     1.0000 0.71970  0.85640  0.13290  Biso   1.000  C
  C939     1.0000 0.78030  0.35640  0.36710  Biso   1.000  C
  C940     1.0000 0.21970  0.35640  0.13290  Biso   1.000  C
  C941     1.0000 0.71970  0.14360  0.63290  Biso   1.000  C
  C942     1.0000 0.28030  0.14360  0.86710  Biso   1.000  C
  C943     1.0000 0.21970  0.64360  0.63290  Biso   1.000  C
  C944     1.0000 0.78030  0.64360  0.86710  Biso   1.000  C
  O241     1.0000 0.24000  0.09540  0.38520  Biso   1.000  O
  O242     1.0000 0.76000  0.09540  0.11480  Biso   1.000  O
  O243     1.0000 0.74000  0.59540  0.38520  Biso   1.000  O
  O244     1.0000 0.26000  0.59540  0.11480  Biso   1.000  O
  O245     1.0000 0.76000  0.90460  0.61480  Biso   1.000  O
  O246     1.0000 0.24000  0.90460  0.88520  Biso   1.000  O
  O247     1.0000 0.26000  0.40460  0.61480  Biso   1.000  O
  O248     1.0000 0.74000  0.40460  0.88520  Biso   1.000  O
  N41      1.0000 0.27330  0.14620  0.36250  Biso   1.000  N
  N42      1.0000 0.72670  0.14620  0.13750  Biso   1.000  N
  N43      1.0000 0.77330  0.64620  0.36250  Biso   1.000  N
  N44      1.0000 0.22670  0.64620  0.13750  Biso   1.000  N
  N45      1.0000 0.72670  0.85380  0.63750  Biso   1.000  N
  N46      1.0000 0.27330  0.85380  0.86250  Biso   1.000  N
  N47      1.0000 0.22670  0.35380  0.63750  Biso   1.000  N
  N48      1.0000 0.77330  0.35380  0.86250  Biso   1.000  N
  C945     1.0000 0.29910  0.11800  0.34500  Biso   1.000  C
  C946     1.0000 0.70090  0.11800  0.15500  Biso   1.000  C
  C947     1.0000 0.79910  0.61800  0.34500  Biso   1.000  C
  C948     1.0000 0.20090  0.61800  0.15500  Biso   1.000  C
  C949     1.0000 0.70090  0.88200  0.65500  Biso   1.000  C
  C950     1.0000 0.29910  0.88200  0.84500  Biso   1.000  C
  C951     1.0000 0.20090  0.38200  0.65500  Biso   1.000  C
  C952     1.0000 0.79910  0.38200  0.84500  Biso   1.000  C
  N49      1.0000 0.22100  0.81010  0.35220  Biso   1.000  N
  N50      1.0000 0.77900  0.81010  0.14780  Biso   1.000  N
  N51      1.0000 0.72100  0.31010  0.35220  Biso   1.000  N
  N52      1.0000 0.27900  0.31010  0.14780  Biso   1.000  N
  N53      1.0000 0.77900  0.18990  0.64780  Biso   1.000  N
  N54      1.0000 0.22100  0.18990  0.85220  Biso   1.000  N
  N55      1.0000 0.27900  0.68990  0.64780  Biso   1.000  N
  N56      1.0000 0.72100  0.68990  0.85220  Biso   1.000  N
  C953     1.0000 0.22560  0.85300  0.36600  Biso   1.000  C
  C954     1.0000 0.77440  0.85300  0.13400  Biso   1.000  C
  C955     1.0000 0.72560  0.35300  0.36600  Biso   1.000  C
  C956     1.0000 0.27440  0.35300  0.13400  Biso   1.000  C
  C957     1.0000 0.77440  0.14700  0.63400  Biso   1.000  C
  C958     1.0000 0.22560  0.14700  0.86600  Biso   1.000  C
  C959     1.0000 0.27440  0.64700  0.63400  Biso   1.000  C
  C960     1.0000 0.72560  0.64700  0.86600  Biso   1.000  C
