data_image0
_cell_length_a       15.2699
_cell_length_b       15.2699
_cell_length_c       61.093
_cell_angle_alpha    90
_cell_angle_beta     90
_cell_angle_gamma    120

_symmetry_space_group_name_H-M    "P 1"
_symmetry_int_tables_number       1

loop_
  _symmetry_equiv_pos_as_xyz
  'x, y, z'

loop_
  _atom_site_label
  _atom_site_occupancy
  _atom_site_fract_x
  _atom_site_fract_y
  _atom_site_fract_z
  _atom_site_thermal_displace_type
  _atom_site_B_iso_or_equiv
  _atom_site_type_symbol
  Cu1      1.0000 0.82861  0.82782  0.33720  Biso   1.000  Cu
  Cu2      1.0000 0.17218  0.00079  0.67053  Biso   1.000  Cu
  Cu3      1.0000 0.99921  0.17139  0.00387  Biso   1.000  Cu
  Cu4      1.0000 0.17139  0.17218  0.83720  Biso   1.000  Cu
  Cu5      1.0000 0.82782  0.99921  0.17053  Biso   1.000  Cu
  Cu6      1.0000 0.00079  0.82861  0.50387  Biso   1.000  Cu
  Cu7      1.0000 0.82782  0.82861  0.99613  Biso   1.000  Cu
  Cu8      1.0000 0.00079  0.17218  0.66280  Biso   1.000  Cu
  Cu9      1.0000 0.17139  0.99921  0.32947  Biso   1.000  Cu
  Cu10     1.0000 0.17218  0.17139  0.49613  Biso   1.000  Cu
  Cu11     1.0000 0.99921  0.82782  0.16280  Biso   1.000  Cu
  Cu12     1.0000 0.82861  0.00079  0.82947  Biso   1.000  Cu
  Cu13     1.0000 0.83494  0.06054  0.34504  Biso   1.000  Cu
  Cu14     1.0000 0.93946  0.77440  0.67838  Biso   1.000  Cu
  Cu15     1.0000 0.22560  0.16506  0.01171  Biso   1.000  Cu
  Cu16     1.0000 0.16506  0.93946  0.84504  Biso   1.000  Cu
  Cu17     1.0000 0.06054  0.22560  0.17838  Biso   1.000  Cu
  Cu18     1.0000 0.77440  0.83494  0.51171  Biso   1.000  Cu
  Cu19     1.0000 0.06054  0.83494  0.98829  Biso   1.000  Cu
  Cu20     1.0000 0.77440  0.93946  0.65496  Biso   1.000  Cu
  Cu21     1.0000 0.16506  0.22560  0.32162  Biso   1.000  Cu
  Cu22     1.0000 0.93946  0.16506  0.48829  Biso   1.000  Cu
  Cu23     1.0000 0.22560  0.06054  0.15496  Biso   1.000  Cu
  Cu24     1.0000 0.83494  0.77440  0.82162  Biso   1.000  Cu
  Cu25     1.0000 0.94803  0.85742  0.42816  Biso   1.000  Cu
  Cu26     1.0000 0.14258  0.09061  0.76150  Biso   1.000  Cu
  Cu27     1.0000 0.90939  0.05197  0.09483  Biso   1.000  Cu
  Cu28     1.0000 0.05197  0.14258  0.92816  Biso   1.000  Cu
  Cu29     1.0000 0.85742  0.90939  0.26150  Biso   1.000  Cu
  Cu30     1.0000 0.09061  0.94803  0.59483  Biso   1.000  Cu
  Cu31     1.0000 0.85742  0.94803  0.90517  Biso   1.000  Cu
  Cu32     1.0000 0.09061  0.14258  0.57184  Biso   1.000  Cu
  Cu33     1.0000 0.05197  0.90939  0.23850  Biso   1.000  Cu
  Cu34     1.0000 0.14258  0.05197  0.40517  Biso   1.000  Cu
  Cu35     1.0000 0.90939  0.85742  0.07184  Biso   1.000  Cu
  Cu36     1.0000 0.94803  0.09061  0.73850  Biso   1.000  Cu
  O1       1.0000 0.76280  0.76460  0.30958  Biso   1.000  O
  O2       1.0000 0.23540  0.99820  0.64291  Biso   1.000  O
  O3       1.0000 0.00180  0.23720  0.97625  Biso   1.000  O
  O4       1.0000 0.23720  0.23540  0.80958  Biso   1.000  O
  O5       1.0000 0.76460  0.00180  0.14291  Biso   1.000  O
  O6       1.0000 0.99820  0.76280  0.47625  Biso   1.000  O
  O7       1.0000 0.76460  0.76280  0.02375  Biso   1.000  O
  O8       1.0000 0.99820  0.23540  0.69042  Biso   1.000  O
  O9       1.0000 0.23720  0.00180  0.35709  Biso   1.000  O
  O10      1.0000 0.23540  0.23720  0.52375  Biso   1.000  O
  O11      1.0000 0.00180  0.76460  0.19042  Biso   1.000  O
  O12      1.0000 0.76280  0.99820  0.85709  Biso   1.000  O
  O13      1.0000 0.72090  0.63280  0.28817  Biso   1.000  O
  O14      1.0000 0.36720  0.08810  0.62150  Biso   1.000  O
  O15      1.0000 0.91190  0.27910  0.95484  Biso   1.000  O
  O16      1.0000 0.27910  0.36720  0.78817  Biso   1.000  O
  O17      1.0000 0.63280  0.91190  0.12150  Biso   1.000  O
  O18      1.0000 0.08810  0.72090  0.45484  Biso   1.000  O
  O19      1.0000 0.63280  0.72090  0.04516  Biso   1.000  O
  O20      1.0000 0.08810  0.36720  0.71183  Biso   1.000  O
  O21      1.0000 0.27910  0.91190  0.37850  Biso   1.000  O
  O22      1.0000 0.36720  0.27910  0.54516  Biso   1.000  O
  O23      1.0000 0.91190  0.63280  0.21183  Biso   1.000  O
  O24      1.0000 0.72090  0.08810  0.87850  Biso   1.000  O
  O25      1.0000 0.82470  0.78040  0.41099  Biso   1.000  O
  O26      1.0000 0.21960  0.04430  0.74432  Biso   1.000  O
  O27      1.0000 0.95570  0.17530  0.07766  Biso   1.000  O
  O28      1.0000 0.17530  0.21960  0.91099  Biso   1.000  O
  O29      1.0000 0.78040  0.95570  0.24432  Biso   1.000  O
  O30      1.0000 0.04430  0.82470  0.57766  Biso   1.000  O
  O31      1.0000 0.78040  0.82470  0.92234  Biso   1.000  O
  O32      1.0000 0.04430  0.21960  0.58901  Biso   1.000  O
  O33      1.0000 0.17530  0.95570  0.25568  Biso   1.000  O
  O34      1.0000 0.21960  0.17530  0.42234  Biso   1.000  O
  O35      1.0000 0.95570  0.78040  0.08901  Biso   1.000  O
  O36      1.0000 0.82470  0.04430  0.75568  Biso   1.000  O
  O37      1.0000 0.73430  0.63720  0.39239  Biso   1.000  O
  O38      1.0000 0.36280  0.09710  0.72572  Biso   1.000  O
  O39      1.0000 0.90290  0.26570  0.05906  Biso   1.000  O
  O40      1.0000 0.26570  0.36280  0.89239  Biso   1.000  O
  O41      1.0000 0.63720  0.90290  0.22572  Biso   1.000  O
  O42      1.0000 0.09710  0.73430  0.55906  Biso   1.000  O
  O43      1.0000 0.63720  0.73430  0.94094  Biso   1.000  O
  O44      1.0000 0.09710  0.36280  0.60761  Biso   1.000  O
  O45      1.0000 0.26570  0.90290  0.27428  Biso   1.000  O
  O46      1.0000 0.36280  0.26570  0.44094  Biso   1.000  O
  O47      1.0000 0.90290  0.63720  0.10761  Biso   1.000  O
  O48      1.0000 0.73430  0.09710  0.77428  Biso   1.000  O
  O49      1.0000 0.69960  0.97230  0.36393  Biso   1.000  O
  O50      1.0000 0.02770  0.72730  0.69726  Biso   1.000  O
  O51      1.0000 0.27270  0.30040  0.03060  Biso   1.000  O
  O52      1.0000 0.30040  0.02770  0.86393  Biso   1.000  O
  O53      1.0000 0.97230  0.27270  0.19726  Biso   1.000  O
  O54      1.0000 0.72730  0.69960  0.53060  Biso   1.000  O
  O55      1.0000 0.97230  0.69960  0.96940  Biso   1.000  O
  O56      1.0000 0.72730  0.02770  0.63607  Biso   1.000  O
  O57      1.0000 0.30040  0.27270  0.30274  Biso   1.000  O
  O58      1.0000 0.02770  0.30040  0.46940  Biso   1.000  O
  O59      1.0000 0.27270  0.97230  0.13607  Biso   1.000  O
  O60      1.0000 0.69960  0.72730  0.80274  Biso   1.000  O
  O61      1.0000 0.62590  0.98030  0.39478  Biso   1.000  O
  O62      1.0000 0.01970  0.64560  0.72811  Biso   1.000  O
  O63      1.0000 0.35440  0.37410  0.06145  Biso   1.000  O
  O64      1.0000 0.37410  0.01970  0.89478  Biso   1.000  O
  O65      1.0000 0.98030  0.35440  0.22811  Biso   1.000  O
  O66      1.0000 0.64560  0.62590  0.56145  Biso   1.000  O
  O67      1.0000 0.98030  0.62590  0.93855  Biso   1.000  O
  O68      1.0000 0.64560  0.01970  0.60522  Biso   1.000  O
  O69      1.0000 0.37410  0.35440  0.27189  Biso   1.000  O
  O70      1.0000 0.01970  0.37410  0.43855  Biso   1.000  O
  O71      1.0000 0.35440  0.98030  0.10522  Biso   1.000  O
  O72      1.0000 0.62590  0.64560  0.77189  Biso   1.000  O
  O73      1.0000 0.20140  0.30860  0.35046  Biso   1.000  O
  O74      1.0000 0.69140  0.89280  0.68379  Biso   1.000  O
  O75      1.0000 0.10720  0.79860  0.01713  Biso   1.000  O
  O76      1.0000 0.79860  0.69140  0.85046  Biso   1.000  O
  O77      1.0000 0.30860  0.10720  0.18379  Biso   1.000  O
  O78      1.0000 0.89280  0.20140  0.51713  Biso   1.000  O
  O79      1.0000 0.30860  0.20140  0.98287  Biso   1.000  O
  O80      1.0000 0.89280  0.69140  0.64954  Biso   1.000  O
  O81      1.0000 0.79860  0.10720  0.31621  Biso   1.000  O
  O82      1.0000 0.69140  0.79860  0.48287  Biso   1.000  O
  O83      1.0000 0.10720  0.30860  0.14954  Biso   1.000  O
  O84      1.0000 0.20140  0.89280  0.81621  Biso   1.000  O
  O85      1.0000 0.14530  0.41620  0.34293  Biso   1.000  O
  O86      1.0000 0.58380  0.72910  0.67626  Biso   1.000  O
  O87      1.0000 0.27090  0.85470  0.00960  Biso   1.000  O
  O88      1.0000 0.85470  0.58380  0.84293  Biso   1.000  O
  O89      1.0000 0.41620  0.27090  0.17626  Biso   1.000  O
  O90      1.0000 0.72910  0.14530  0.50960  Biso   1.000  O
  O91      1.0000 0.41620  0.14530  0.99040  Biso   1.000  O
  O92      1.0000 0.72910  0.58380  0.65707  Biso   1.000  O
  O93      1.0000 0.85470  0.27090  0.32374  Biso   1.000  O
  O94      1.0000 0.58380  0.85470  0.49040  Biso   1.000  O
  O95      1.0000 0.27090  0.41620  0.15707  Biso   1.000  O
  O96      1.0000 0.14530  0.72910  0.82374  Biso   1.000  O
  O97      1.0000 0.83650  0.95310  0.32988  Biso   1.000  O
  O98      1.0000 0.04690  0.88340  0.66321  Biso   1.000  O
  O99      1.0000 0.11660  0.16350  0.99655  Biso   1.000  O
  O100     1.0000 0.16350  0.04690  0.82988  Biso   1.000  O
  O101     1.0000 0.95310  0.11660  0.16321  Biso   1.000  O
  O102     1.0000 0.88340  0.83650  0.49655  Biso   1.000  O
  O103     1.0000 0.95310  0.83650  0.00345  Biso   1.000  O
  O104     1.0000 0.88340  0.04690  0.67012  Biso   1.000  O
  O105     1.0000 0.16350  0.11660  0.33679  Biso   1.000  O
  O106     1.0000 0.04690  0.16350  0.50345  Biso   1.000  O
  O107     1.0000 0.11660  0.95310  0.17012  Biso   1.000  O
  O108     1.0000 0.83650  0.88340  0.83679  Biso   1.000  O
  H1       1.0000 0.81100  0.94000  0.31550  Biso   1.000  H
  H2       1.0000 0.06000  0.87100  0.64883  Biso   1.000  H
  H3       1.0000 0.12900  0.18900  0.98217  Biso   1.000  H
  H4       1.0000 0.18900  0.06000  0.81550  Biso   1.000  H
  H5       1.0000 0.94000  0.12900  0.14883  Biso   1.000  H
  H6       1.0000 0.87100  0.81100  0.48217  Biso   1.000  H
  H7       1.0000 0.94000  0.81100  0.01783  Biso   1.000  H
  H8       1.0000 0.87100  0.06000  0.68450  Biso   1.000  H
  H9       1.0000 0.18900  0.12900  0.35117  Biso   1.000  H
  H10      1.0000 0.06000  0.18900  0.51783  Biso   1.000  H
  H11      1.0000 0.12900  0.94000  0.18450  Biso   1.000  H
  H12      1.0000 0.81100  0.87100  0.85117  Biso   1.000  H
  O109     1.0000 0.69300  0.78530  0.36392  Biso   1.000  O
  O110     1.0000 0.21470  0.90770  0.69725  Biso   1.000  O
  O111     1.0000 0.09230  0.30700  0.03059  Biso   1.000  O
  O112     1.0000 0.30700  0.21470  0.86392  Biso   1.000  O
  O113     1.0000 0.78530  0.09230  0.19725  Biso   1.000  O
  O114     1.0000 0.90770  0.69300  0.53059  Biso   1.000  O
  O115     1.0000 0.78530  0.69300  0.96941  Biso   1.000  O
  O116     1.0000 0.90770  0.21470  0.63608  Biso   1.000  O
  O117     1.0000 0.30700  0.09230  0.30275  Biso   1.000  O
  O118     1.0000 0.21470  0.30700  0.46941  Biso   1.000  O
  O119     1.0000 0.09230  0.78530  0.13608  Biso   1.000  O
  O120     1.0000 0.69300  0.90770  0.80275  Biso   1.000  O
  N1       1.0000 0.93500  0.87230  0.35987  Biso   1.000  N
  N2       1.0000 0.12770  0.06270  0.69320  Biso   1.000  N
  N3       1.0000 0.93730  0.06500  0.02654  Biso   1.000  N
  N4       1.0000 0.06500  0.12770  0.85987  Biso   1.000  N
  N5       1.0000 0.87230  0.93730  0.19320  Biso   1.000  N
  N6       1.0000 0.06270  0.93500  0.52654  Biso   1.000  N
  N7       1.0000 0.87230  0.93500  0.97346  Biso   1.000  N
  N8       1.0000 0.06270  0.12770  0.64013  Biso   1.000  N
  N9       1.0000 0.06500  0.93730  0.30680  Biso   1.000  N
  N10      1.0000 0.12770  0.06500  0.47346  Biso   1.000  N
  N11      1.0000 0.93730  0.87230  0.14013  Biso   1.000  N
  N12      1.0000 0.93500  0.06270  0.80680  Biso   1.000  N
  N13      1.0000 0.04130  0.92620  0.38879  Biso   1.000  N
  N14      1.0000 0.07380  0.11510  0.72212  Biso   1.000  N
  N15      1.0000 0.88490  0.95870  0.05546  Biso   1.000  N
  N16      1.0000 0.95870  0.07380  0.88879  Biso   1.000  N
  N17      1.0000 0.92620  0.88490  0.22212  Biso   1.000  N
  N18      1.0000 0.11510  0.04130  0.55546  Biso   1.000  N
  N19      1.0000 0.92620  0.04130  0.94454  Biso   1.000  N
  N20      1.0000 0.11510  0.07380  0.61121  Biso   1.000  N
  N21      1.0000 0.95870  0.88490  0.27788  Biso   1.000  N
  N22      1.0000 0.07380  0.95870  0.44454  Biso   1.000  N
  N23      1.0000 0.88490  0.92620  0.11121  Biso   1.000  N
  N24      1.0000 0.04130  0.11510  0.77788  Biso   1.000  N
  N25      1.0000 0.94570  0.08650  0.36683  Biso   1.000  N
  N26      1.0000 0.91350  0.85920  0.70016  Biso   1.000  N
  N27      1.0000 0.14080  0.05430  0.03350  Biso   1.000  N
  N28      1.0000 0.05430  0.91350  0.86683  Biso   1.000  N
  N29      1.0000 0.08650  0.14080  0.20016  Biso   1.000  N
  N30      1.0000 0.85920  0.94570  0.53350  Biso   1.000  N
  N31      1.0000 0.08650  0.94570  0.96650  Biso   1.000  N
  N32      1.0000 0.85920  0.91350  0.63317  Biso   1.000  N
  N33      1.0000 0.05430  0.14080  0.29984  Biso   1.000  N
  N34      1.0000 0.91350  0.05430  0.46650  Biso   1.000  N
  N35      1.0000 0.14080  0.08650  0.13317  Biso   1.000  N
  N36      1.0000 0.94570  0.85920  0.79984  Biso   1.000  N
  N37      1.0000 0.06330  0.10650  0.39132  Biso   1.000  N
  N38      1.0000 0.89350  0.95680  0.72465  Biso   1.000  N
  N39      1.0000 0.04320  0.93670  0.05799  Biso   1.000  N
  N40      1.0000 0.93670  0.89350  0.89132  Biso   1.000  N
  N41      1.0000 0.10650  0.04320  0.22465  Biso   1.000  N
  N42      1.0000 0.95680  0.06330  0.55799  Biso   1.000  N
  N43      1.0000 0.10650  0.06330  0.94201  Biso   1.000  N
  N44      1.0000 0.95680  0.89350  0.60868  Biso   1.000  N
  N45      1.0000 0.93670  0.04320  0.27535  Biso   1.000  N
  N46      1.0000 0.89350  0.93670  0.44201  Biso   1.000  N
  N47      1.0000 0.04320  0.10650  0.10868  Biso   1.000  N
  N48      1.0000 0.06330  0.95680  0.77535  Biso   1.000  N
  N49      1.0000 0.80700  0.68820  0.34407  Biso   1.000  N
  N50      1.0000 0.31180  0.11880  0.67740  Biso   1.000  N
  N51      1.0000 0.88120  0.19300  0.01074  Biso   1.000  N
  N52      1.0000 0.19300  0.31180  0.84407  Biso   1.000  N
  N53      1.0000 0.68820  0.88120  0.17740  Biso   1.000  N
  N54      1.0000 0.11880  0.80700  0.51074  Biso   1.000  N
  N55      1.0000 0.68820  0.80700  0.98926  Biso   1.000  N
  N56      1.0000 0.11880  0.31180  0.65593  Biso   1.000  N
  N57      1.0000 0.19300  0.88120  0.32260  Biso   1.000  N
  N58      1.0000 0.31180  0.19300  0.48926  Biso   1.000  N
  N59      1.0000 0.88120  0.68820  0.15593  Biso   1.000  N
  N60      1.0000 0.80700  0.11880  0.82260  Biso   1.000  N
  H13      1.0000 0.75600  0.66000  0.35270  Biso   1.000  H
  H14      1.0000 0.34000  0.09600  0.68603  Biso   1.000  H
  H15      1.0000 0.90400  0.24400  0.01937  Biso   1.000  H
  H16      1.0000 0.24400  0.34000  0.85270  Biso   1.000  H
  H17      1.0000 0.66000  0.90400  0.18603  Biso   1.000  H
  H18      1.0000 0.09600  0.75600  0.51937  Biso   1.000  H
  H19      1.0000 0.66000  0.75600  0.98063  Biso   1.000  H
  H20      1.0000 0.09600  0.34000  0.64730  Biso   1.000  H
  H21      1.0000 0.24400  0.90400  0.31397  Biso   1.000  H
  H22      1.0000 0.34000  0.24400  0.48063  Biso   1.000  H
  H23      1.0000 0.90400  0.66000  0.14730  Biso   1.000  H
  H24      1.0000 0.75600  0.09600  0.81397  Biso   1.000  H
  N61      1.0000 0.97410  0.74330  0.41942  Biso   1.000  N
  N62      1.0000 0.25670  0.23080  0.75275  Biso   1.000  N
  N63      1.0000 0.76920  0.02590  0.08609  Biso   1.000  N
  N64      1.0000 0.02590  0.25670  0.91942  Biso   1.000  N
  N65      1.0000 0.74330  0.76920  0.25275  Biso   1.000  N
  N66      1.0000 0.23080  0.97410  0.58609  Biso   1.000  N
  N67      1.0000 0.74330  0.97410  0.91391  Biso   1.000  N
  N68      1.0000 0.23080  0.25670  0.58058  Biso   1.000  N
  N69      1.0000 0.02590  0.76920  0.24725  Biso   1.000  N
  N70      1.0000 0.25670  0.02590  0.41391  Biso   1.000  N
  N71      1.0000 0.76920  0.74330  0.08058  Biso   1.000  N
  N72      1.0000 0.97410  0.23080  0.74725  Biso   1.000  N
  H25      1.0000 0.00800  0.73300  0.42970  Biso   1.000  H
  H26      1.0000 0.26700  0.27500  0.76303  Biso   1.000  H
  H27      1.0000 0.72500  0.99200  0.09637  Biso   1.000  H
  H28      1.0000 0.99200  0.26700  0.92970  Biso   1.000  H
  H29      1.0000 0.73300  0.72500  0.26303  Biso   1.000  H
  H30      1.0000 0.27500  0.00800  0.59637  Biso   1.000  H
  H31      1.0000 0.73300  0.00800  0.90363  Biso   1.000  H
  H32      1.0000 0.27500  0.26700  0.57030  Biso   1.000  H
  H33      1.0000 0.99200  0.72500  0.23697  Biso   1.000  H
  H34      1.0000 0.26700  0.99200  0.40363  Biso   1.000  H
  H35      1.0000 0.72500  0.73300  0.07030  Biso   1.000  H
  H36      1.0000 0.00800  0.27500  0.73697  Biso   1.000  H
  N73      1.0000 0.83300  0.17280  0.36273  Biso   1.000  N
  N74      1.0000 0.82720  0.66020  0.69606  Biso   1.000  N
  N75      1.0000 0.33980  0.16700  0.02940  Biso   1.000  N
  N76      1.0000 0.16700  0.82720  0.86273  Biso   1.000  N
  N77      1.0000 0.17280  0.33980  0.19606  Biso   1.000  N
  N78      1.0000 0.66020  0.83300  0.52940  Biso   1.000  N
  N79      1.0000 0.17280  0.83300  0.97060  Biso   1.000  N
  N80      1.0000 0.66020  0.82720  0.63727  Biso   1.000  N
  N81      1.0000 0.16700  0.33980  0.30394  Biso   1.000  N
  N82      1.0000 0.82720  0.16700  0.47060  Biso   1.000  N
  N83      1.0000 0.33980  0.17280  0.13727  Biso   1.000  N
  N84      1.0000 0.83300  0.66020  0.80394  Biso   1.000  N
  H37      1.0000 0.81500  0.18500  0.35020  Biso   1.000  H
  H38      1.0000 0.81500  0.63000  0.68353  Biso   1.000  H
  H39      1.0000 0.37000  0.18500  0.01687  Biso   1.000  H
  H40      1.0000 0.18500  0.81500  0.85020  Biso   1.000  H
  H41      1.0000 0.18500  0.37000  0.18353  Biso   1.000  H
  H42      1.0000 0.63000  0.81500  0.51687  Biso   1.000  H
  H43      1.0000 0.18500  0.81500  0.98313  Biso   1.000  H
  H44      1.0000 0.63000  0.81500  0.64980  Biso   1.000  H
  H45      1.0000 0.18500  0.37000  0.31647  Biso   1.000  H
  H46      1.0000 0.81500  0.18500  0.48313  Biso   1.000  H
  H47      1.0000 0.37000  0.18500  0.14980  Biso   1.000  H
  H48      1.0000 0.81500  0.63000  0.81647  Biso   1.000  H
  N85      1.0000 0.21670  0.35090  0.39386  Biso   1.000  N
  N86      1.0000 0.64910  0.86580  0.72719  Biso   1.000  N
  N87      1.0000 0.13420  0.78330  0.06053  Biso   1.000  N
  N88      1.0000 0.78330  0.64910  0.89386  Biso   1.000  N
  N89      1.0000 0.35090  0.13420  0.22719  Biso   1.000  N
  N90      1.0000 0.86580  0.21670  0.56053  Biso   1.000  N
  N91      1.0000 0.35090  0.21670  0.93947  Biso   1.000  N
  N92      1.0000 0.86580  0.64910  0.60614  Biso   1.000  N
  N93      1.0000 0.78330  0.13420  0.27281  Biso   1.000  N
  N94      1.0000 0.64910  0.78330  0.43947  Biso   1.000  N
  N95      1.0000 0.13420  0.35090  0.10614  Biso   1.000  N
  N96      1.0000 0.21670  0.86580  0.77281  Biso   1.000  N
  H49      1.0000 0.26100  0.38300  0.40520  Biso   1.000  H
  H50      1.0000 0.61700  0.87800  0.73853  Biso   1.000  H
  H51      1.0000 0.12200  0.73900  0.07187  Biso   1.000  H
  H52      1.0000 0.73900  0.61700  0.90520  Biso   1.000  H
  H53      1.0000 0.38300  0.12200  0.23853  Biso   1.000  H
  H54      1.0000 0.87800  0.26100  0.57187  Biso   1.000  H
  H55      1.0000 0.38300  0.26100  0.92813  Biso   1.000  H
  H56      1.0000 0.87800  0.61700  0.59480  Biso   1.000  H
  H57      1.0000 0.73900  0.12200  0.26147  Biso   1.000  H
  H58      1.0000 0.61700  0.73900  0.42813  Biso   1.000  H
  H59      1.0000 0.12200  0.38300  0.09480  Biso   1.000  H
  H60      1.0000 0.26100  0.87800  0.76147  Biso   1.000  H
  H61      1.0000 0.24100  0.30800  0.38880  Biso   1.000  H
  H62      1.0000 0.69200  0.93300  0.72213  Biso   1.000  H
  H63      1.0000 0.06700  0.75900  0.05547  Biso   1.000  H
  H64      1.0000 0.75900  0.69200  0.88880  Biso   1.000  H
  H65      1.0000 0.30800  0.06700  0.22213  Biso   1.000  H
  H66      1.0000 0.93300  0.24100  0.55547  Biso   1.000  H
  H67      1.0000 0.30800  0.24100  0.94453  Biso   1.000  H
  H68      1.0000 0.93300  0.69200  0.61120  Biso   1.000  H
  H69      1.0000 0.75900  0.06700  0.27787  Biso   1.000  H
  H70      1.0000 0.69200  0.75900  0.44453  Biso   1.000  H
  H71      1.0000 0.06700  0.30800  0.11120  Biso   1.000  H
  H72      1.0000 0.24100  0.93300  0.77787  Biso   1.000  H
  C1       1.0000 0.95200  0.79530  0.36634  Biso   1.000  C
  C2       1.0000 0.20470  0.15670  0.69967  Biso   1.000  C
  C3       1.0000 0.84330  0.04800  0.03301  Biso   1.000  C
  C4       1.0000 0.04800  0.20470  0.86634  Biso   1.000  C
  C5       1.0000 0.79530  0.84330  0.19967  Biso   1.000  C
  C6       1.0000 0.15670  0.95200  0.53301  Biso   1.000  C
  C7       1.0000 0.79530  0.95200  0.96699  Biso   1.000  C
  C8       1.0000 0.15670  0.20470  0.63366  Biso   1.000  C
  C9       1.0000 0.04800  0.84330  0.30033  Biso   1.000  C
  C10      1.0000 0.20470  0.04800  0.46699  Biso   1.000  C
  C11      1.0000 0.84330  0.79530  0.13366  Biso   1.000  C
  C12      1.0000 0.95200  0.15670  0.80033  Biso   1.000  C
  C13      1.0000 0.01670  0.82680  0.38402  Biso   1.000  C
  C14      1.0000 0.17320  0.18990  0.71735  Biso   1.000  C
  C15      1.0000 0.81010  0.98330  0.05069  Biso   1.000  C
  C16      1.0000 0.98330  0.17320  0.88402  Biso   1.000  C
  C17      1.0000 0.82680  0.81010  0.21735  Biso   1.000  C
  C18      1.0000 0.18990  0.01670  0.55069  Biso   1.000  C
  C19      1.0000 0.82680  0.01670  0.94931  Biso   1.000  C
  C20      1.0000 0.18990  0.17320  0.61598  Biso   1.000  C
  C21      1.0000 0.98330  0.81010  0.28265  Biso   1.000  C
  C22      1.0000 0.17320  0.98330  0.44931  Biso   1.000  C
  C23      1.0000 0.81010  0.82680  0.11598  Biso   1.000  C
  C24      1.0000 0.01670  0.18990  0.78265  Biso   1.000  C
  C25      1.0000 0.98960  0.94810  0.37388  Biso   1.000  C
  C26      1.0000 0.05190  0.04150  0.70721  Biso   1.000  C
  C27      1.0000 0.95850  0.01040  0.04055  Biso   1.000  C
  C28      1.0000 0.01040  0.05190  0.87388  Biso   1.000  C
  C29      1.0000 0.94810  0.95850  0.20721  Biso   1.000  C
  C30      1.0000 0.04150  0.98960  0.54055  Biso   1.000  C
  C31      1.0000 0.94810  0.98960  0.95945  Biso   1.000  C
  C32      1.0000 0.04150  0.05190  0.62612  Biso   1.000  C
  C33      1.0000 0.01040  0.95850  0.29279  Biso   1.000  C
  C34      1.0000 0.05190  0.01040  0.45945  Biso   1.000  C
  C35      1.0000 0.95850  0.94810  0.12612  Biso   1.000  C
  C36      1.0000 0.98960  0.04150  0.79279  Biso   1.000  C
  C37      1.0000 0.99700  0.04620  0.37614  Biso   1.000  C
  C38      1.0000 0.95380  0.95080  0.70947  Biso   1.000  C
  C39      1.0000 0.04920  0.00300  0.04281  Biso   1.000  C
  C40      1.0000 0.00300  0.95380  0.87614  Biso   1.000  C
  C41      1.0000 0.04620  0.04920  0.20947  Biso   1.000  C
  C42      1.0000 0.95080  0.99700  0.54281  Biso   1.000  C
  C43      1.0000 0.04620  0.99700  0.95719  Biso   1.000  C
  C44      1.0000 0.95080  0.95380  0.62386  Biso   1.000  C
  C45      1.0000 0.00300  0.04920  0.29053  Biso   1.000  C
  C46      1.0000 0.95380  0.00300  0.45719  Biso   1.000  C
  C47      1.0000 0.04920  0.04620  0.12386  Biso   1.000  C
  C48      1.0000 0.99700  0.95080  0.79053  Biso   1.000  C
  C49      1.0000 0.98140  0.17860  0.37705  Biso   1.000  C
  C50      1.0000 0.82140  0.80280  0.71038  Biso   1.000  C
  C51      1.0000 0.19720  0.01860  0.04372  Biso   1.000  C
  C52      1.0000 0.01860  0.82140  0.87705  Biso   1.000  C
  C53      1.0000 0.17860  0.19720  0.21038  Biso   1.000  C
  C54      1.0000 0.80280  0.98140  0.54372  Biso   1.000  C
  C55      1.0000 0.17860  0.98140  0.95628  Biso   1.000  C
  C56      1.0000 0.80280  0.82140  0.62295  Biso   1.000  C
  C57      1.0000 0.01860  0.19720  0.28962  Biso   1.000  C
  C58      1.0000 0.82140  0.01860  0.45628  Biso   1.000  C
  C59      1.0000 0.19720  0.17860  0.12295  Biso   1.000  C
  C60      1.0000 0.98140  0.80280  0.78962  Biso   1.000  C
  C61      1.0000 0.05270  0.19220  0.39190  Biso   1.000  C
  C62      1.0000 0.80780  0.86050  0.72523  Biso   1.000  C
  C63      1.0000 0.13950  0.94730  0.05857  Biso   1.000  C
  C64      1.0000 0.94730  0.80780  0.89190  Biso   1.000  C
  C65      1.0000 0.19220  0.13950  0.22523  Biso   1.000  C
  C66      1.0000 0.86050  0.05270  0.55857  Biso   1.000  C
  C67      1.0000 0.19220  0.05270  0.94143  Biso   1.000  C
  C68      1.0000 0.86050  0.80780  0.60810  Biso   1.000  C
  C69      1.0000 0.94730  0.13950  0.27477  Biso   1.000  C
  C70      1.0000 0.80780  0.94730  0.44143  Biso   1.000  C
  C71      1.0000 0.13950  0.19220  0.10810  Biso   1.000  C
  C72      1.0000 0.05270  0.86050  0.77477  Biso   1.000  C
  C73      1.0000 0.89860  0.69660  0.35462  Biso   1.000  C
  C74      1.0000 0.30340  0.20200  0.68795  Biso   1.000  C
  C75      1.0000 0.79800  0.10140  0.02129  Biso   1.000  C
  C76      1.0000 0.10140  0.30340  0.85462  Biso   1.000  C
  C77      1.0000 0.69660  0.79800  0.18795  Biso   1.000  C
  C78      1.0000 0.20200  0.89860  0.52129  Biso   1.000  C
  C79      1.0000 0.69660  0.89860  0.97871  Biso   1.000  C
  C80      1.0000 0.20200  0.30340  0.64538  Biso   1.000  C
  C81      1.0000 0.10140  0.79800  0.31205  Biso   1.000  C
  C82      1.0000 0.30340  0.10140  0.47871  Biso   1.000  C
  C83      1.0000 0.79800  0.69660  0.14538  Biso   1.000  C
  C84      1.0000 0.89860  0.20200  0.81205  Biso   1.000  C
  H73      1.0000 0.94360  0.69310  0.34340  Biso   1.000  H
  H74      1.0000 0.30690  0.25050  0.67673  Biso   1.000  H
  H75      1.0000 0.74950  0.05640  0.01007  Biso   1.000  H
  H76      1.0000 0.05640  0.30690  0.84340  Biso   1.000  H
  H77      1.0000 0.69310  0.74950  0.17673  Biso   1.000  H
  H78      1.0000 0.25050  0.94360  0.51007  Biso   1.000  H
  H79      1.0000 0.69310  0.94360  0.98993  Biso   1.000  H
  H80      1.0000 0.25050  0.30690  0.65660  Biso   1.000  H
  H81      1.0000 0.05640  0.74950  0.32327  Biso   1.000  H
  H82      1.0000 0.30690  0.05640  0.48993  Biso   1.000  H
  H83      1.0000 0.74950  0.69310  0.15660  Biso   1.000  H
  H84      1.0000 0.94360  0.25050  0.82327  Biso   1.000  H
  H85      1.0000 0.87910  0.64030  0.36510  Biso   1.000  H
  H86      1.0000 0.35970  0.23880  0.69843  Biso   1.000  H
  H87      1.0000 0.76120  0.12090  0.03177  Biso   1.000  H
  H88      1.0000 0.12090  0.35970  0.86510  Biso   1.000  H
  H89      1.0000 0.64030  0.76120  0.19843  Biso   1.000  H
  H90      1.0000 0.23880  0.87910  0.53177  Biso   1.000  H
  H91      1.0000 0.64030  0.87910  0.96823  Biso   1.000  H
  H92      1.0000 0.23880  0.35970  0.63490  Biso   1.000  H
  H93      1.0000 0.12090  0.76120  0.30157  Biso   1.000  H
  H94      1.0000 0.35970  0.12090  0.46823  Biso   1.000  H
  H95      1.0000 0.76120  0.64030  0.13490  Biso   1.000  H
  H96      1.0000 0.87910  0.23880  0.80157  Biso   1.000  H
  C85      1.0000 0.76990  0.62140  0.32458  Biso   1.000  C
  C86      1.0000 0.37860  0.14850  0.65791  Biso   1.000  C
  C87      1.0000 0.85150  0.23010  0.99125  Biso   1.000  C
  C88      1.0000 0.23010  0.37860  0.82458  Biso   1.000  C
  C89      1.0000 0.62140  0.85150  0.15791  Biso   1.000  C
  C90      1.0000 0.14850  0.76990  0.49125  Biso   1.000  C
  C91      1.0000 0.62140  0.76990  0.00875  Biso   1.000  C
  C92      1.0000 0.14850  0.37860  0.67542  Biso   1.000  C
  C93      1.0000 0.23010  0.85150  0.34209  Biso   1.000  C
  C94      1.0000 0.37860  0.23010  0.50875  Biso   1.000  C
  C95      1.0000 0.85150  0.62140  0.17542  Biso   1.000  C
  C96      1.0000 0.76990  0.14850  0.84209  Biso   1.000  C
  H97      1.0000 0.82640  0.61090  0.31960  Biso   1.000  H
  H98      1.0000 0.38910  0.21550  0.65293  Biso   1.000  H
  H99      1.0000 0.78450  0.17360  0.98627  Biso   1.000  H
  H100     1.0000 0.17360  0.38910  0.81960  Biso   1.000  H
  H101     1.0000 0.61090  0.78450  0.15293  Biso   1.000  H
  H102     1.0000 0.21550  0.82640  0.48627  Biso   1.000  H
  H103     1.0000 0.61090  0.82640  0.01373  Biso   1.000  H
  H104     1.0000 0.21550  0.38910  0.68040  Biso   1.000  H
  H105     1.0000 0.17360  0.78450  0.34707  Biso   1.000  H
  H106     1.0000 0.38910  0.17360  0.51373  Biso   1.000  H
  H107     1.0000 0.78450  0.61090  0.18040  Biso   1.000  H
  H108     1.0000 0.82640  0.21550  0.84707  Biso   1.000  H
  C97      1.0000 0.74930  0.67560  0.30606  Biso   1.000  C
  C98      1.0000 0.32440  0.07370  0.63939  Biso   1.000  C
  C99      1.0000 0.92630  0.25070  0.97273  Biso   1.000  C
  C100     1.0000 0.25070  0.32440  0.80606  Biso   1.000  C
  C101     1.0000 0.67560  0.92630  0.13939  Biso   1.000  C
  C102     1.0000 0.07370  0.74930  0.47273  Biso   1.000  C
  C103     1.0000 0.67560  0.74930  0.02727  Biso   1.000  C
  C104     1.0000 0.07370  0.32440  0.69394  Biso   1.000  C
  C105     1.0000 0.25070  0.92630  0.36061  Biso   1.000  C
  C106     1.0000 0.32440  0.25070  0.52727  Biso   1.000  C
  C107     1.0000 0.92630  0.67560  0.19394  Biso   1.000  C
  C108     1.0000 0.74930  0.07370  0.86061  Biso   1.000  C
  C109     1.0000 0.67990  0.51770  0.32895  Biso   1.000  C
  C110     1.0000 0.48230  0.16220  0.66228  Biso   1.000  C
  C111     1.0000 0.83780  0.32010  0.99562  Biso   1.000  C
  C112     1.0000 0.32010  0.48230  0.82895  Biso   1.000  C
  C113     1.0000 0.51770  0.83780  0.16228  Biso   1.000  C
  C114     1.0000 0.16220  0.67990  0.49562  Biso   1.000  C
  C115     1.0000 0.51770  0.67990  0.00438  Biso   1.000  C
  C116     1.0000 0.16220  0.48230  0.67105  Biso   1.000  C
  C117     1.0000 0.32010  0.83780  0.33772  Biso   1.000  C
  C118     1.0000 0.48230  0.32010  0.50438  Biso   1.000  C
  C119     1.0000 0.83780  0.51770  0.17105  Biso   1.000  C
  C120     1.0000 0.67990  0.16220  0.83772  Biso   1.000  C
  H109     1.0000 0.66310  0.47790  0.31500  Biso   1.000  H
  H110     1.0000 0.52210  0.18520  0.64833  Biso   1.000  H
  H111     1.0000 0.81480  0.33690  0.98167  Biso   1.000  H
  H112     1.0000 0.33690  0.52210  0.81500  Biso   1.000  H
  H113     1.0000 0.47790  0.81480  0.14833  Biso   1.000  H
  H114     1.0000 0.18520  0.66310  0.48167  Biso   1.000  H
  H115     1.0000 0.47790  0.66310  0.01833  Biso   1.000  H
  H116     1.0000 0.18520  0.52210  0.68500  Biso   1.000  H
  H117     1.0000 0.33690  0.81480  0.35167  Biso   1.000  H
  H118     1.0000 0.52210  0.33690  0.51833  Biso   1.000  H
  H119     1.0000 0.81480  0.47790  0.18500  Biso   1.000  H
  H120     1.0000 0.66310  0.18520  0.85167  Biso   1.000  H
  C121     1.0000 0.70170  0.45970  0.34647  Biso   1.000  C
  C122     1.0000 0.54030  0.24200  0.67980  Biso   1.000  C
  C123     1.0000 0.75800  0.29830  0.01314  Biso   1.000  C
  C124     1.0000 0.29830  0.54030  0.84647  Biso   1.000  C
  C125     1.0000 0.45970  0.75800  0.17980  Biso   1.000  C
  C126     1.0000 0.24200  0.70170  0.51314  Biso   1.000  C
  C127     1.0000 0.45970  0.70170  0.98686  Biso   1.000  C
  C128     1.0000 0.24200  0.54030  0.65353  Biso   1.000  C
  C129     1.0000 0.29830  0.75800  0.32020  Biso   1.000  C
  C130     1.0000 0.54030  0.29830  0.48686  Biso   1.000  C
  C131     1.0000 0.75800  0.45970  0.15353  Biso   1.000  C
  C132     1.0000 0.70170  0.24200  0.82020  Biso   1.000  C
  H121     1.0000 0.76530  0.46160  0.34310  Biso   1.000  H
  H122     1.0000 0.53840  0.30370  0.67643  Biso   1.000  H
  H123     1.0000 0.69630  0.23470  0.00977  Biso   1.000  H
  H124     1.0000 0.23470  0.53840  0.84310  Biso   1.000  H
  H125     1.0000 0.46160  0.69630  0.17643  Biso   1.000  H
  H126     1.0000 0.30370  0.76530  0.50977  Biso   1.000  H
  H127     1.0000 0.46160  0.76530  0.99023  Biso   1.000  H
  H128     1.0000 0.30370  0.53840  0.65690  Biso   1.000  H
  H129     1.0000 0.23470  0.69630  0.32357  Biso   1.000  H
  H130     1.0000 0.53840  0.23470  0.49023  Biso   1.000  H
  H131     1.0000 0.69630  0.46160  0.15690  Biso   1.000  H
  H132     1.0000 0.76530  0.30370  0.82357  Biso   1.000  H
  H133     1.0000 0.64650  0.38940  0.34680  Biso   1.000  H
  H134     1.0000 0.61060  0.25710  0.68013  Biso   1.000  H
  H135     1.0000 0.74290  0.35350  0.01347  Biso   1.000  H
  H136     1.0000 0.35350  0.61060  0.84680  Biso   1.000  H
  H137     1.0000 0.38940  0.74290  0.18013  Biso   1.000  H
  H138     1.0000 0.25710  0.64650  0.51347  Biso   1.000  H
  H139     1.0000 0.38940  0.64650  0.98653  Biso   1.000  H
  H140     1.0000 0.25710  0.61060  0.65320  Biso   1.000  H
  H141     1.0000 0.35350  0.74290  0.31987  Biso   1.000  H
  H142     1.0000 0.61060  0.35350  0.48653  Biso   1.000  H
  H143     1.0000 0.74290  0.38940  0.15320  Biso   1.000  H
  H144     1.0000 0.64650  0.25710  0.81987  Biso   1.000  H
  H145     1.0000 0.70730  0.49110  0.36080  Biso   1.000  H
  H146     1.0000 0.50890  0.21620  0.69413  Biso   1.000  H
  H147     1.0000 0.78380  0.29270  0.02747  Biso   1.000  H
  H148     1.0000 0.29270  0.50890  0.86080  Biso   1.000  H
  H149     1.0000 0.49110  0.78380  0.19413  Biso   1.000  H
  H150     1.0000 0.21620  0.70730  0.52747  Biso   1.000  H
  H151     1.0000 0.49110  0.70730  0.97253  Biso   1.000  H
  H152     1.0000 0.21620  0.50890  0.63920  Biso   1.000  H
  H153     1.0000 0.29270  0.78380  0.30587  Biso   1.000  H
  H154     1.0000 0.50890  0.29270  0.47253  Biso   1.000  H
  H155     1.0000 0.78380  0.49110  0.13920  Biso   1.000  H
  H156     1.0000 0.70730  0.21620  0.80587  Biso   1.000  H
  C133     1.0000 0.58880  0.52480  0.33568  Biso   1.000  C
  C134     1.0000 0.47520  0.06400  0.66901  Biso   1.000  C
  C135     1.0000 0.93600  0.41120  0.00235  Biso   1.000  C
  C136     1.0000 0.41120  0.47520  0.83568  Biso   1.000  C
  C137     1.0000 0.52480  0.93600  0.16901  Biso   1.000  C
  C138     1.0000 0.06400  0.58880  0.50235  Biso   1.000  C
  C139     1.0000 0.52480  0.58880  0.99765  Biso   1.000  C
  C140     1.0000 0.06400  0.47520  0.66432  Biso   1.000  C
  C141     1.0000 0.41120  0.93600  0.33099  Biso   1.000  C
  C142     1.0000 0.47520  0.41120  0.49765  Biso   1.000  C
  C143     1.0000 0.93600  0.52480  0.16432  Biso   1.000  C
  C144     1.0000 0.58880  0.06400  0.83099  Biso   1.000  C
  H157     1.0000 0.57980  0.56930  0.32550  Biso   1.000  H
  H158     1.0000 0.43070  0.01050  0.65883  Biso   1.000  H
  H159     1.0000 0.98950  0.42020  0.99217  Biso   1.000  H
  H160     1.0000 0.42020  0.43070  0.82550  Biso   1.000  H
  H161     1.0000 0.56930  0.98950  0.15883  Biso   1.000  H
  H162     1.0000 0.01050  0.57980  0.49217  Biso   1.000  H
  H163     1.0000 0.56930  0.57980  0.00783  Biso   1.000  H
  H164     1.0000 0.01050  0.43070  0.67450  Biso   1.000  H
  H165     1.0000 0.42020  0.98950  0.34117  Biso   1.000  H
  H166     1.0000 0.43070  0.42020  0.50783  Biso   1.000  H
  H167     1.0000 0.98950  0.56930  0.17450  Biso   1.000  H
  H168     1.0000 0.57980  0.01050  0.84117  Biso   1.000  H
  H169     1.0000 0.59880  0.55240  0.35050  Biso   1.000  H
  H170     1.0000 0.44760  0.04640  0.68383  Biso   1.000  H
  H171     1.0000 0.95360  0.40120  0.01717  Biso   1.000  H
  H172     1.0000 0.40120  0.44760  0.85050  Biso   1.000  H
  H173     1.0000 0.55240  0.95360  0.18383  Biso   1.000  H
  H174     1.0000 0.04640  0.59880  0.51717  Biso   1.000  H
  H175     1.0000 0.55240  0.59880  0.98283  Biso   1.000  H
  H176     1.0000 0.04640  0.44760  0.64950  Biso   1.000  H
  H177     1.0000 0.40120  0.95360  0.31617  Biso   1.000  H
  H178     1.0000 0.44760  0.40120  0.48283  Biso   1.000  H
  H179     1.0000 0.95360  0.55240  0.14950  Biso   1.000  H
  H180     1.0000 0.59880  0.04640  0.81617  Biso   1.000  H
  H181     1.0000 0.52860  0.45730  0.33540  Biso   1.000  H
  H182     1.0000 0.54270  0.07130  0.66873  Biso   1.000  H
  H183     1.0000 0.92870  0.47140  0.00207  Biso   1.000  H
  H184     1.0000 0.47140  0.54270  0.83540  Biso   1.000  H
  H185     1.0000 0.45730  0.92870  0.16873  Biso   1.000  H
  H186     1.0000 0.07130  0.52860  0.50207  Biso   1.000  H
  H187     1.0000 0.45730  0.52860  0.99793  Biso   1.000  H
  H188     1.0000 0.07130  0.54270  0.66460  Biso   1.000  H
  H189     1.0000 0.47140  0.92870  0.33127  Biso   1.000  H
  H190     1.0000 0.54270  0.47140  0.49793  Biso   1.000  H
  H191     1.0000 0.92870  0.45730  0.16460  Biso   1.000  H
  H192     1.0000 0.52860  0.07130  0.83127  Biso   1.000  H
  C145     1.0000 0.04040  0.76770  0.39956  Biso   1.000  C
  C146     1.0000 0.23230  0.27270  0.73289  Biso   1.000  C
  C147     1.0000 0.72730  0.95960  0.06623  Biso   1.000  C
  C148     1.0000 0.95960  0.23230  0.89956  Biso   1.000  C
  C149     1.0000 0.76770  0.72730  0.23289  Biso   1.000  C
  C150     1.0000 0.27270  0.04040  0.56623  Biso   1.000  C
  C151     1.0000 0.76770  0.04040  0.93377  Biso   1.000  C
  C152     1.0000 0.27270  0.23230  0.60044  Biso   1.000  C
  C153     1.0000 0.95960  0.72730  0.26711  Biso   1.000  C
  C154     1.0000 0.23230  0.95960  0.43377  Biso   1.000  C
  C155     1.0000 0.72730  0.76770  0.10044  Biso   1.000  C
  C156     1.0000 0.04040  0.27270  0.76711  Biso   1.000  C
  H193     1.0000 0.11240  0.80710  0.40390  Biso   1.000  H
  H194     1.0000 0.19290  0.30530  0.73723  Biso   1.000  H
  H195     1.0000 0.69470  0.88760  0.07057  Biso   1.000  H
  H196     1.0000 0.88760  0.19290  0.90390  Biso   1.000  H
  H197     1.0000 0.80710  0.69470  0.23723  Biso   1.000  H
  H198     1.0000 0.30530  0.11240  0.57057  Biso   1.000  H
  H199     1.0000 0.80710  0.11240  0.92943  Biso   1.000  H
  H200     1.0000 0.30530  0.19290  0.59610  Biso   1.000  H
  H201     1.0000 0.88760  0.69470  0.26277  Biso   1.000  H
  H202     1.0000 0.19290  0.88760  0.42943  Biso   1.000  H
  H203     1.0000 0.69470  0.80710  0.09610  Biso   1.000  H
  H204     1.0000 0.11240  0.30530  0.76277  Biso   1.000  H
  H205     1.0000 0.02880  0.70430  0.39250  Biso   1.000  H
  H206     1.0000 0.29570  0.32450  0.72583  Biso   1.000  H
  H207     1.0000 0.67550  0.97120  0.05917  Biso   1.000  H
  H208     1.0000 0.97120  0.29570  0.89250  Biso   1.000  H
  H209     1.0000 0.70430  0.67550  0.22583  Biso   1.000  H
  H210     1.0000 0.32450  0.02880  0.55917  Biso   1.000  H
  H211     1.0000 0.70430  0.02880  0.94083  Biso   1.000  H
  H212     1.0000 0.32450  0.29570  0.60750  Biso   1.000  H
  H213     1.0000 0.97120  0.67550  0.27417  Biso   1.000  H
  H214     1.0000 0.29570  0.97120  0.44083  Biso   1.000  H
  H215     1.0000 0.67550  0.70430  0.10750  Biso   1.000  H
  H216     1.0000 0.02880  0.32450  0.77417  Biso   1.000  H
  C157     1.0000 0.87200  0.65370  0.41457  Biso   1.000  C
  C158     1.0000 0.34630  0.21830  0.74790  Biso   1.000  C
  C159     1.0000 0.78170  0.12800  0.08124  Biso   1.000  C
  C160     1.0000 0.12800  0.34630  0.91457  Biso   1.000  C
  C161     1.0000 0.65370  0.78170  0.24790  Biso   1.000  C
  C162     1.0000 0.21830  0.87200  0.58124  Biso   1.000  C
  C163     1.0000 0.65370  0.87200  0.91876  Biso   1.000  C
  C164     1.0000 0.21830  0.34630  0.58543  Biso   1.000  C
  C165     1.0000 0.12800  0.78170  0.25210  Biso   1.000  C
  C166     1.0000 0.34630  0.12800  0.41876  Biso   1.000  C
  C167     1.0000 0.78170  0.65370  0.08543  Biso   1.000  C
  C168     1.0000 0.87200  0.21830  0.75210  Biso   1.000  C
  H217     1.0000 0.88040  0.61030  0.40350  Biso   1.000  H
  H218     1.0000 0.38970  0.27010  0.73683  Biso   1.000  H
  H219     1.0000 0.72990  0.11960  0.07017  Biso   1.000  H
  H220     1.0000 0.11960  0.38970  0.90350  Biso   1.000  H
  H221     1.0000 0.61030  0.72990  0.23683  Biso   1.000  H
  H222     1.0000 0.27010  0.88040  0.57017  Biso   1.000  H
  H223     1.0000 0.61030  0.88040  0.92983  Biso   1.000  H
  H224     1.0000 0.27010  0.38970  0.59650  Biso   1.000  H
  H225     1.0000 0.11960  0.72990  0.26317  Biso   1.000  H
  H226     1.0000 0.38970  0.11960  0.42983  Biso   1.000  H
  H227     1.0000 0.72990  0.61030  0.09650  Biso   1.000  H
  H228     1.0000 0.88040  0.27010  0.76317  Biso   1.000  H
  C169     1.0000 0.80580  0.69260  0.40467  Biso   1.000  C
  C170     1.0000 0.30740  0.11320  0.73800  Biso   1.000  C
  C171     1.0000 0.88680  0.19420  0.07134  Biso   1.000  C
  C172     1.0000 0.19420  0.30740  0.90467  Biso   1.000  C
  C173     1.0000 0.69260  0.88680  0.23800  Biso   1.000  C
  C174     1.0000 0.11320  0.80580  0.57134  Biso   1.000  C
  C175     1.0000 0.69260  0.80580  0.92866  Biso   1.000  C
  C176     1.0000 0.11320  0.30740  0.59533  Biso   1.000  C
  C177     1.0000 0.19420  0.88680  0.26200  Biso   1.000  C
  C178     1.0000 0.30740  0.19420  0.42866  Biso   1.000  C
  C179     1.0000 0.88680  0.69260  0.09533  Biso   1.000  C
  C180     1.0000 0.80580  0.11320  0.76200  Biso   1.000  C
  C181     1.0000 0.82240  0.58990  0.43521  Biso   1.000  C
  C182     1.0000 0.41010  0.23250  0.76854  Biso   1.000  C
  C183     1.0000 0.76750  0.17760  0.10188  Biso   1.000  C
  C184     1.0000 0.17760  0.41010  0.93521  Biso   1.000  C
  C185     1.0000 0.58990  0.76750  0.26854  Biso   1.000  C
  C186     1.0000 0.23250  0.82240  0.60188  Biso   1.000  C
  C187     1.0000 0.58990  0.82240  0.89812  Biso   1.000  C
  C188     1.0000 0.23250  0.41010  0.56479  Biso   1.000  C
  C189     1.0000 0.17760  0.76750  0.23146  Biso   1.000  C
  C190     1.0000 0.41010  0.17760  0.39812  Biso   1.000  C
  C191     1.0000 0.76750  0.58990  0.06479  Biso   1.000  C
  C192     1.0000 0.82240  0.23250  0.73146  Biso   1.000  C
  H229     1.0000 0.87410  0.57890  0.44280  Biso   1.000  H
  H230     1.0000 0.42110  0.29520  0.77613  Biso   1.000  H
  H231     1.0000 0.70480  0.12590  0.10947  Biso   1.000  H
  H232     1.0000 0.12590  0.42110  0.94280  Biso   1.000  H
  H233     1.0000 0.57890  0.70480  0.27613  Biso   1.000  H
  H234     1.0000 0.29520  0.87410  0.60947  Biso   1.000  H
  H235     1.0000 0.57890  0.87410  0.89053  Biso   1.000  H
  H236     1.0000 0.29520  0.42110  0.55720  Biso   1.000  H
  H237     1.0000 0.12590  0.70480  0.22387  Biso   1.000  H
  H238     1.0000 0.42110  0.12590  0.39053  Biso   1.000  H
  H239     1.0000 0.70480  0.57890  0.05720  Biso   1.000  H
  H240     1.0000 0.87410  0.29520  0.72387  Biso   1.000  H
  C193     1.0000 0.78210  0.63650  0.45173  Biso   1.000  C
  C194     1.0000 0.36350  0.14560  0.78506  Biso   1.000  C
  C195     1.0000 0.85440  0.21790  0.11840  Biso   1.000  C
  C196     1.0000 0.21790  0.36350  0.95173  Biso   1.000  C
  C197     1.0000 0.63650  0.85440  0.28506  Biso   1.000  C
  C198     1.0000 0.14560  0.78210  0.61840  Biso   1.000  C
  C199     1.0000 0.63650  0.78210  0.88160  Biso   1.000  C
  C200     1.0000 0.14560  0.36350  0.54827  Biso   1.000  C
  C201     1.0000 0.21790  0.85440  0.21494  Biso   1.000  C
  C202     1.0000 0.36350  0.21790  0.38160  Biso   1.000  C
  C203     1.0000 0.85440  0.63650  0.04827  Biso   1.000  C
  C204     1.0000 0.78210  0.14560  0.71494  Biso   1.000  C
  H241     1.0000 0.76880  0.60050  0.46570  Biso   1.000  H
  H242     1.0000 0.39950  0.16830  0.79903  Biso   1.000  H
  H243     1.0000 0.83170  0.23120  0.13237  Biso   1.000  H
  H244     1.0000 0.23120  0.39950  0.96570  Biso   1.000  H
  H245     1.0000 0.60050  0.83170  0.29903  Biso   1.000  H
  H246     1.0000 0.16830  0.76880  0.63237  Biso   1.000  H
  H247     1.0000 0.60050  0.76880  0.86763  Biso   1.000  H
  H248     1.0000 0.16830  0.39950  0.53430  Biso   1.000  H
  H249     1.0000 0.23120  0.83170  0.20097  Biso   1.000  H
  H250     1.0000 0.39950  0.23120  0.36763  Biso   1.000  H
  H251     1.0000 0.83170  0.60050  0.03430  Biso   1.000  H
  H252     1.0000 0.76880  0.16830  0.70097  Biso   1.000  H
  H253     1.0000 0.71920  0.63070  0.44620  Biso   1.000  H
  H254     1.0000 0.36930  0.08850  0.77953  Biso   1.000  H
  H255     1.0000 0.91150  0.28080  0.11287  Biso   1.000  H
  H256     1.0000 0.28080  0.36930  0.94620  Biso   1.000  H
  H257     1.0000 0.63070  0.91150  0.27953  Biso   1.000  H
  H258     1.0000 0.08850  0.71920  0.61287  Biso   1.000  H
  H259     1.0000 0.63070  0.71920  0.88713  Biso   1.000  H
  H260     1.0000 0.08850  0.36930  0.55380  Biso   1.000  H
  H261     1.0000 0.28080  0.91150  0.22047  Biso   1.000  H
  H262     1.0000 0.36930  0.28080  0.38713  Biso   1.000  H
  H263     1.0000 0.91150  0.63070  0.05380  Biso   1.000  H
  H264     1.0000 0.71920  0.08850  0.72047  Biso   1.000  H
  H265     1.0000 0.83240  0.70790  0.45390  Biso   1.000  H
  H266     1.0000 0.29210  0.12450  0.78723  Biso   1.000  H
  H267     1.0000 0.87550  0.16760  0.12057  Biso   1.000  H
  H268     1.0000 0.16760  0.29210  0.95390  Biso   1.000  H
  H269     1.0000 0.70790  0.87550  0.28723  Biso   1.000  H
  H270     1.0000 0.12450  0.83240  0.62057  Biso   1.000  H
  H271     1.0000 0.70790  0.83240  0.87943  Biso   1.000  H
  H272     1.0000 0.12450  0.29210  0.54610  Biso   1.000  H
  H273     1.0000 0.16760  0.87550  0.21277  Biso   1.000  H
  H274     1.0000 0.29210  0.16760  0.37943  Biso   1.000  H
  H275     1.0000 0.87550  0.70790  0.04610  Biso   1.000  H
  H276     1.0000 0.83240  0.12450  0.71277  Biso   1.000  H
  C205     1.0000 0.73310  0.48510  0.42866  Biso   1.000  C
  C206     1.0000 0.51490  0.24800  0.76199  Biso   1.000  C
  C207     1.0000 0.75200  0.26690  0.09533  Biso   1.000  C
  C208     1.0000 0.26690  0.51490  0.92866  Biso   1.000  C
  C209     1.0000 0.48510  0.75200  0.26199  Biso   1.000  C
  C210     1.0000 0.24800  0.73310  0.59533  Biso   1.000  C
  C211     1.0000 0.48510  0.73310  0.90467  Biso   1.000  C
  C212     1.0000 0.24800  0.51490  0.57134  Biso   1.000  C
  C213     1.0000 0.26690  0.75200  0.23801  Biso   1.000  C
  C214     1.0000 0.51490  0.26690  0.40467  Biso   1.000  C
  C215     1.0000 0.75200  0.48510  0.07134  Biso   1.000  C
  C216     1.0000 0.73310  0.24800  0.73801  Biso   1.000  C
  H277     1.0000 0.70500  0.44340  0.44180  Biso   1.000  H
  H278     1.0000 0.55660  0.26160  0.77513  Biso   1.000  H
  H279     1.0000 0.73840  0.29500  0.10847  Biso   1.000  H
  H280     1.0000 0.29500  0.55660  0.94180  Biso   1.000  H
  H281     1.0000 0.44340  0.73840  0.27513  Biso   1.000  H
  H282     1.0000 0.26160  0.70500  0.60847  Biso   1.000  H
  H283     1.0000 0.44340  0.70500  0.89153  Biso   1.000  H
  H284     1.0000 0.26160  0.55660  0.55820  Biso   1.000  H
  H285     1.0000 0.29500  0.73840  0.22487  Biso   1.000  H
  H286     1.0000 0.55660  0.29500  0.39153  Biso   1.000  H
  H287     1.0000 0.73840  0.44340  0.05820  Biso   1.000  H
  H288     1.0000 0.70500  0.26160  0.72487  Biso   1.000  H
  H289     1.0000 0.75730  0.45180  0.41860  Biso   1.000  H
  H290     1.0000 0.54820  0.30550  0.75193  Biso   1.000  H
  H291     1.0000 0.69450  0.24270  0.08527  Biso   1.000  H
  H292     1.0000 0.24270  0.54820  0.91860  Biso   1.000  H
  H293     1.0000 0.45180  0.69450  0.25193  Biso   1.000  H
  H294     1.0000 0.30550  0.75730  0.58527  Biso   1.000  H
  H295     1.0000 0.45180  0.75730  0.91473  Biso   1.000  H
  H296     1.0000 0.30550  0.54820  0.58140  Biso   1.000  H
  H297     1.0000 0.24270  0.69450  0.24807  Biso   1.000  H
  H298     1.0000 0.54820  0.24270  0.41473  Biso   1.000  H
  H299     1.0000 0.69450  0.45180  0.08140  Biso   1.000  H
  H300     1.0000 0.75730  0.30550  0.74807  Biso   1.000  H
  H301     1.0000 0.68060  0.49370  0.42150  Biso   1.000  H
  H302     1.0000 0.50630  0.18690  0.75483  Biso   1.000  H
  H303     1.0000 0.81310  0.31940  0.08817  Biso   1.000  H
  H304     1.0000 0.31940  0.50630  0.92150  Biso   1.000  H
  H305     1.0000 0.49370  0.81310  0.25483  Biso   1.000  H
  H306     1.0000 0.18690  0.68060  0.58817  Biso   1.000  H
  H307     1.0000 0.49370  0.68060  0.91183  Biso   1.000  H
  H308     1.0000 0.18690  0.50630  0.57850  Biso   1.000  H
  H309     1.0000 0.31940  0.81310  0.24517  Biso   1.000  H
  H310     1.0000 0.50630  0.31940  0.41183  Biso   1.000  H
  H311     1.0000 0.81310  0.49370  0.07850  Biso   1.000  H
  H312     1.0000 0.68060  0.18690  0.74517  Biso   1.000  H
  C217     1.0000 0.93920  0.24260  0.36963  Biso   1.000  C
  C218     1.0000 0.75740  0.69660  0.70296  Biso   1.000  C
  C219     1.0000 0.30340  0.06080  0.03630  Biso   1.000  C
  C220     1.0000 0.06080  0.75740  0.86963  Biso   1.000  C
  C221     1.0000 0.24260  0.30340  0.20296  Biso   1.000  C
  C222     1.0000 0.69660  0.93920  0.53630  Biso   1.000  C
  C223     1.0000 0.24260  0.93920  0.96370  Biso   1.000  C
  C224     1.0000 0.69660  0.75740  0.63037  Biso   1.000  C
  C225     1.0000 0.06080  0.30340  0.29704  Biso   1.000  C
  C226     1.0000 0.75740  0.06080  0.46370  Biso   1.000  C
  C227     1.0000 0.30340  0.24260  0.13037  Biso   1.000  C
  C228     1.0000 0.93920  0.69660  0.79704  Biso   1.000  C
  H313     1.0000 0.97910  0.28570  0.35720  Biso   1.000  H
  H314     1.0000 0.71430  0.69340  0.69053  Biso   1.000  H
  H315     1.0000 0.30660  0.02090  0.02387  Biso   1.000  H
  H316     1.0000 0.02090  0.71430  0.85720  Biso   1.000  H
  H317     1.0000 0.28570  0.30660  0.19053  Biso   1.000  H
  H318     1.0000 0.69340  0.97910  0.52387  Biso   1.000  H
  H319     1.0000 0.28570  0.97910  0.97613  Biso   1.000  H
  H320     1.0000 0.69340  0.71430  0.64280  Biso   1.000  H
  H321     1.0000 0.02090  0.30660  0.30947  Biso   1.000  H
  H322     1.0000 0.71430  0.02090  0.47613  Biso   1.000  H
  H323     1.0000 0.30660  0.28570  0.14280  Biso   1.000  H
  H324     1.0000 0.97910  0.69340  0.80947  Biso   1.000  H
  H325     1.0000 0.94100  0.28670  0.38170  Biso   1.000  H
  H326     1.0000 0.71330  0.65430  0.71503  Biso   1.000  H
  H327     1.0000 0.34570  0.05900  0.04837  Biso   1.000  H
  H328     1.0000 0.05900  0.71330  0.88170  Biso   1.000  H
  H329     1.0000 0.28670  0.34570  0.21503  Biso   1.000  H
  H330     1.0000 0.65430  0.94100  0.54837  Biso   1.000  H
  H331     1.0000 0.28670  0.94100  0.95163  Biso   1.000  H
  H332     1.0000 0.65430  0.71330  0.61830  Biso   1.000  H
  H333     1.0000 0.05900  0.34570  0.28497  Biso   1.000  H
  H334     1.0000 0.71330  0.05900  0.45163  Biso   1.000  H
  H335     1.0000 0.34570  0.28670  0.11830  Biso   1.000  H
  H336     1.0000 0.94100  0.65430  0.78497  Biso   1.000  H
  C229     1.0000 0.75840  0.13420  0.38098  Biso   1.000  C
  C230     1.0000 0.86580  0.62420  0.71431  Biso   1.000  C
  C231     1.0000 0.37580  0.24160  0.04765  Biso   1.000  C
  C232     1.0000 0.24160  0.86580  0.88098  Biso   1.000  C
  C233     1.0000 0.13420  0.37580  0.21431  Biso   1.000  C
  C234     1.0000 0.62420  0.75840  0.54765  Biso   1.000  C
  C235     1.0000 0.13420  0.75840  0.95235  Biso   1.000  C
  C236     1.0000 0.62420  0.86580  0.61902  Biso   1.000  C
  C237     1.0000 0.24160  0.37580  0.28569  Biso   1.000  C
  C238     1.0000 0.86580  0.24160  0.45235  Biso   1.000  C
  C239     1.0000 0.37580  0.13420  0.11902  Biso   1.000  C
  C240     1.0000 0.75840  0.62420  0.78569  Biso   1.000  C
  H337     1.0000 0.79770  0.14820  0.39490  Biso   1.000  H
  H338     1.0000 0.85180  0.64950  0.72823  Biso   1.000  H
  H339     1.0000 0.35050  0.20230  0.06157  Biso   1.000  H
  H340     1.0000 0.20230  0.85180  0.89490  Biso   1.000  H
  H341     1.0000 0.14820  0.35050  0.22823  Biso   1.000  H
  H342     1.0000 0.64950  0.79770  0.56157  Biso   1.000  H
  H343     1.0000 0.14820  0.79770  0.93843  Biso   1.000  H
  H344     1.0000 0.64950  0.85180  0.60510  Biso   1.000  H
  H345     1.0000 0.20230  0.35050  0.27177  Biso   1.000  H
  H346     1.0000 0.85180  0.20230  0.43843  Biso   1.000  H
  H347     1.0000 0.35050  0.14820  0.10510  Biso   1.000  H
  H348     1.0000 0.79770  0.64950  0.77177  Biso   1.000  H
  C241     1.0000 0.68950  0.02020  0.37953  Biso   1.000  C
  C242     1.0000 0.97980  0.66930  0.71286  Biso   1.000  C
  C243     1.0000 0.33070  0.31050  0.04620  Biso   1.000  C
  C244     1.0000 0.31050  0.97980  0.87953  Biso   1.000  C
  C245     1.0000 0.02020  0.33070  0.21286  Biso   1.000  C
  C246     1.0000 0.66930  0.68950  0.54620  Biso   1.000  C
  C247     1.0000 0.02020  0.68950  0.95380  Biso   1.000  C
  C248     1.0000 0.66930  0.97980  0.62047  Biso   1.000  C
  C249     1.0000 0.31050  0.33070  0.28714  Biso   1.000  C
  C250     1.0000 0.97980  0.31050  0.45380  Biso   1.000  C
  C251     1.0000 0.33070  0.02020  0.12047  Biso   1.000  C
  C252     1.0000 0.68950  0.66930  0.78714  Biso   1.000  C
  C253     1.0000 0.69850  0.18900  0.38250  Biso   1.000  C
  C254     1.0000 0.81100  0.50950  0.71583  Biso   1.000  C
  C255     1.0000 0.49050  0.30150  0.04917  Biso   1.000  C
  C256     1.0000 0.30150  0.81100  0.88250  Biso   1.000  C
  C257     1.0000 0.18900  0.49050  0.21583  Biso   1.000  C
  C258     1.0000 0.50950  0.69850  0.54917  Biso   1.000  C
  C259     1.0000 0.18900  0.69850  0.95083  Biso   1.000  C
  C260     1.0000 0.50950  0.81100  0.61750  Biso   1.000  C
  C261     1.0000 0.30150  0.49050  0.28417  Biso   1.000  C
  C262     1.0000 0.81100  0.30150  0.45083  Biso   1.000  C
  C263     1.0000 0.49050  0.18900  0.11750  Biso   1.000  C
  C264     1.0000 0.69850  0.50950  0.78417  Biso   1.000  C
  H349     1.0000 0.65480  0.16330  0.39580  Biso   1.000  H
  H350     1.0000 0.83670  0.49150  0.72913  Biso   1.000  H
  H351     1.0000 0.50850  0.34520  0.06247  Biso   1.000  H
  H352     1.0000 0.34520  0.83670  0.89580  Biso   1.000  H
  H353     1.0000 0.16330  0.50850  0.22913  Biso   1.000  H
  H354     1.0000 0.49150  0.65480  0.56247  Biso   1.000  H
  H355     1.0000 0.16330  0.65480  0.93753  Biso   1.000  H
  H356     1.0000 0.49150  0.83670  0.60420  Biso   1.000  H
  H357     1.0000 0.34520  0.50850  0.27087  Biso   1.000  H
  H358     1.0000 0.83670  0.34520  0.43753  Biso   1.000  H
  H359     1.0000 0.50850  0.16330  0.10420  Biso   1.000  H
  H360     1.0000 0.65480  0.49150  0.77087  Biso   1.000  H
  C265     1.0000 0.76580  0.30210  0.38517  Biso   1.000  C
  C266     1.0000 0.69790  0.46370  0.71850  Biso   1.000  C
  C267     1.0000 0.53630  0.23420  0.05184  Biso   1.000  C
  C268     1.0000 0.23420  0.69790  0.88517  Biso   1.000  C
  C269     1.0000 0.30210  0.53630  0.21850  Biso   1.000  C
  C270     1.0000 0.46370  0.76580  0.55184  Biso   1.000  C
  C271     1.0000 0.30210  0.76580  0.94816  Biso   1.000  C
  C272     1.0000 0.46370  0.69790  0.61483  Biso   1.000  C
  C273     1.0000 0.23420  0.53630  0.28150  Biso   1.000  C
  C274     1.0000 0.69790  0.23420  0.44816  Biso   1.000  C
  C275     1.0000 0.53630  0.30210  0.11483  Biso   1.000  C
  C276     1.0000 0.76580  0.46370  0.78150  Biso   1.000  C
  H361     1.0000 0.72380  0.33350  0.38710  Biso   1.000  H
  H362     1.0000 0.66650  0.39030  0.72043  Biso   1.000  H
  H363     1.0000 0.60970  0.27620  0.05377  Biso   1.000  H
  H364     1.0000 0.27620  0.66650  0.88710  Biso   1.000  H
  H365     1.0000 0.33350  0.60970  0.22043  Biso   1.000  H
  H366     1.0000 0.39030  0.72380  0.55377  Biso   1.000  H
  H367     1.0000 0.33350  0.72380  0.94623  Biso   1.000  H
  H368     1.0000 0.39030  0.66650  0.61290  Biso   1.000  H
  H369     1.0000 0.27620  0.60970  0.27957  Biso   1.000  H
  H370     1.0000 0.66650  0.27620  0.44623  Biso   1.000  H
  H371     1.0000 0.60970  0.33350  0.11290  Biso   1.000  H
  H372     1.0000 0.72380  0.39030  0.77957  Biso   1.000  H
  H373     1.0000 0.80810  0.33010  0.37210  Biso   1.000  H
  H374     1.0000 0.66990  0.47800  0.70543  Biso   1.000  H
  H375     1.0000 0.52200  0.19190  0.03877  Biso   1.000  H
  H376     1.0000 0.19190  0.66990  0.87210  Biso   1.000  H
  H377     1.0000 0.33010  0.52200  0.20543  Biso   1.000  H
  H378     1.0000 0.47800  0.80810  0.53877  Biso   1.000  H
  H379     1.0000 0.33010  0.80810  0.96123  Biso   1.000  H
  H380     1.0000 0.47800  0.66990  0.62790  Biso   1.000  H
  H381     1.0000 0.19190  0.52200  0.29457  Biso   1.000  H
  H382     1.0000 0.66990  0.19190  0.46123  Biso   1.000  H
  H383     1.0000 0.52200  0.33010  0.12790  Biso   1.000  H
  H384     1.0000 0.80810  0.47800  0.79457  Biso   1.000  H
  H385     1.0000 0.80900  0.31600  0.39810  Biso   1.000  H
  H386     1.0000 0.68400  0.49300  0.73143  Biso   1.000  H
  H387     1.0000 0.50700  0.19100  0.06477  Biso   1.000  H
  H388     1.0000 0.19100  0.68400  0.89810  Biso   1.000  H
  H389     1.0000 0.31600  0.50700  0.23143  Biso   1.000  H
  H390     1.0000 0.49300  0.80900  0.56477  Biso   1.000  H
  H391     1.0000 0.31600  0.80900  0.93523  Biso   1.000  H
  H392     1.0000 0.49300  0.68400  0.60190  Biso   1.000  H
  H393     1.0000 0.19100  0.50700  0.26857  Biso   1.000  H
  H394     1.0000 0.68400  0.19100  0.43523  Biso   1.000  H
  H395     1.0000 0.50700  0.31600  0.10190  Biso   1.000  H
  H396     1.0000 0.80900  0.49300  0.76857  Biso   1.000  H
  C277     1.0000 0.62960  0.16590  0.36308  Biso   1.000  C
  C278     1.0000 0.83410  0.46370  0.69641  Biso   1.000  C
  C279     1.0000 0.53630  0.37040  0.02975  Biso   1.000  C
  C280     1.0000 0.37040  0.83410  0.86308  Biso   1.000  C
  C281     1.0000 0.16590  0.53630  0.19641  Biso   1.000  C
  C282     1.0000 0.46370  0.62960  0.52975  Biso   1.000  C
  C283     1.0000 0.16590  0.62960  0.97025  Biso   1.000  C
  C284     1.0000 0.46370  0.83410  0.63692  Biso   1.000  C
  C285     1.0000 0.37040  0.53630  0.30359  Biso   1.000  C
  C286     1.0000 0.83410  0.37040  0.47025  Biso   1.000  C
  C287     1.0000 0.53630  0.16590  0.13692  Biso   1.000  C
  C288     1.0000 0.62960  0.46370  0.80359  Biso   1.000  C
  H397     1.0000 0.59730  0.20750  0.36380  Biso   1.000  H
  H398     1.0000 0.79250  0.38980  0.69713  Biso   1.000  H
  H399     1.0000 0.61020  0.40270  0.03047  Biso   1.000  H
  H400     1.0000 0.40270  0.79250  0.86380  Biso   1.000  H
  H401     1.0000 0.20750  0.61020  0.19713  Biso   1.000  H
  H402     1.0000 0.38980  0.59730  0.53047  Biso   1.000  H
  H403     1.0000 0.20750  0.59730  0.96953  Biso   1.000  H
  H404     1.0000 0.38980  0.79250  0.63620  Biso   1.000  H
  H405     1.0000 0.40270  0.61020  0.30287  Biso   1.000  H
  H406     1.0000 0.79250  0.40270  0.46953  Biso   1.000  H
  H407     1.0000 0.61020  0.20750  0.13620  Biso   1.000  H
  H408     1.0000 0.59730  0.38980  0.80287  Biso   1.000  H
  H409     1.0000 0.57750  0.09430  0.36330  Biso   1.000  H
  H410     1.0000 0.90570  0.48320  0.69663  Biso   1.000  H
  H411     1.0000 0.51680  0.42250  0.02997  Biso   1.000  H
  H412     1.0000 0.42250  0.90570  0.86330  Biso   1.000  H
  H413     1.0000 0.09430  0.51680  0.19663  Biso   1.000  H
  H414     1.0000 0.48320  0.57750  0.52997  Biso   1.000  H
  H415     1.0000 0.09430  0.57750  0.97003  Biso   1.000  H
  H416     1.0000 0.48320  0.90570  0.63670  Biso   1.000  H
  H417     1.0000 0.42250  0.51680  0.30337  Biso   1.000  H
  H418     1.0000 0.90570  0.42250  0.47003  Biso   1.000  H
  H419     1.0000 0.51680  0.09430  0.13670  Biso   1.000  H
  H420     1.0000 0.57750  0.48320  0.80337  Biso   1.000  H
  H421     1.0000 0.66910  0.18100  0.34960  Biso   1.000  H
  H422     1.0000 0.81900  0.48810  0.68293  Biso   1.000  H
  H423     1.0000 0.51190  0.33090  0.01627  Biso   1.000  H
  H424     1.0000 0.33090  0.81900  0.84960  Biso   1.000  H
  H425     1.0000 0.18100  0.51190  0.18293  Biso   1.000  H
  H426     1.0000 0.48810  0.66910  0.51627  Biso   1.000  H
  H427     1.0000 0.18100  0.66910  0.98373  Biso   1.000  H
  H428     1.0000 0.48810  0.81900  0.65040  Biso   1.000  H
  H429     1.0000 0.33090  0.51190  0.31707  Biso   1.000  H
  H430     1.0000 0.81900  0.33090  0.48373  Biso   1.000  H
  H431     1.0000 0.51190  0.18100  0.15040  Biso   1.000  H
  H432     1.0000 0.66910  0.48810  0.81707  Biso   1.000  H
  C289     1.0000 0.11620  0.28070  0.40568  Biso   1.000  C
  C290     1.0000 0.71930  0.83550  0.73901  Biso   1.000  C
  C291     1.0000 0.16450  0.88380  0.07235  Biso   1.000  C
  C292     1.0000 0.88380  0.71930  0.90568  Biso   1.000  C
  C293     1.0000 0.28070  0.16450  0.23901  Biso   1.000  C
  C294     1.0000 0.83550  0.11620  0.57235  Biso   1.000  C
  C295     1.0000 0.28070  0.11620  0.92765  Biso   1.000  C
  C296     1.0000 0.83550  0.71930  0.59432  Biso   1.000  C
  C297     1.0000 0.88380  0.16450  0.26099  Biso   1.000  C
  C298     1.0000 0.71930  0.88380  0.42765  Biso   1.000  C
  C299     1.0000 0.16450  0.28070  0.09432  Biso   1.000  C
  C300     1.0000 0.11620  0.83550  0.76099  Biso   1.000  C
  H433     1.0000 0.13010  0.25820  0.41980  Biso   1.000  H
  H434     1.0000 0.74180  0.87190  0.75313  Biso   1.000  H
  H435     1.0000 0.12810  0.86990  0.08647  Biso   1.000  H
  H436     1.0000 0.86990  0.74180  0.91980  Biso   1.000  H
  H437     1.0000 0.25820  0.12810  0.25313  Biso   1.000  H
  H438     1.0000 0.87190  0.13010  0.58647  Biso   1.000  H
  H439     1.0000 0.25820  0.13010  0.91353  Biso   1.000  H
  H440     1.0000 0.87190  0.74180  0.58020  Biso   1.000  H
  H441     1.0000 0.86990  0.12810  0.24687  Biso   1.000  H
  H442     1.0000 0.74180  0.86990  0.41353  Biso   1.000  H
  H443     1.0000 0.12810  0.25820  0.08020  Biso   1.000  H
  H444     1.0000 0.13010  0.87190  0.74687  Biso   1.000  H
  H445     1.0000 0.08000  0.31800  0.40880  Biso   1.000  H
  H446     1.0000 0.68200  0.76200  0.74213  Biso   1.000  H
  H447     1.0000 0.23800  0.92000  0.07547  Biso   1.000  H
  H448     1.0000 0.92000  0.68200  0.90880  Biso   1.000  H
  H449     1.0000 0.31800  0.23800  0.24213  Biso   1.000  H
  H450     1.0000 0.76200  0.08000  0.57547  Biso   1.000  H
  H451     1.0000 0.31800  0.08000  0.92453  Biso   1.000  H
  H452     1.0000 0.76200  0.68200  0.59120  Biso   1.000  H
  H453     1.0000 0.92000  0.23800  0.25787  Biso   1.000  H
  H454     1.0000 0.68200  0.92000  0.42453  Biso   1.000  H
  H455     1.0000 0.23800  0.31800  0.09120  Biso   1.000  H
  H456     1.0000 0.08000  0.76200  0.75787  Biso   1.000  H
  C301     1.0000 0.21300  0.42440  0.37839  Biso   1.000  C
  C302     1.0000 0.57560  0.78860  0.71172  Biso   1.000  C
  C303     1.0000 0.21140  0.78700  0.04506  Biso   1.000  C
  C304     1.0000 0.78700  0.57560  0.87839  Biso   1.000  C
  C305     1.0000 0.42440  0.21140  0.21172  Biso   1.000  C
  C306     1.0000 0.78860  0.21300  0.54506  Biso   1.000  C
  C307     1.0000 0.42440  0.21300  0.95494  Biso   1.000  C
  C308     1.0000 0.78860  0.57560  0.62161  Biso   1.000  C
  C309     1.0000 0.78700  0.21140  0.28828  Biso   1.000  C
  C310     1.0000 0.57560  0.78700  0.45494  Biso   1.000  C
  C311     1.0000 0.21140  0.42440  0.12161  Biso   1.000  C
  C312     1.0000 0.21300  0.78860  0.78828  Biso   1.000  C
  H457     1.0000 0.15990  0.43960  0.38360  Biso   1.000  H
  H458     1.0000 0.56040  0.72030  0.71693  Biso   1.000  H
  H459     1.0000 0.27970  0.84010  0.05027  Biso   1.000  H
  H460     1.0000 0.84010  0.56040  0.88360  Biso   1.000  H
  H461     1.0000 0.43960  0.27970  0.21693  Biso   1.000  H
  H462     1.0000 0.72030  0.15990  0.55027  Biso   1.000  H
  H463     1.0000 0.43960  0.15990  0.94973  Biso   1.000  H
  H464     1.0000 0.72030  0.56040  0.61640  Biso   1.000  H
  H465     1.0000 0.84010  0.27970  0.28307  Biso   1.000  H
  H466     1.0000 0.56040  0.84010  0.44973  Biso   1.000  H
  H467     1.0000 0.27970  0.43960  0.11640  Biso   1.000  H
  H468     1.0000 0.15990  0.72030  0.78307  Biso   1.000  H
  C313     1.0000 0.18300  0.37680  0.35497  Biso   1.000  C
  C314     1.0000 0.62320  0.80620  0.68830  Biso   1.000  C
  C315     1.0000 0.19380  0.81700  0.02164  Biso   1.000  C
  C316     1.0000 0.81700  0.62320  0.85497  Biso   1.000  C
  C317     1.0000 0.37680  0.19380  0.18830  Biso   1.000  C
  C318     1.0000 0.80620  0.18300  0.52164  Biso   1.000  C
  C319     1.0000 0.37680  0.18300  0.97836  Biso   1.000  C
  C320     1.0000 0.80620  0.62320  0.64503  Biso   1.000  C
  C321     1.0000 0.81700  0.19380  0.31170  Biso   1.000  C
  C322     1.0000 0.62320  0.81700  0.47836  Biso   1.000  C
  C323     1.0000 0.19380  0.37680  0.14503  Biso   1.000  C
  C324     1.0000 0.18300  0.80620  0.81170  Biso   1.000  C
  C325     1.0000 0.31520  0.52410  0.37791  Biso   1.000  C
  C326     1.0000 0.47590  0.79110  0.71124  Biso   1.000  C
  C327     1.0000 0.20890  0.68480  0.04458  Biso   1.000  C
  C328     1.0000 0.68480  0.47590  0.87791  Biso   1.000  C
  C329     1.0000 0.52410  0.20890  0.21124  Biso   1.000  C
  C330     1.0000 0.79110  0.31520  0.54458  Biso   1.000  C
  C331     1.0000 0.52410  0.31520  0.95542  Biso   1.000  C
  C332     1.0000 0.79110  0.47590  0.62209  Biso   1.000  C
  C333     1.0000 0.68480  0.20890  0.28876  Biso   1.000  C
  C334     1.0000 0.47590  0.68480  0.45542  Biso   1.000  C
  C335     1.0000 0.20890  0.52410  0.12209  Biso   1.000  C
  C336     1.0000 0.31520  0.79110  0.78876  Biso   1.000  C
  H469     1.0000 0.33490  0.54570  0.39340  Biso   1.000  H
  H470     1.0000 0.45430  0.78920  0.72673  Biso   1.000  H
  H471     1.0000 0.21080  0.66510  0.06007  Biso   1.000  H
  H472     1.0000 0.66510  0.45430  0.89340  Biso   1.000  H
  H473     1.0000 0.54570  0.21080  0.22673  Biso   1.000  H
  H474     1.0000 0.78920  0.33490  0.56007  Biso   1.000  H
  H475     1.0000 0.54570  0.33490  0.93993  Biso   1.000  H
  H476     1.0000 0.78920  0.45430  0.60660  Biso   1.000  H
  H477     1.0000 0.66510  0.21080  0.27327  Biso   1.000  H
  H478     1.0000 0.45430  0.66510  0.43993  Biso   1.000  H
  H479     1.0000 0.21080  0.54570  0.10660  Biso   1.000  H
  H480     1.0000 0.33490  0.78920  0.77327  Biso   1.000  H
  C337     1.0000 0.30450  0.60800  0.36645  Biso   1.000  C
  C338     1.0000 0.39200  0.69650  0.69978  Biso   1.000  C
  C339     1.0000 0.30350  0.69550  0.03312  Biso   1.000  C
  C340     1.0000 0.69550  0.39200  0.86645  Biso   1.000  C
  C341     1.0000 0.60800  0.30350  0.19978  Biso   1.000  C
  C342     1.0000 0.69650  0.30450  0.53312  Biso   1.000  C
  C343     1.0000 0.60800  0.30450  0.96688  Biso   1.000  C
  C344     1.0000 0.69650  0.39200  0.63355  Biso   1.000  C
  C345     1.0000 0.69550  0.30350  0.30022  Biso   1.000  C
  C346     1.0000 0.39200  0.69550  0.46688  Biso   1.000  C
  C347     1.0000 0.30350  0.60800  0.13355  Biso   1.000  C
  C348     1.0000 0.30450  0.69650  0.80022  Biso   1.000  C
  H481     1.0000 0.36930  0.67150  0.36690  Biso   1.000  H
  H482     1.0000 0.32850  0.69780  0.70023  Biso   1.000  H
  H483     1.0000 0.30220  0.63070  0.03357  Biso   1.000  H
  H484     1.0000 0.63070  0.32850  0.86690  Biso   1.000  H
  H485     1.0000 0.67150  0.30220  0.20023  Biso   1.000  H
  H486     1.0000 0.69780  0.36930  0.53357  Biso   1.000  H
  H487     1.0000 0.67150  0.36930  0.96643  Biso   1.000  H
  H488     1.0000 0.69780  0.32850  0.63310  Biso   1.000  H
  H489     1.0000 0.63070  0.30220  0.29977  Biso   1.000  H
  H490     1.0000 0.32850  0.63070  0.46643  Biso   1.000  H
  H491     1.0000 0.30220  0.67150  0.13310  Biso   1.000  H
  H492     1.0000 0.36930  0.69780  0.79977  Biso   1.000  H
  H493     1.0000 0.25280  0.61700  0.37390  Biso   1.000  H
  H494     1.0000 0.38300  0.63580  0.70723  Biso   1.000  H
  H495     1.0000 0.36420  0.74720  0.04057  Biso   1.000  H
  H496     1.0000 0.74720  0.38300  0.87390  Biso   1.000  H
  H497     1.0000 0.61700  0.36420  0.20723  Biso   1.000  H
  H498     1.0000 0.63580  0.25280  0.54057  Biso   1.000  H
  H499     1.0000 0.61700  0.25280  0.95943  Biso   1.000  H
  H500     1.0000 0.63580  0.38300  0.62610  Biso   1.000  H
  H501     1.0000 0.74720  0.36420  0.29277  Biso   1.000  H
  H502     1.0000 0.38300  0.74720  0.45943  Biso   1.000  H
  H503     1.0000 0.36420  0.61700  0.12610  Biso   1.000  H
  H504     1.0000 0.25280  0.63580  0.79277  Biso   1.000  H
  H505     1.0000 0.28450  0.58900  0.35120  Biso   1.000  H
  H506     1.0000 0.41100  0.69550  0.68453  Biso   1.000  H
  H507     1.0000 0.30450  0.71550  0.01787  Biso   1.000  H
  H508     1.0000 0.71550  0.41100  0.85120  Biso   1.000  H
  H509     1.0000 0.58900  0.30450  0.18453  Biso   1.000  H
  H510     1.0000 0.69550  0.28450  0.51787  Biso   1.000  H
  H511     1.0000 0.58900  0.28450  0.98213  Biso   1.000  H
  H512     1.0000 0.69550  0.41100  0.64880  Biso   1.000  H
  H513     1.0000 0.71550  0.30450  0.31547  Biso   1.000  H
  H514     1.0000 0.41100  0.71550  0.48213  Biso   1.000  H
  H515     1.0000 0.30450  0.58900  0.14880  Biso   1.000  H
  H516     1.0000 0.28450  0.69550  0.81547  Biso   1.000  H
  C349     1.0000 0.39920  0.51310  0.36771  Biso   1.000  C
  C350     1.0000 0.48690  0.88610  0.70104  Biso   1.000  C
  C351     1.0000 0.11390  0.60080  0.03438  Biso   1.000  C
  C352     1.0000 0.60080  0.48690  0.86771  Biso   1.000  C
  C353     1.0000 0.51310  0.11390  0.20104  Biso   1.000  C
  C354     1.0000 0.88610  0.39920  0.53438  Biso   1.000  C
  C355     1.0000 0.51310  0.39920  0.96562  Biso   1.000  C
  C356     1.0000 0.88610  0.48690  0.63229  Biso   1.000  C
  C357     1.0000 0.60080  0.11390  0.29896  Biso   1.000  C
  C358     1.0000 0.48690  0.60080  0.46562  Biso   1.000  C
  C359     1.0000 0.11390  0.51310  0.13229  Biso   1.000  C
  C360     1.0000 0.39920  0.88610  0.79896  Biso   1.000  C
  H517     1.0000 0.40930  0.46420  0.37620  Biso   1.000  H
  H518     1.0000 0.53580  0.94510  0.70953  Biso   1.000  H
  H519     1.0000 0.05490  0.59070  0.04287  Biso   1.000  H
  H520     1.0000 0.59070  0.53580  0.87620  Biso   1.000  H
  H521     1.0000 0.46420  0.05490  0.20953  Biso   1.000  H
  H522     1.0000 0.94510  0.40930  0.54287  Biso   1.000  H
  H523     1.0000 0.46420  0.40930  0.95713  Biso   1.000  H
  H524     1.0000 0.94510  0.53580  0.62380  Biso   1.000  H
  H525     1.0000 0.59070  0.05490  0.29047  Biso   1.000  H
  H526     1.0000 0.53580  0.59070  0.45713  Biso   1.000  H
  H527     1.0000 0.05490  0.46420  0.12380  Biso   1.000  H
  H528     1.0000 0.40930  0.94510  0.79047  Biso   1.000  H
  H529     1.0000 0.46180  0.57870  0.36770  Biso   1.000  H
  H530     1.0000 0.42130  0.88310  0.70103  Biso   1.000  H
  H531     1.0000 0.11690  0.53820  0.03437  Biso   1.000  H
  H532     1.0000 0.53820  0.42130  0.86770  Biso   1.000  H
  H533     1.0000 0.57870  0.11690  0.20103  Biso   1.000  H
  H534     1.0000 0.88310  0.46180  0.53437  Biso   1.000  H
  H535     1.0000 0.57870  0.46180  0.96563  Biso   1.000  H
  H536     1.0000 0.88310  0.42130  0.63230  Biso   1.000  H
  H537     1.0000 0.53820  0.11690  0.29897  Biso   1.000  H
  H538     1.0000 0.42130  0.53820  0.46563  Biso   1.000  H
  H539     1.0000 0.11690  0.57870  0.13230  Biso   1.000  H
  H540     1.0000 0.46180  0.88310  0.79897  Biso   1.000  H
  H541     1.0000 0.38110  0.48910  0.35260  Biso   1.000  H
  H542     1.0000 0.51090  0.89200  0.68593  Biso   1.000  H
  H543     1.0000 0.10800  0.61890  0.01927  Biso   1.000  H
  H544     1.0000 0.61890  0.51090  0.85260  Biso   1.000  H
  H545     1.0000 0.48910  0.10800  0.18593  Biso   1.000  H
  H546     1.0000 0.89200  0.38110  0.51927  Biso   1.000  H
  H547     1.0000 0.48910  0.38110  0.98073  Biso   1.000  H
  H548     1.0000 0.89200  0.51090  0.64740  Biso   1.000  H
  H549     1.0000 0.61890  0.10800  0.31407  Biso   1.000  H
  H550     1.0000 0.51090  0.61890  0.48073  Biso   1.000  H
  H551     1.0000 0.10800  0.48910  0.14740  Biso   1.000  H
  H552     1.0000 0.38110  0.89200  0.81407  Biso   1.000  H
  O121     1.0000 0.55880  0.62490  0.40926  Biso   1.000  O
  O122     1.0000 0.37510  0.93390  0.74259  Biso   1.000  O
  O123     1.0000 0.06610  0.44120  0.07593  Biso   1.000  O
  O124     1.0000 0.44120  0.37510  0.90926  Biso   1.000  O
  O125     1.0000 0.62490  0.06610  0.24259  Biso   1.000  O
  O126     1.0000 0.93390  0.55880  0.57593  Biso   1.000  O
  O127     1.0000 0.62490  0.55880  0.92407  Biso   1.000  O
  O128     1.0000 0.93390  0.37510  0.59074  Biso   1.000  O
  O129     1.0000 0.44120  0.06610  0.25741  Biso   1.000  O
  O130     1.0000 0.37510  0.44120  0.42407  Biso   1.000  O
  O131     1.0000 0.06610  0.62490  0.09074  Biso   1.000  O
  O132     1.0000 0.55880  0.93390  0.75741  Biso   1.000  O
  O133     1.0000 0.18770  0.65640  0.42795  Biso   1.000  O
  O134     1.0000 0.34360  0.53130  0.76128  Biso   1.000  O
  O135     1.0000 0.46870  0.81230  0.09462  Biso   1.000  O
  O136     1.0000 0.81230  0.34360  0.92795  Biso   1.000  O
  O137     1.0000 0.65640  0.46870  0.26128  Biso   1.000  O
  O138     1.0000 0.53130  0.18770  0.59462  Biso   1.000  O
  O139     1.0000 0.65640  0.18770  0.90538  Biso   1.000  O
  O140     1.0000 0.53130  0.34360  0.57205  Biso   1.000  O
  O141     1.0000 0.81230  0.46870  0.23872  Biso   1.000  O
  O142     1.0000 0.34360  0.81230  0.40538  Biso   1.000  O
  O143     1.0000 0.46870  0.65640  0.07205  Biso   1.000  O
  O144     1.0000 0.18770  0.53130  0.73872  Biso   1.000  O
  O145     1.0000 0.50640  0.77610  0.39899  Biso   1.000  O
  O146     1.0000 0.22390  0.73030  0.73232  Biso   1.000  O
  O147     1.0000 0.26970  0.49360  0.06566  Biso   1.000  O
  O148     1.0000 0.49360  0.22390  0.89899  Biso   1.000  O
  O149     1.0000 0.77610  0.26970  0.23232  Biso   1.000  O
  O150     1.0000 0.73030  0.50640  0.56566  Biso   1.000  O
  O151     1.0000 0.77610  0.50640  0.93434  Biso   1.000  O
  O152     1.0000 0.73030  0.22390  0.60101  Biso   1.000  O
  O153     1.0000 0.49360  0.26970  0.26768  Biso   1.000  O
  O154     1.0000 0.22390  0.49360  0.43434  Biso   1.000  O
  O155     1.0000 0.26970  0.77610  0.10101  Biso   1.000  O
  O156     1.0000 0.50640  0.73030  0.76768  Biso   1.000  O
  O157     1.0000 0.01880  0.50370  0.40674  Biso   1.000  O
  O158     1.0000 0.49630  0.51510  0.74007  Biso   1.000  O
  O159     1.0000 0.48490  0.98120  0.07341  Biso   1.000  O
  O160     1.0000 0.98120  0.49630  0.90674  Biso   1.000  O
  O161     1.0000 0.50370  0.48490  0.24007  Biso   1.000  O
  O162     1.0000 0.51510  0.01880  0.57341  Biso   1.000  O
  O163     1.0000 0.50370  0.01880  0.92659  Biso   1.000  O
  O164     1.0000 0.51510  0.49630  0.59326  Biso   1.000  O
  O165     1.0000 0.98120  0.48490  0.25993  Biso   1.000  O
  O166     1.0000 0.49630  0.98120  0.42659  Biso   1.000  O
  O167     1.0000 0.48490  0.50370  0.09326  Biso   1.000  O
  O168     1.0000 0.01880  0.51510  0.75993  Biso   1.000  O
