data_image0
_cell_length_a       41.28
_cell_length_b       41.28
_cell_length_c       9.864
_cell_angle_alpha    90
_cell_angle_beta     90
_cell_angle_gamma    120

_symmetry_space_group_name_H-M    "P 1"
_symmetry_int_tables_number       1

loop_
  _symmetry_equiv_pos_as_xyz
  'x, y, z'

loop_
  _atom_site_label
  _atom_site_occupancy
  _atom_site_fract_x
  _atom_site_fract_y
  _atom_site_fract_z
  _atom_site_thermal_displace_type
  _atom_site_B_iso_or_equiv
  _atom_site_type_symbol
  Cu1      1.0000 0.30967  0.13461  0.60575  Biso   1.000  Cu
  Cu2      1.0000 0.86539  0.17506  0.60575  Biso   1.000  Cu
  Cu3      1.0000 0.82494  0.69033  0.60575  Biso   1.000  Cu
  Cu4      1.0000 0.97634  0.46794  0.93908  Biso   1.000  Cu
  Cu5      1.0000 0.53206  0.50839  0.93908  Biso   1.000  Cu
  Cu6      1.0000 0.49161  0.02366  0.93908  Biso   1.000  Cu
  Cu7      1.0000 0.64300  0.80128  0.27242  Biso   1.000  Cu
  Cu8      1.0000 0.19872  0.84173  0.27242  Biso   1.000  Cu
  Cu9      1.0000 0.15827  0.35700  0.27242  Biso   1.000  Cu
  Cu10     1.0000 0.69033  0.86539  0.39425  Biso   1.000  Cu
  Cu11     1.0000 0.13461  0.82494  0.39425  Biso   1.000  Cu
  Cu12     1.0000 0.17506  0.30967  0.39425  Biso   1.000  Cu
  Cu13     1.0000 0.35700  0.19872  0.72758  Biso   1.000  Cu
  Cu14     1.0000 0.80128  0.15827  0.72758  Biso   1.000  Cu
  Cu15     1.0000 0.84173  0.64300  0.72758  Biso   1.000  Cu
  Cu16     1.0000 0.02366  0.53206  0.06092  Biso   1.000  Cu
  Cu17     1.0000 0.46794  0.49161  0.06092  Biso   1.000  Cu
  Cu18     1.0000 0.50839  0.97634  0.06092  Biso   1.000  Cu
  O1       1.0000 0.34170  0.15980  0.45060  Biso   1.000  O
  O2       1.0000 0.84020  0.18190  0.45060  Biso   1.000  O
  O3       1.0000 0.81810  0.65830  0.45060  Biso   1.000  O
  O4       1.0000 0.00837  0.49313  0.78393  Biso   1.000  O
  O5       1.0000 0.50687  0.51523  0.78393  Biso   1.000  O
  O6       1.0000 0.48477  0.99163  0.78393  Biso   1.000  O
  O7       1.0000 0.67503  0.82647  0.11727  Biso   1.000  O
  O8       1.0000 0.17353  0.84857  0.11727  Biso   1.000  O
  O9       1.0000 0.15143  0.32497  0.11727  Biso   1.000  O
  O10      1.0000 0.65830  0.84020  0.54940  Biso   1.000  O
  O11      1.0000 0.15980  0.81810  0.54940  Biso   1.000  O
  O12      1.0000 0.18190  0.34170  0.54940  Biso   1.000  O
  O13      1.0000 0.32497  0.17353  0.88273  Biso   1.000  O
  O14      1.0000 0.82647  0.15143  0.88273  Biso   1.000  O
  O15      1.0000 0.84857  0.67503  0.88273  Biso   1.000  O
  O16      1.0000 0.99163  0.50687  0.21607  Biso   1.000  O
  O17      1.0000 0.49313  0.48477  0.21607  Biso   1.000  O
  O18      1.0000 0.51523  0.00837  0.21607  Biso   1.000  O
  O19      1.0000 0.38060  0.21470  0.54860  Biso   1.000  O
  O20      1.0000 0.78530  0.16590  0.54860  Biso   1.000  O
  O21      1.0000 0.83410  0.61940  0.54860  Biso   1.000  O
  O22      1.0000 0.04727  0.54803  0.88193  Biso   1.000  O
  O23      1.0000 0.45197  0.49923  0.88193  Biso   1.000  O
  O24      1.0000 0.50077  0.95273  0.88193  Biso   1.000  O
  O25      1.0000 0.71393  0.88137  0.21527  Biso   1.000  O
  O26      1.0000 0.11863  0.83257  0.21527  Biso   1.000  O
  O27      1.0000 0.16743  0.28607  0.21527  Biso   1.000  O
  O28      1.0000 0.61940  0.78530  0.45140  Biso   1.000  O
  O29      1.0000 0.21470  0.83410  0.45140  Biso   1.000  O
  O30      1.0000 0.16590  0.38060  0.45140  Biso   1.000  O
  O31      1.0000 0.28607  0.11863  0.78473  Biso   1.000  O
  O32      1.0000 0.88137  0.16743  0.78473  Biso   1.000  O
  O33      1.0000 0.83257  0.71393  0.78473  Biso   1.000  O
  O34      1.0000 0.95273  0.45197  0.11807  Biso   1.000  O
  O35      1.0000 0.54803  0.50077  0.11807  Biso   1.000  O
  O36      1.0000 0.49923  0.04727  0.11807  Biso   1.000  O
  O37      1.0000 0.45150  0.44000  0.00230  Biso   1.000  O
  O38      1.0000 0.56000  0.01150  0.00230  Biso   1.000  O
  O39      1.0000 0.98850  0.54850  0.00230  Biso   1.000  O
  O40      1.0000 0.11817  0.77333  0.33563  Biso   1.000  O
  O41      1.0000 0.22667  0.34483  0.33563  Biso   1.000  O
  O42      1.0000 0.65517  0.88183  0.33563  Biso   1.000  O
  O43      1.0000 0.78483  0.10667  0.66897  Biso   1.000  O
  O44      1.0000 0.89333  0.67817  0.66897  Biso   1.000  O
  O45      1.0000 0.32183  0.21517  0.66897  Biso   1.000  O
  O46      1.0000 0.54850  0.56000  0.99770  Biso   1.000  O
  O47      1.0000 0.44000  0.98850  0.99770  Biso   1.000  O
  O48      1.0000 0.01150  0.45150  0.99770  Biso   1.000  O
  O49      1.0000 0.21517  0.89333  0.33103  Biso   1.000  O
  O50      1.0000 0.10667  0.32183  0.33103  Biso   1.000  O
  O51      1.0000 0.67817  0.78483  0.33103  Biso   1.000  O
  O52      1.0000 0.88183  0.22667  0.66437  Biso   1.000  O
  O53      1.0000 0.77333  0.65517  0.66437  Biso   1.000  O
  O54      1.0000 0.34483  0.11817  0.66437  Biso   1.000  O
  O55      1.0000 0.50610  0.45440  0.90680  Biso   1.000  O
  O56      1.0000 0.54560  0.05170  0.90680  Biso   1.000  O
  O57      1.0000 0.94830  0.49390  0.90680  Biso   1.000  O
  O58      1.0000 0.17277  0.78773  0.24013  Biso   1.000  O
  O59      1.0000 0.21227  0.38503  0.24013  Biso   1.000  O
  O60      1.0000 0.61497  0.82723  0.24013  Biso   1.000  O
  O61      1.0000 0.83943  0.12107  0.57347  Biso   1.000  O
  O62      1.0000 0.87893  0.71837  0.57347  Biso   1.000  O
  O63      1.0000 0.28163  0.16057  0.57347  Biso   1.000  O
  O64      1.0000 0.49390  0.54560  0.09320  Biso   1.000  O
  O65      1.0000 0.45440  0.94830  0.09320  Biso   1.000  O
  O66      1.0000 0.05170  0.50610  0.09320  Biso   1.000  O
  O67      1.0000 0.16057  0.87893  0.42653  Biso   1.000  O
  O68      1.0000 0.12107  0.28163  0.42653  Biso   1.000  O
  O69      1.0000 0.71837  0.83943  0.42653  Biso   1.000  O
  O70      1.0000 0.82723  0.21227  0.75987  Biso   1.000  O
  O71      1.0000 0.78773  0.61497  0.75987  Biso   1.000  O
  O72      1.0000 0.38503  0.17277  0.75987  Biso   1.000  O
  O73      1.0000 0.33040  0.25590  0.97700  Biso   1.000  O
  O74      1.0000 0.74410  0.07450  0.97700  Biso   1.000  O
  O75      1.0000 0.92550  0.66960  0.97700  Biso   1.000  O
  O76      1.0000 0.99707  0.58923  0.31033  Biso   1.000  O
  O77      1.0000 0.41077  0.40783  0.31033  Biso   1.000  O
  O78      1.0000 0.59217  0.00293  0.31033  Biso   1.000  O
  O79      1.0000 0.66373  0.92257  0.64367  Biso   1.000  O
  O80      1.0000 0.07743  0.74117  0.64367  Biso   1.000  O
  O81      1.0000 0.25883  0.33627  0.64367  Biso   1.000  O
  O82      1.0000 0.66960  0.74410  0.02300  Biso   1.000  O
  O83      1.0000 0.25590  0.92550  0.02300  Biso   1.000  O
  O84      1.0000 0.07450  0.33040  0.02300  Biso   1.000  O
  O85      1.0000 0.33627  0.07743  0.35633  Biso   1.000  O
  O86      1.0000 0.92257  0.25883  0.35633  Biso   1.000  O
  O87      1.0000 0.74117  0.66373  0.35633  Biso   1.000  O
  O88      1.0000 0.00293  0.41077  0.68967  Biso   1.000  O
  O89      1.0000 0.58923  0.59217  0.68967  Biso   1.000  O
  O90      1.0000 0.40783  0.99707  0.68967  Biso   1.000  O
  N1       1.0000 0.39510  0.25170  0.83350  Biso   1.000  N
  N2       1.0000 0.74830  0.14340  0.83350  Biso   1.000  N
  N3       1.0000 0.85660  0.60490  0.83350  Biso   1.000  N
  N4       1.0000 0.06177  0.58503  0.16683  Biso   1.000  N
  N5       1.0000 0.41497  0.47673  0.16683  Biso   1.000  N
  N6       1.0000 0.52327  0.93823  0.16683  Biso   1.000  N
  N7       1.0000 0.72843  0.91837  0.50017  Biso   1.000  N
  N8       1.0000 0.08163  0.81007  0.50017  Biso   1.000  N
  N9       1.0000 0.18993  0.27157  0.50017  Biso   1.000  N
  N10      1.0000 0.60490  0.74830  0.16650  Biso   1.000  N
  N11      1.0000 0.25170  0.85660  0.16650  Biso   1.000  N
  N12      1.0000 0.14340  0.39510  0.16650  Biso   1.000  N
  N13      1.0000 0.27157  0.08163  0.49983  Biso   1.000  N
  N14      1.0000 0.91837  0.18993  0.49983  Biso   1.000  N
  N15      1.0000 0.81007  0.72843  0.49983  Biso   1.000  N
  N16      1.0000 0.93823  0.41497  0.83317  Biso   1.000  N
  N17      1.0000 0.58503  0.52327  0.83317  Biso   1.000  N
  N18      1.0000 0.47673  0.06177  0.83317  Biso   1.000  N
  C1       1.0000 0.36800  0.19320  0.44820  Biso   1.000  C
  C2       1.0000 0.80680  0.17480  0.44820  Biso   1.000  C
  C3       1.0000 0.82520  0.63200  0.44820  Biso   1.000  C
  C4       1.0000 0.03467  0.52653  0.78153  Biso   1.000  C
  C5       1.0000 0.47347  0.50813  0.78153  Biso   1.000  C
  C6       1.0000 0.49187  0.96533  0.78153  Biso   1.000  C
  C7       1.0000 0.70133  0.85987  0.11487  Biso   1.000  C
  C8       1.0000 0.14013  0.84147  0.11487  Biso   1.000  C
  C9       1.0000 0.15853  0.29867  0.11487  Biso   1.000  C
  C10      1.0000 0.63200  0.80680  0.55180  Biso   1.000  C
  C11      1.0000 0.19320  0.82520  0.55180  Biso   1.000  C
  C12      1.0000 0.17480  0.36800  0.55180  Biso   1.000  C
  C13      1.0000 0.29867  0.14013  0.88513  Biso   1.000  C
  C14      1.0000 0.85987  0.15853  0.88513  Biso   1.000  C
  C15      1.0000 0.84147  0.70133  0.88513  Biso   1.000  C
  C16      1.0000 0.96533  0.47347  0.21847  Biso   1.000  C
  C17      1.0000 0.52653  0.49187  0.21847  Biso   1.000  C
  C18      1.0000 0.50813  0.03467  0.21847  Biso   1.000  C
  C19      1.0000 0.38490  0.20870  0.31220  Biso   1.000  C
  C20      1.0000 0.79130  0.17620  0.31220  Biso   1.000  C
  C21      1.0000 0.82380  0.61510  0.31220  Biso   1.000  C
  C22      1.0000 0.05157  0.54203  0.64553  Biso   1.000  C
  C23      1.0000 0.45797  0.50953  0.64553  Biso   1.000  C
  C24      1.0000 0.49047  0.94843  0.64553  Biso   1.000  C
  C25      1.0000 0.71823  0.87537  0.97887  Biso   1.000  C
  C26      1.0000 0.12463  0.84287  0.97887  Biso   1.000  C
  C27      1.0000 0.15713  0.28177  0.97887  Biso   1.000  C
  C28      1.0000 0.61510  0.79130  0.68780  Biso   1.000  C
  C29      1.0000 0.20870  0.82380  0.68780  Biso   1.000  C
  C30      1.0000 0.17620  0.38490  0.68780  Biso   1.000  C
  C31      1.0000 0.28177  0.12463  0.02113  Biso   1.000  C
  C32      1.0000 0.87537  0.15713  0.02113  Biso   1.000  C
  C33      1.0000 0.84287  0.71823  0.02113  Biso   1.000  C
  C34      1.0000 0.94843  0.45797  0.35447  Biso   1.000  C
  C35      1.0000 0.54203  0.49047  0.35447  Biso   1.000  C
  C36      1.0000 0.50953  0.05157  0.35447  Biso   1.000  C
  C37      1.0000 0.40520  0.24650  0.28990  Biso   1.000  C
  C38      1.0000 0.75350  0.15870  0.28990  Biso   1.000  C
  C39      1.0000 0.84130  0.59480  0.28990  Biso   1.000  C
  C40      1.0000 0.07187  0.57983  0.62323  Biso   1.000  C
  C41      1.0000 0.42017  0.49203  0.62323  Biso   1.000  C
  C42      1.0000 0.50797  0.92813  0.62323  Biso   1.000  C
  C43      1.0000 0.73853  0.91317  0.95657  Biso   1.000  C
  C44      1.0000 0.08683  0.82537  0.95657  Biso   1.000  C
  C45      1.0000 0.17463  0.26147  0.95657  Biso   1.000  C
  C46      1.0000 0.59480  0.75350  0.71010  Biso   1.000  C
  C47      1.0000 0.24650  0.84130  0.71010  Biso   1.000  C
  C48      1.0000 0.15870  0.40520  0.71010  Biso   1.000  C
  C49      1.0000 0.26147  0.08683  0.04343  Biso   1.000  C
  C50      1.0000 0.91317  0.17463  0.04343  Biso   1.000  C
  C51      1.0000 0.82537  0.73853  0.04343  Biso   1.000  C
  C52      1.0000 0.92813  0.42017  0.37677  Biso   1.000  C
  C53      1.0000 0.57983  0.50797  0.37677  Biso   1.000  C
  C54      1.0000 0.49203  0.07187  0.37677  Biso   1.000  C
  C55      1.0000 0.41910  0.26080  0.16310  Biso   1.000  C
  C56      1.0000 0.73920  0.15830  0.16310  Biso   1.000  C
  C57      1.0000 0.84170  0.58090  0.16310  Biso   1.000  C
  C58      1.0000 0.08577  0.59413  0.49643  Biso   1.000  C
  C59      1.0000 0.40587  0.49163  0.49643  Biso   1.000  C
  C60      1.0000 0.50837  0.91423  0.49643  Biso   1.000  C
  C61      1.0000 0.75243  0.92747  0.82977  Biso   1.000  C
  C62      1.0000 0.07253  0.82497  0.82977  Biso   1.000  C
  C63      1.0000 0.17503  0.24757  0.82977  Biso   1.000  C
  C64      1.0000 0.58090  0.73920  0.83690  Biso   1.000  C
  C65      1.0000 0.26080  0.84170  0.83690  Biso   1.000  C
  C66      1.0000 0.15830  0.41910  0.83690  Biso   1.000  C
  C67      1.0000 0.24757  0.07253  0.17023  Biso   1.000  C
  C68      1.0000 0.92747  0.17503  0.17023  Biso   1.000  C
  C69      1.0000 0.82497  0.75243  0.17023  Biso   1.000  C
  C70      1.0000 0.91423  0.40587  0.50357  Biso   1.000  C
  C71      1.0000 0.59413  0.50837  0.50357  Biso   1.000  C
  C72      1.0000 0.49163  0.08577  0.50357  Biso   1.000  C
  C73      1.0000 0.41260  0.23720  0.05610  Biso   1.000  C
  C74      1.0000 0.76280  0.17540  0.05610  Biso   1.000  C
  C75      1.0000 0.82460  0.58740  0.05610  Biso   1.000  C
  C76      1.0000 0.07927  0.57053  0.38943  Biso   1.000  C
  C77      1.0000 0.42947  0.50873  0.38943  Biso   1.000  C
  C78      1.0000 0.49127  0.92073  0.38943  Biso   1.000  C
  C79      1.0000 0.74593  0.90387  0.72277  Biso   1.000  C
  C80      1.0000 0.09613  0.84207  0.72277  Biso   1.000  C
  C81      1.0000 0.15793  0.25407  0.72277  Biso   1.000  C
  C82      1.0000 0.58740  0.76280  0.94390  Biso   1.000  C
  C83      1.0000 0.23720  0.82460  0.94390  Biso   1.000  C
  C84      1.0000 0.17540  0.41260  0.94390  Biso   1.000  C
  C85      1.0000 0.25407  0.09613  0.27723  Biso   1.000  C
  C86      1.0000 0.90387  0.15793  0.27723  Biso   1.000  C
  C87      1.0000 0.84207  0.74593  0.27723  Biso   1.000  C
  C88      1.0000 0.92073  0.42947  0.61057  Biso   1.000  C
  C89      1.0000 0.57053  0.49127  0.61057  Biso   1.000  C
  C90      1.0000 0.50873  0.07927  0.61057  Biso   1.000  C
  C91      1.0000 0.39360  0.19950  0.08030  Biso   1.000  C
  C92      1.0000 0.80050  0.19410  0.08030  Biso   1.000  C
  C93      1.0000 0.80590  0.60640  0.08030  Biso   1.000  C
  C94      1.0000 0.06027  0.53283  0.41363  Biso   1.000  C
  C95      1.0000 0.46717  0.52743  0.41363  Biso   1.000  C
  C96      1.0000 0.47257  0.93973  0.41363  Biso   1.000  C
  C97      1.0000 0.72693  0.86617  0.74697  Biso   1.000  C
  C98      1.0000 0.13383  0.86077  0.74697  Biso   1.000  C
  C99      1.0000 0.13923  0.27307  0.74697  Biso   1.000  C
  C100     1.0000 0.60640  0.80050  0.91970  Biso   1.000  C
  C101     1.0000 0.19950  0.80590  0.91970  Biso   1.000  C
  C102     1.0000 0.19410  0.39360  0.91970  Biso   1.000  C
  C103     1.0000 0.27307  0.13383  0.25303  Biso   1.000  C
  C104     1.0000 0.86617  0.13923  0.25303  Biso   1.000  C
  C105     1.0000 0.86077  0.72693  0.25303  Biso   1.000  C
  C106     1.0000 0.93973  0.46717  0.58637  Biso   1.000  C
  C107     1.0000 0.53283  0.47257  0.58637  Biso   1.000  C
  C108     1.0000 0.52743  0.06027  0.58637  Biso   1.000  C
  C109     1.0000 0.37940  0.18530  0.20830  Biso   1.000  C
  C110     1.0000 0.81470  0.19410  0.20830  Biso   1.000  C
  C111     1.0000 0.80590  0.62060  0.20830  Biso   1.000  C
  C112     1.0000 0.04607  0.51863  0.54163  Biso   1.000  C
  C113     1.0000 0.48137  0.52743  0.54163  Biso   1.000  C
  C114     1.0000 0.47257  0.95393  0.54163  Biso   1.000  C
  C115     1.0000 0.71273  0.85197  0.87497  Biso   1.000  C
  C116     1.0000 0.14803  0.86077  0.87497  Biso   1.000  C
  C117     1.0000 0.13923  0.28727  0.87497  Biso   1.000  C
  C118     1.0000 0.62060  0.81470  0.79170  Biso   1.000  C
  C119     1.0000 0.18530  0.80590  0.79170  Biso   1.000  C
  C120     1.0000 0.19410  0.37940  0.79170  Biso   1.000  C
  C121     1.0000 0.28727  0.14803  0.12503  Biso   1.000  C
  C122     1.0000 0.85197  0.13923  0.12503  Biso   1.000  C
  C123     1.0000 0.86077  0.71273  0.12503  Biso   1.000  C
  C124     1.0000 0.95393  0.48137  0.45837  Biso   1.000  C
  C125     1.0000 0.51863  0.47257  0.45837  Biso   1.000  C
  C126     1.0000 0.52743  0.04607  0.45837  Biso   1.000  C
  C127     1.0000 0.42640  0.25340  0.91580  Biso   1.000  C
  C128     1.0000 0.74660  0.17300  0.91580  Biso   1.000  C
  C129     1.0000 0.82700  0.57360  0.91580  Biso   1.000  C
  C130     1.0000 0.09307  0.58673  0.24913  Biso   1.000  C
  C131     1.0000 0.41327  0.50633  0.24913  Biso   1.000  C
  C132     1.0000 0.49367  0.90693  0.24913  Biso   1.000  C
  C133     1.0000 0.75973  0.92007  0.58247  Biso   1.000  C
  C134     1.0000 0.07993  0.83967  0.58247  Biso   1.000  C
  C135     1.0000 0.16033  0.24027  0.58247  Biso   1.000  C
  C136     1.0000 0.57360  0.74660  0.08420  Biso   1.000  C
  C137     1.0000 0.25340  0.82700  0.08420  Biso   1.000  C
  C138     1.0000 0.17300  0.42640  0.08420  Biso   1.000  C
  C139     1.0000 0.24027  0.07993  0.41753  Biso   1.000  C
  C140     1.0000 0.92007  0.16033  0.41753  Biso   1.000  C
  C141     1.0000 0.83967  0.75973  0.41753  Biso   1.000  C
  C142     1.0000 0.90693  0.41327  0.75087  Biso   1.000  C
  C143     1.0000 0.58673  0.49367  0.75087  Biso   1.000  C
  C144     1.0000 0.50633  0.09307  0.75087  Biso   1.000  C
  C145     1.0000 0.40960  0.28130  0.72850  Biso   1.000  C
  C146     1.0000 0.71870  0.12830  0.72850  Biso   1.000  C
  C147     1.0000 0.87170  0.59040  0.72850  Biso   1.000  C
  C148     1.0000 0.07627  0.61463  0.06183  Biso   1.000  C
  C149     1.0000 0.38537  0.46163  0.06183  Biso   1.000  C
  C150     1.0000 0.53837  0.92373  0.06183  Biso   1.000  C
  C151     1.0000 0.74293  0.94797  0.39517  Biso   1.000  C
  C152     1.0000 0.05203  0.79497  0.39517  Biso   1.000  C
  C153     1.0000 0.20503  0.25707  0.39517  Biso   1.000  C
  C154     1.0000 0.59040  0.71870  0.27150  Biso   1.000  C
  C155     1.0000 0.28130  0.87170  0.27150  Biso   1.000  C
  C156     1.0000 0.12830  0.40960  0.27150  Biso   1.000  C
  C157     1.0000 0.25707  0.05203  0.60483  Biso   1.000  C
  C158     1.0000 0.94797  0.20503  0.60483  Biso   1.000  C
  C159     1.0000 0.79497  0.74293  0.60483  Biso   1.000  C
  C160     1.0000 0.92373  0.38537  0.93817  Biso   1.000  C
  C161     1.0000 0.61463  0.53837  0.93817  Biso   1.000  C
  C162     1.0000 0.46163  0.07627  0.93817  Biso   1.000  C
  C163     1.0000 0.42690  0.32080  0.78720  Biso   1.000  C
  C164     1.0000 0.67920  0.10610  0.78720  Biso   1.000  C
  C165     1.0000 0.89390  0.57310  0.78720  Biso   1.000  C
  C166     1.0000 0.09357  0.65413  0.12053  Biso   1.000  C
  C167     1.0000 0.34587  0.43943  0.12053  Biso   1.000  C
  C168     1.0000 0.56057  0.90643  0.12053  Biso   1.000  C
  C169     1.0000 0.76023  0.98747  0.45387  Biso   1.000  C
  C170     1.0000 0.01253  0.77277  0.45387  Biso   1.000  C
  C171     1.0000 0.22723  0.23977  0.45387  Biso   1.000  C
  C172     1.0000 0.57310  0.67920  0.21280  Biso   1.000  C
  C173     1.0000 0.32080  0.89390  0.21280  Biso   1.000  C
  C174     1.0000 0.10610  0.42690  0.21280  Biso   1.000  C
  C175     1.0000 0.23977  0.01253  0.54613  Biso   1.000  C
  C176     1.0000 0.98747  0.22723  0.54613  Biso   1.000  C
  C177     1.0000 0.77277  0.76023  0.54613  Biso   1.000  C
  C178     1.0000 0.90643  0.34587  0.87947  Biso   1.000  C
  C179     1.0000 0.65413  0.56057  0.87947  Biso   1.000  C
  C180     1.0000 0.43943  0.09357  0.87947  Biso   1.000  C
  C181     1.0000 0.40460  0.33050  0.85860  Biso   1.000  C
  C182     1.0000 0.66950  0.07410  0.85860  Biso   1.000  C
  C183     1.0000 0.92590  0.59540  0.85860  Biso   1.000  C
  C184     1.0000 0.07127  0.66383  0.19193  Biso   1.000  C
  C185     1.0000 0.33617  0.40743  0.19193  Biso   1.000  C
  C186     1.0000 0.59257  0.92873  0.19193  Biso   1.000  C
  C187     1.0000 0.73793  0.99717  0.52527  Biso   1.000  C
  C188     1.0000 0.00283  0.74077  0.52527  Biso   1.000  C
  C189     1.0000 0.25923  0.26207  0.52527  Biso   1.000  C
  C190     1.0000 0.59540  0.66950  0.14140  Biso   1.000  C
  C191     1.0000 0.33050  0.92590  0.14140  Biso   1.000  C
  C192     1.0000 0.07410  0.40460  0.14140  Biso   1.000  C
  C193     1.0000 0.26207  0.00283  0.47473  Biso   1.000  C
  C194     1.0000 0.99717  0.25923  0.47473  Biso   1.000  C
  C195     1.0000 0.74077  0.73793  0.47473  Biso   1.000  C
  C196     1.0000 0.92873  0.33617  0.80807  Biso   1.000  C
  C197     1.0000 0.66383  0.59257  0.80807  Biso   1.000  C
  C198     1.0000 0.40743  0.07127  0.80807  Biso   1.000  C
  C199     1.0000 0.41960  0.36750  0.91340  Biso   1.000  C
  C200     1.0000 0.63250  0.05210  0.91340  Biso   1.000  C
  C201     1.0000 0.94790  0.58040  0.91340  Biso   1.000  C
  C202     1.0000 0.08627  0.70083  0.24673  Biso   1.000  C
  C203     1.0000 0.29917  0.38543  0.24673  Biso   1.000  C
  C204     1.0000 0.61457  0.91373  0.24673  Biso   1.000  C
  C205     1.0000 0.75293  0.03417  0.58007  Biso   1.000  C
  C206     1.0000 0.96583  0.71877  0.58007  Biso   1.000  C
  C207     1.0000 0.28123  0.24707  0.58007  Biso   1.000  C
  C208     1.0000 0.58040  0.63250  0.08660  Biso   1.000  C
  C209     1.0000 0.36750  0.94790  0.08660  Biso   1.000  C
  C210     1.0000 0.05210  0.41960  0.08660  Biso   1.000  C
  C211     1.0000 0.24707  0.96583  0.41993  Biso   1.000  C
  C212     1.0000 0.03417  0.28123  0.41993  Biso   1.000  C
  C213     1.0000 0.71877  0.75293  0.41993  Biso   1.000  C
  C214     1.0000 0.91373  0.29917  0.75327  Biso   1.000  C
  C215     1.0000 0.70083  0.61457  0.75327  Biso   1.000  C
  C216     1.0000 0.38543  0.08627  0.75327  Biso   1.000  C
  C217     1.0000 0.45690  0.39230  0.89150  Biso   1.000  C
  C218     1.0000 0.60770  0.06460  0.89150  Biso   1.000  C
  C219     1.0000 0.93540  0.54310  0.89150  Biso   1.000  C
  C220     1.0000 0.12357  0.72563  0.22483  Biso   1.000  C
  C221     1.0000 0.27437  0.39793  0.22483  Biso   1.000  C
  C222     1.0000 0.60207  0.87643  0.22483  Biso   1.000  C
  C223     1.0000 0.79023  0.05897  0.55817  Biso   1.000  C
  C224     1.0000 0.94103  0.73127  0.55817  Biso   1.000  C
  C225     1.0000 0.26873  0.20977  0.55817  Biso   1.000  C
  C226     1.0000 0.54310  0.60770  0.10850  Biso   1.000  C
  C227     1.0000 0.39230  0.93540  0.10850  Biso   1.000  C
  C228     1.0000 0.06460  0.45690  0.10850  Biso   1.000  C
  C229     1.0000 0.20977  0.94103  0.44183  Biso   1.000  C
  C230     1.0000 0.05897  0.26873  0.44183  Biso   1.000  C
  C231     1.0000 0.73127  0.79023  0.44183  Biso   1.000  C
  C232     1.0000 0.87643  0.27437  0.77517  Biso   1.000  C
  C233     1.0000 0.72563  0.60207  0.77517  Biso   1.000  C
  C234     1.0000 0.39793  0.12357  0.77517  Biso   1.000  C
  C235     1.0000 0.47860  0.38110  0.82210  Biso   1.000  C
  C236     1.0000 0.61890  0.09750  0.82210  Biso   1.000  C
  C237     1.0000 0.90250  0.52140  0.82210  Biso   1.000  C
  C238     1.0000 0.14527  0.71443  0.15543  Biso   1.000  C
  C239     1.0000 0.28557  0.43083  0.15543  Biso   1.000  C
  C240     1.0000 0.56917  0.85473  0.15543  Biso   1.000  C
  C241     1.0000 0.81193  0.04777  0.48877  Biso   1.000  C
  C242     1.0000 0.95223  0.76417  0.48877  Biso   1.000  C
  C243     1.0000 0.23583  0.18807  0.48877  Biso   1.000  C
  C244     1.0000 0.52140  0.61890  0.17790  Biso   1.000  C
  C245     1.0000 0.38110  0.90250  0.17790  Biso   1.000  C
  C246     1.0000 0.09750  0.47860  0.17790  Biso   1.000  C
  C247     1.0000 0.18807  0.95223  0.51123  Biso   1.000  C
  C248     1.0000 0.04777  0.23583  0.51123  Biso   1.000  C
  C249     1.0000 0.76417  0.81193  0.51123  Biso   1.000  C
  C250     1.0000 0.85473  0.28557  0.84457  Biso   1.000  C
  C251     1.0000 0.71443  0.56917  0.84457  Biso   1.000  C
  C252     1.0000 0.43083  0.14527  0.84457  Biso   1.000  C
  C253     1.0000 0.46390  0.34520  0.76980  Biso   1.000  C
  C254     1.0000 0.65480  0.11870  0.76980  Biso   1.000  C
  C255     1.0000 0.88130  0.53610  0.76980  Biso   1.000  C
  C256     1.0000 0.13057  0.67853  0.10313  Biso   1.000  C
  C257     1.0000 0.32147  0.45203  0.10313  Biso   1.000  C
  C258     1.0000 0.54797  0.86943  0.10313  Biso   1.000  C
  C259     1.0000 0.79723  0.01187  0.43647  Biso   1.000  C
  C260     1.0000 0.98813  0.78537  0.43647  Biso   1.000  C
  C261     1.0000 0.21463  0.20277  0.43647  Biso   1.000  C
  C262     1.0000 0.53610  0.65480  0.23020  Biso   1.000  C
  C263     1.0000 0.34520  0.88130  0.23020  Biso   1.000  C
  C264     1.0000 0.11870  0.46390  0.23020  Biso   1.000  C
  C265     1.0000 0.20277  0.98813  0.56353  Biso   1.000  C
  C266     1.0000 0.01187  0.21463  0.56353  Biso   1.000  C
  C267     1.0000 0.78537  0.79723  0.56353  Biso   1.000  C
  C268     1.0000 0.86943  0.32147  0.89687  Biso   1.000  C
  C269     1.0000 0.67853  0.54797  0.89687  Biso   1.000  C
  C270     1.0000 0.45203  0.13057  0.89687  Biso   1.000  C
  C271     1.0000 0.47330  0.43210  0.93870  Biso   1.000  C
  C272     1.0000 0.56790  0.04120  0.93870  Biso   1.000  C
  C273     1.0000 0.95880  0.52670  0.93870  Biso   1.000  C
  C274     1.0000 0.13997  0.76543  0.27203  Biso   1.000  C
  C275     1.0000 0.23457  0.37453  0.27203  Biso   1.000  C
  C276     1.0000 0.62547  0.86003  0.27203  Biso   1.000  C
  C277     1.0000 0.80663  0.09877  0.60537  Biso   1.000  C
  C278     1.0000 0.90123  0.70787  0.60537  Biso   1.000  C
  C279     1.0000 0.29213  0.19337  0.60537  Biso   1.000  C
  C280     1.0000 0.52670  0.56790  0.06130  Biso   1.000  C
  C281     1.0000 0.43210  0.95880  0.06130  Biso   1.000  C
  C282     1.0000 0.04120  0.47330  0.06130  Biso   1.000  C
  C283     1.0000 0.19337  0.90123  0.39463  Biso   1.000  C
  C284     1.0000 0.09877  0.29213  0.39463  Biso   1.000  C
  C285     1.0000 0.70787  0.80663  0.39463  Biso   1.000  C
  C286     1.0000 0.86003  0.23457  0.72797  Biso   1.000  C
  C287     1.0000 0.76543  0.62547  0.72797  Biso   1.000  C
  C288     1.0000 0.37453  0.13997  0.72797  Biso   1.000  C
  H1       1.0000 0.41080  0.26300  0.36490  Biso   1.000  H
  H2       1.0000 0.73700  0.14780  0.36490  Biso   1.000  H
  H3       1.0000 0.85220  0.58920  0.36490  Biso   1.000  H
  H4       1.0000 0.07747  0.59633  0.69823  Biso   1.000  H
  H5       1.0000 0.40367  0.48113  0.69823  Biso   1.000  H
  H6       1.0000 0.51887  0.92253  0.69823  Biso   1.000  H
  H7       1.0000 0.74413  0.92967  0.03157  Biso   1.000  H
  H8       1.0000 0.07033  0.81447  0.03157  Biso   1.000  H
  H9       1.0000 0.18553  0.25587  0.03157  Biso   1.000  H
  H10      1.0000 0.58920  0.73700  0.63510  Biso   1.000  H
  H11      1.0000 0.26300  0.85220  0.63510  Biso   1.000  H
  H12      1.0000 0.14780  0.41080  0.63510  Biso   1.000  H
  H13      1.0000 0.25587  0.07033  0.96843  Biso   1.000  H
  H14      1.0000 0.92967  0.18553  0.96843  Biso   1.000  H
  H15      1.0000 0.81447  0.74413  0.96843  Biso   1.000  H
  H16      1.0000 0.92253  0.40367  0.30177  Biso   1.000  H
  H17      1.0000 0.59633  0.51887  0.30177  Biso   1.000  H
  H18      1.0000 0.48113  0.07747  0.30177  Biso   1.000  H
  H19      1.0000 0.43160  0.28710  0.14940  Biso   1.000  H
  H20      1.0000 0.71290  0.14450  0.14940  Biso   1.000  H
  H21      1.0000 0.85550  0.56840  0.14940  Biso   1.000  H
  H22      1.0000 0.09827  0.62043  0.48273  Biso   1.000  H
  H23      1.0000 0.37957  0.47783  0.48273  Biso   1.000  H
  H24      1.0000 0.52217  0.90173  0.48273  Biso   1.000  H
  H25      1.0000 0.76493  0.95377  0.81607  Biso   1.000  H
  H26      1.0000 0.04623  0.81117  0.81607  Biso   1.000  H
  H27      1.0000 0.18883  0.23507  0.81607  Biso   1.000  H
  H28      1.0000 0.56840  0.71290  0.85060  Biso   1.000  H
  H29      1.0000 0.28710  0.85550  0.85060  Biso   1.000  H
  H30      1.0000 0.14450  0.43160  0.85060  Biso   1.000  H
  H31      1.0000 0.23507  0.04623  0.18393  Biso   1.000  H
  H32      1.0000 0.95377  0.18883  0.18393  Biso   1.000  H
  H33      1.0000 0.81117  0.76493  0.18393  Biso   1.000  H
  H34      1.0000 0.90173  0.37957  0.51727  Biso   1.000  H
  H35      1.0000 0.62043  0.52217  0.51727  Biso   1.000  H
  H36      1.0000 0.47783  0.09827  0.51727  Biso   1.000  H
  H37      1.0000 0.38990  0.18240  0.00940  Biso   1.000  H
  H38      1.0000 0.81760  0.20750  0.00940  Biso   1.000  H
  H39      1.0000 0.79250  0.61010  0.00940  Biso   1.000  H
  H40      1.0000 0.05657  0.51573  0.34273  Biso   1.000  H
  H41      1.0000 0.48427  0.54083  0.34273  Biso   1.000  H
  H42      1.0000 0.45917  0.94343  0.34273  Biso   1.000  H
  H43      1.0000 0.72323  0.84907  0.67607  Biso   1.000  H
  H44      1.0000 0.15093  0.87417  0.67607  Biso   1.000  H
  H45      1.0000 0.12583  0.27677  0.67607  Biso   1.000  H
  H46      1.0000 0.61010  0.81760  0.99060  Biso   1.000  H
  H47      1.0000 0.18240  0.79250  0.99060  Biso   1.000  H
  H48      1.0000 0.20750  0.38990  0.99060  Biso   1.000  H
  H49      1.0000 0.27677  0.15093  0.32393  Biso   1.000  H
  H50      1.0000 0.84907  0.12583  0.32393  Biso   1.000  H
  H51      1.0000 0.87417  0.72323  0.32393  Biso   1.000  H
  H52      1.0000 0.94343  0.48427  0.65727  Biso   1.000  H
  H53      1.0000 0.51573  0.45917  0.65727  Biso   1.000  H
  H54      1.0000 0.54083  0.05657  0.65727  Biso   1.000  H
  H55      1.0000 0.36510  0.15900  0.22230  Biso   1.000  H
  H56      1.0000 0.84100  0.20610  0.22230  Biso   1.000  H
  H57      1.0000 0.79390  0.63490  0.22230  Biso   1.000  H
  H58      1.0000 0.03177  0.49233  0.55563  Biso   1.000  H
  H59      1.0000 0.50767  0.53943  0.55563  Biso   1.000  H
  H60      1.0000 0.46057  0.96823  0.55563  Biso   1.000  H
  H61      1.0000 0.69843  0.82567  0.88897  Biso   1.000  H
  H62      1.0000 0.17433  0.87277  0.88897  Biso   1.000  H
  H63      1.0000 0.12723  0.30157  0.88897  Biso   1.000  H
  H64      1.0000 0.63490  0.84100  0.77770  Biso   1.000  H
  H65      1.0000 0.15900  0.79390  0.77770  Biso   1.000  H
  H66      1.0000 0.20610  0.36510  0.77770  Biso   1.000  H
  H67      1.0000 0.30157  0.17433  0.11103  Biso   1.000  H
  H68      1.0000 0.82567  0.12723  0.11103  Biso   1.000  H
  H69      1.0000 0.87277  0.69843  0.11103  Biso   1.000  H
  H70      1.0000 0.96823  0.50767  0.44437  Biso   1.000  H
  H71      1.0000 0.49233  0.46057  0.44437  Biso   1.000  H
  H72      1.0000 0.53943  0.03177  0.44437  Biso   1.000  H
  H73      1.0000 0.44560  0.27880  0.92420  Biso   1.000  H
  H74      1.0000 0.72120  0.16680  0.92420  Biso   1.000  H
  H75      1.0000 0.83320  0.55440  0.92420  Biso   1.000  H
  H76      1.0000 0.11227  0.61213  0.25753  Biso   1.000  H
  H77      1.0000 0.38787  0.50013  0.25753  Biso   1.000  H
  H78      1.0000 0.49987  0.88773  0.25753  Biso   1.000  H
  H79      1.0000 0.77893  0.94547  0.59087  Biso   1.000  H
  H80      1.0000 0.05453  0.83347  0.59087  Biso   1.000  H
  H81      1.0000 0.16653  0.22107  0.59087  Biso   1.000  H
  H82      1.0000 0.55440  0.72120  0.07580  Biso   1.000  H
  H83      1.0000 0.27880  0.83320  0.07580  Biso   1.000  H
  H84      1.0000 0.16680  0.44560  0.07580  Biso   1.000  H
  H85      1.0000 0.22107  0.05453  0.40913  Biso   1.000  H
  H86      1.0000 0.94547  0.16653  0.40913  Biso   1.000  H
  H87      1.0000 0.83347  0.77893  0.40913  Biso   1.000  H
  H88      1.0000 0.88773  0.38787  0.74247  Biso   1.000  H
  H89      1.0000 0.61213  0.49987  0.74247  Biso   1.000  H
  H90      1.0000 0.50013  0.11227  0.74247  Biso   1.000  H
  H91      1.0000 0.43590  0.23960  0.87080  Biso   1.000  H
  H92      1.0000 0.76040  0.19630  0.87080  Biso   1.000  H
  H93      1.0000 0.80370  0.56410  0.87080  Biso   1.000  H
  H94      1.0000 0.10257  0.57293  0.20413  Biso   1.000  H
  H95      1.0000 0.42707  0.52963  0.20413  Biso   1.000  H
  H96      1.0000 0.47037  0.89743  0.20413  Biso   1.000  H
  H97      1.0000 0.76923  0.90627  0.53747  Biso   1.000  H
  H98      1.0000 0.09373  0.86297  0.53747  Biso   1.000  H
  H99      1.0000 0.13703  0.23077  0.53747  Biso   1.000  H
  H100     1.0000 0.56410  0.76040  0.12920  Biso   1.000  H
  H101     1.0000 0.23960  0.80370  0.12920  Biso   1.000  H
  H102     1.0000 0.19630  0.43590  0.12920  Biso   1.000  H
  H103     1.0000 0.23077  0.09373  0.46253  Biso   1.000  H
  H104     1.0000 0.90627  0.13703  0.46253  Biso   1.000  H
  H105     1.0000 0.86297  0.76923  0.46253  Biso   1.000  H
  H106     1.0000 0.89743  0.42707  0.79587  Biso   1.000  H
  H107     1.0000 0.57293  0.47037  0.79587  Biso   1.000  H
  H108     1.0000 0.52963  0.10257  0.79587  Biso   1.000  H
  H109     1.0000 0.37400  0.25500  0.89200  Biso   1.000  H
  H110     1.0000 0.74500  0.11900  0.89200  Biso   1.000  H
  H111     1.0000 0.88100  0.62600  0.89200  Biso   1.000  H
  H112     1.0000 0.04067  0.58833  0.22533  Biso   1.000  H
  H113     1.0000 0.41167  0.45233  0.22533  Biso   1.000  H
  H114     1.0000 0.54767  0.95933  0.22533  Biso   1.000  H
  H115     1.0000 0.70733  0.92167  0.55867  Biso   1.000  H
  H116     1.0000 0.07833  0.78567  0.55867  Biso   1.000  H
  H117     1.0000 0.21433  0.29267  0.55867  Biso   1.000  H
  H118     1.0000 0.62600  0.74500  0.10800  Biso   1.000  H
  H119     1.0000 0.25500  0.88100  0.10800  Biso   1.000  H
  H120     1.0000 0.11900  0.37400  0.10800  Biso   1.000  H
  H121     1.0000 0.29267  0.07833  0.44133  Biso   1.000  H
  H122     1.0000 0.92167  0.21433  0.44133  Biso   1.000  H
  H123     1.0000 0.78567  0.70733  0.44133  Biso   1.000  H
  H124     1.0000 0.95933  0.41167  0.77467  Biso   1.000  H
  H125     1.0000 0.58833  0.54767  0.77467  Biso   1.000  H
  H126     1.0000 0.45233  0.04067  0.77467  Biso   1.000  H
  H127     1.0000 0.42910  0.28010  0.68220  Biso   1.000  H
  H128     1.0000 0.71990  0.14900  0.68220  Biso   1.000  H
  H129     1.0000 0.85100  0.57090  0.68220  Biso   1.000  H
  H130     1.0000 0.09577  0.61343  0.01553  Biso   1.000  H
  H131     1.0000 0.38657  0.48233  0.01553  Biso   1.000  H
  H132     1.0000 0.51767  0.90423  0.01553  Biso   1.000  H
  H133     1.0000 0.76243  0.94677  0.34887  Biso   1.000  H
  H134     1.0000 0.05323  0.81567  0.34887  Biso   1.000  H
  H135     1.0000 0.18433  0.23757  0.34887  Biso   1.000  H
  H136     1.0000 0.57090  0.71990  0.31780  Biso   1.000  H
  H137     1.0000 0.28010  0.85100  0.31780  Biso   1.000  H
  H138     1.0000 0.14900  0.42910  0.31780  Biso   1.000  H
  H139     1.0000 0.23757  0.05323  0.65113  Biso   1.000  H
  H140     1.0000 0.94677  0.18433  0.65113  Biso   1.000  H
  H141     1.0000 0.81567  0.76243  0.65113  Biso   1.000  H
  H142     1.0000 0.90423  0.38657  0.98447  Biso   1.000  H
  H143     1.0000 0.61343  0.51767  0.98447  Biso   1.000  H
  H144     1.0000 0.48233  0.09577  0.98447  Biso   1.000  H
  H145     1.0000 0.39010  0.27650  0.66650  Biso   1.000  H
  H146     1.0000 0.72350  0.11360  0.66650  Biso   1.000  H
  H147     1.0000 0.88640  0.60990  0.66650  Biso   1.000  H
  H148     1.0000 0.05677  0.60983  0.99983  Biso   1.000  H
  H149     1.0000 0.39017  0.44693  0.99983  Biso   1.000  H
  H150     1.0000 0.55307  0.94323  0.99983  Biso   1.000  H
  H151     1.0000 0.72343  0.94317  0.33317  Biso   1.000  H
  H152     1.0000 0.05683  0.78027  0.33317  Biso   1.000  H
  H153     1.0000 0.21973  0.27657  0.33317  Biso   1.000  H
  H154     1.0000 0.60990  0.72350  0.33350  Biso   1.000  H
  H155     1.0000 0.27650  0.88640  0.33350  Biso   1.000  H
  H156     1.0000 0.11360  0.39010  0.33350  Biso   1.000  H
  H157     1.0000 0.27657  0.05683  0.66683  Biso   1.000  H
  H158     1.0000 0.94317  0.21973  0.66683  Biso   1.000  H
  H159     1.0000 0.78027  0.72343  0.66683  Biso   1.000  H
  H160     1.0000 0.94323  0.39017  0.00017  Biso   1.000  H
  H161     1.0000 0.60983  0.55307  0.00017  Biso   1.000  H
  H162     1.0000 0.44693  0.05677  0.00017  Biso   1.000  H
  H163     1.0000 0.37940  0.31250  0.87830  Biso   1.000  H
  H164     1.0000 0.68750  0.06690  0.87830  Biso   1.000  H
  H165     1.0000 0.93310  0.62060  0.87830  Biso   1.000  H
  H166     1.0000 0.04607  0.64583  0.21163  Biso   1.000  H
  H167     1.0000 0.35417  0.40023  0.21163  Biso   1.000  H
  H168     1.0000 0.59977  0.95393  0.21163  Biso   1.000  H
  H169     1.0000 0.71273  0.97917  0.54497  Biso   1.000  H
  H170     1.0000 0.02083  0.73357  0.54497  Biso   1.000  H
  H171     1.0000 0.26643  0.28727  0.54497  Biso   1.000  H
  H172     1.0000 0.62060  0.68750  0.12170  Biso   1.000  H
  H173     1.0000 0.31250  0.93310  0.12170  Biso   1.000  H
  H174     1.0000 0.06690  0.37940  0.12170  Biso   1.000  H
  H175     1.0000 0.28727  0.02083  0.45503  Biso   1.000  H
  H176     1.0000 0.97917  0.26643  0.45503  Biso   1.000  H
  H177     1.0000 0.73357  0.71273  0.45503  Biso   1.000  H
  H178     1.0000 0.95393  0.35417  0.78837  Biso   1.000  H
  H179     1.0000 0.64583  0.59977  0.78837  Biso   1.000  H
  H180     1.0000 0.40023  0.04607  0.78837  Biso   1.000  H
  H181     1.0000 0.40390  0.37450  0.96000  Biso   1.000  H
  H182     1.0000 0.62550  0.02940  0.96000  Biso   1.000  H
  H183     1.0000 0.97060  0.59610  0.96000  Biso   1.000  H
  H184     1.0000 0.07057  0.70783  0.29333  Biso   1.000  H
  H185     1.0000 0.29217  0.36273  0.29333  Biso   1.000  H
  H186     1.0000 0.63727  0.92943  0.29333  Biso   1.000  H
  H187     1.0000 0.73723  0.04117  0.62667  Biso   1.000  H
  H188     1.0000 0.95883  0.69607  0.62667  Biso   1.000  H
  H189     1.0000 0.30393  0.26277  0.62667  Biso   1.000  H
  H190     1.0000 0.59610  0.62550  0.04000  Biso   1.000  H
  H191     1.0000 0.37450  0.97060  0.04000  Biso   1.000  H
  H192     1.0000 0.02940  0.40390  0.04000  Biso   1.000  H
  H193     1.0000 0.26277  0.95883  0.37333  Biso   1.000  H
  H194     1.0000 0.04117  0.30393  0.37333  Biso   1.000  H
  H195     1.0000 0.69607  0.73723  0.37333  Biso   1.000  H
  H196     1.0000 0.92943  0.29217  0.70667  Biso   1.000  H
  H197     1.0000 0.70783  0.63727  0.70667  Biso   1.000  H
  H198     1.0000 0.36273  0.07057  0.70667  Biso   1.000  H
  H199     1.0000 0.50410  0.39880  0.80350  Biso   1.000  H
  H200     1.0000 0.60120  0.10530  0.80350  Biso   1.000  H
  H201     1.0000 0.89470  0.49590  0.80350  Biso   1.000  H
  H202     1.0000 0.17077  0.73213  0.13683  Biso   1.000  H
  H203     1.0000 0.26787  0.43863  0.13683  Biso   1.000  H
  H204     1.0000 0.56137  0.82923  0.13683  Biso   1.000  H
  H205     1.0000 0.83743  0.06547  0.47017  Biso   1.000  H
  H206     1.0000 0.93453  0.77197  0.47017  Biso   1.000  H
  H207     1.0000 0.22803  0.16257  0.47017  Biso   1.000  H
  H208     1.0000 0.49590  0.60120  0.19650  Biso   1.000  H
  H209     1.0000 0.39880  0.89470  0.19650  Biso   1.000  H
  H210     1.0000 0.10530  0.50410  0.19650  Biso   1.000  H
  H211     1.0000 0.16257  0.93453  0.52983  Biso   1.000  H
  H212     1.0000 0.06547  0.22803  0.52983  Biso   1.000  H
  H213     1.0000 0.77197  0.83743  0.52983  Biso   1.000  H
  H214     1.0000 0.82923  0.26787  0.86317  Biso   1.000  H
  H215     1.0000 0.73213  0.56137  0.86317  Biso   1.000  H
  H216     1.0000 0.43863  0.17077  0.86317  Biso   1.000  H
  H217     1.0000 0.47970  0.33780  0.72630  Biso   1.000  H
  H218     1.0000 0.66220  0.14190  0.72630  Biso   1.000  H
  H219     1.0000 0.85810  0.52030  0.72630  Biso   1.000  H
  H220     1.0000 0.14637  0.67113  0.05963  Biso   1.000  H
  H221     1.0000 0.32887  0.47523  0.05963  Biso   1.000  H
  H222     1.0000 0.52477  0.85363  0.05963  Biso   1.000  H
  H223     1.0000 0.81303  0.00447  0.39297  Biso   1.000  H
  H224     1.0000 0.99553  0.80857  0.39297  Biso   1.000  H
  H225     1.0000 0.19143  0.18697  0.39297  Biso   1.000  H
  H226     1.0000 0.52030  0.66220  0.27370  Biso   1.000  H
  H227     1.0000 0.33780  0.85810  0.27370  Biso   1.000  H
  H228     1.0000 0.14190  0.47970  0.27370  Biso   1.000  H
  H229     1.0000 0.18697  0.99553  0.60703  Biso   1.000  H
  H230     1.0000 0.00447  0.19143  0.60703  Biso   1.000  H
  H231     1.0000 0.80857  0.81303  0.60703  Biso   1.000  H
  H232     1.0000 0.85363  0.32887  0.94037  Biso   1.000  H
  H233     1.0000 0.67113  0.52477  0.94037  Biso   1.000  H
  H234     1.0000 0.47523  0.14637  0.94037  Biso   1.000  H
