data_image0
_cell_length_a       22.7172
_cell_length_b       14.5191
_cell_length_c       21.7987
_cell_angle_alpha    90
_cell_angle_beta     108.788
_cell_angle_gamma    90

_symmetry_space_group_name_H-M    "P 1"
_symmetry_int_tables_number       1

loop_
  _symmetry_equiv_pos_as_xyz
  'x, y, z'

loop_
  _atom_site_label
  _atom_site_occupancy
  _atom_site_fract_x
  _atom_site_fract_y
  _atom_site_fract_z
  _atom_site_thermal_displace_type
  _atom_site_B_iso_or_equiv
  _atom_site_type_symbol
  Cu1      1.0000 0.29853  0.16649  0.94231  Biso   1.000  Cu
  Cu2      1.0000 0.70147  0.16649  0.55769  Biso   1.000  Cu
  Cu3      1.0000 0.79853  0.66649  0.94231  Biso   1.000  Cu
  Cu4      1.0000 0.20147  0.66649  0.55769  Biso   1.000  Cu
  Cu5      1.0000 0.70147  0.83351  0.05769  Biso   1.000  Cu
  Cu6      1.0000 0.29853  0.83351  0.44231  Biso   1.000  Cu
  Cu7      1.0000 0.20147  0.33351  0.05769  Biso   1.000  Cu
  Cu8      1.0000 0.79853  0.33351  0.44231  Biso   1.000  Cu
  Cu9      1.0000 0.50585  0.09768  0.09046  Biso   1.000  Cu
  Cu10     1.0000 0.49415  0.09768  0.40954  Biso   1.000  Cu
  Cu11     1.0000 0.00585  0.59768  0.09046  Biso   1.000  Cu
  Cu12     1.0000 0.99415  0.59768  0.40954  Biso   1.000  Cu
  Cu13     1.0000 0.49415  0.90232  0.90954  Biso   1.000  Cu
  Cu14     1.0000 0.50585  0.90232  0.59046  Biso   1.000  Cu
  Cu15     1.0000 0.99415  0.40232  0.90954  Biso   1.000  Cu
  Cu16     1.0000 0.00585  0.40232  0.59046  Biso   1.000  Cu
  Cu17     1.0000 0.21533  0.34995  0.74112  Biso   1.000  Cu
  Cu18     1.0000 0.78467  0.34995  0.75888  Biso   1.000  Cu
  Cu19     1.0000 0.71533  0.84995  0.74112  Biso   1.000  Cu
  Cu20     1.0000 0.28467  0.84995  0.75888  Biso   1.000  Cu
  Cu21     1.0000 0.78467  0.65005  0.25888  Biso   1.000  Cu
  Cu22     1.0000 0.21533  0.65005  0.24112  Biso   1.000  Cu
  Cu23     1.0000 0.28467  0.15005  0.25888  Biso   1.000  Cu
  Cu24     1.0000 0.71533  0.15005  0.24112  Biso   1.000  Cu
  N1       1.0000 0.27153  0.24170  0.86515  Biso   1.000  N
  N2       1.0000 0.72847  0.24170  0.63485  Biso   1.000  N
  N3       1.0000 0.77153  0.74170  0.86515  Biso   1.000  N
  N4       1.0000 0.22847  0.74170  0.63485  Biso   1.000  N
  N5       1.0000 0.72847  0.75830  0.13485  Biso   1.000  N
  N6       1.0000 0.27153  0.75830  0.36515  Biso   1.000  N
  N7       1.0000 0.22847  0.25830  0.13485  Biso   1.000  N
  N8       1.0000 0.77153  0.25830  0.36515  Biso   1.000  N
  N9       1.0000 0.42371  0.13090  0.04056  Biso   1.000  N
  N10      1.0000 0.57629  0.13090  0.45944  Biso   1.000  N
  N11      1.0000 0.92371  0.63090  0.04056  Biso   1.000  N
  N12      1.0000 0.07629  0.63090  0.45944  Biso   1.000  N
  N13      1.0000 0.57629  0.86910  0.95944  Biso   1.000  N
  N14      1.0000 0.42371  0.86910  0.54056  Biso   1.000  N
  N15      1.0000 0.07629  0.36910  0.95944  Biso   1.000  N
  N16      1.0000 0.92371  0.36910  0.54056  Biso   1.000  N
  N17      1.0000 0.13543  0.36660  0.67792  Biso   1.000  N
  N18      1.0000 0.86457  0.36660  0.82208  Biso   1.000  N
  N19      1.0000 0.63543  0.86660  0.67792  Biso   1.000  N
  N20      1.0000 0.36457  0.86660  0.82208  Biso   1.000  N
  N21      1.0000 0.86457  0.63340  0.32208  Biso   1.000  N
  N22      1.0000 0.13543  0.63340  0.17792  Biso   1.000  N
  N23      1.0000 0.36457  0.13340  0.32208  Biso   1.000  N
  N24      1.0000 0.63543  0.13340  0.17792  Biso   1.000  N
  N25      1.0000 0.28835  0.42820  0.73082  Biso   1.000  N
  N26      1.0000 0.71165  0.42820  0.76918  Biso   1.000  N
  N27      1.0000 0.78835  0.92820  0.73082  Biso   1.000  N
  N28      1.0000 0.21165  0.92820  0.76918  Biso   1.000  N
  N29      1.0000 0.71165  0.57180  0.26918  Biso   1.000  N
  N30      1.0000 0.28835  0.57180  0.23082  Biso   1.000  N
  N31      1.0000 0.21165  0.07180  0.26918  Biso   1.000  N
  N32      1.0000 0.78835  0.07180  0.23082  Biso   1.000  N
  N33      1.0000 0.50000  0.54800  0.75000  Biso   1.000  N
  N34      1.0000 0.00000  0.04800  0.75000  Biso   1.000  N
  N35      1.0000 0.50000  0.45200  0.25000  Biso   1.000  N
  N36      1.0000 0.00000  0.95200  0.25000  Biso   1.000  N
  N37      1.0000 0.21727  0.10390  0.94338  Biso   1.000  N
  N38      1.0000 0.78273  0.10390  0.55662  Biso   1.000  N
  N39      1.0000 0.71727  0.60390  0.94338  Biso   1.000  N
  N40      1.0000 0.28273  0.60390  0.55662  Biso   1.000  N
  N41      1.0000 0.78273  0.89610  0.05662  Biso   1.000  N
  N42      1.0000 0.21727  0.89610  0.44338  Biso   1.000  N
  N43      1.0000 0.28273  0.39610  0.05662  Biso   1.000  N
  N44      1.0000 0.71727  0.39610  0.44338  Biso   1.000  N
  N45      1.0000 0.04187  0.88605  0.92765  Biso   1.000  N
  N46      1.0000 0.95813  0.88605  0.57235  Biso   1.000  N
  N47      1.0000 0.54187  0.38605  0.92765  Biso   1.000  N
  N48      1.0000 0.45813  0.38605  0.57235  Biso   1.000  N
  N49      1.0000 0.95813  0.11395  0.07235  Biso   1.000  N
  N50      1.0000 0.04187  0.11395  0.42765  Biso   1.000  N
  N51      1.0000 0.45813  0.61395  0.07235  Biso   1.000  N
  N52      1.0000 0.54187  0.61395  0.42765  Biso   1.000  N
  N53      1.0000 0.50817  0.95170  0.08012  Biso   1.000  N
  N54      1.0000 0.49183  0.95170  0.41988  Biso   1.000  N
  N55      1.0000 0.00817  0.45170  0.08012  Biso   1.000  N
  N56      1.0000 0.99183  0.45170  0.41988  Biso   1.000  N
  N57      1.0000 0.49183  0.04830  0.91988  Biso   1.000  N
  N58      1.0000 0.50817  0.04830  0.58012  Biso   1.000  N
  N59      1.0000 0.99183  0.54830  0.91988  Biso   1.000  N
  N60      1.0000 0.00817  0.54830  0.58012  Biso   1.000  N
  C1       1.0000 0.25073  0.28160  0.81725  Biso   1.000  C
  C2       1.0000 0.74927  0.28160  0.68275  Biso   1.000  C
  C3       1.0000 0.75073  0.78160  0.81725  Biso   1.000  C
  C4       1.0000 0.24927  0.78160  0.68275  Biso   1.000  C
  C5       1.0000 0.74927  0.71840  0.18275  Biso   1.000  C
  C6       1.0000 0.25073  0.71840  0.31725  Biso   1.000  C
  C7       1.0000 0.24927  0.21840  0.18275  Biso   1.000  C
  C8       1.0000 0.75073  0.21840  0.31725  Biso   1.000  C
  C9       1.0000 0.37467  0.14240  0.00536  Biso   1.000  C
  C10      1.0000 0.62533  0.14240  0.49464  Biso   1.000  C
  C11      1.0000 0.87467  0.64240  0.00536  Biso   1.000  C
  C12      1.0000 0.12533  0.64240  0.49464  Biso   1.000  C
  C13      1.0000 0.62533  0.85760  0.99464  Biso   1.000  C
  C14      1.0000 0.37467  0.85760  0.50536  Biso   1.000  C
  C15      1.0000 0.12533  0.35760  0.99464  Biso   1.000  C
  C16      1.0000 0.87467  0.35760  0.50536  Biso   1.000  C
  C17      1.0000 0.08644  0.37400  0.64219  Biso   1.000  C
  C18      1.0000 0.91356  0.37400  0.85781  Biso   1.000  C
  C19      1.0000 0.58644  0.87400  0.64219  Biso   1.000  C
  C20      1.0000 0.41356  0.87400  0.85781  Biso   1.000  C
  C21      1.0000 0.91356  0.62600  0.35781  Biso   1.000  C
  C22      1.0000 0.08644  0.62600  0.14219  Biso   1.000  C
  C23      1.0000 0.41356  0.12600  0.35781  Biso   1.000  C
  C24      1.0000 0.58644  0.12600  0.14219  Biso   1.000  C
  C25      1.0000 0.34574  0.39300  0.74595  Biso   1.000  C
  C26      1.0000 0.65426  0.39300  0.75405  Biso   1.000  C
  C27      1.0000 0.84574  0.89300  0.74595  Biso   1.000  C
  C28      1.0000 0.15426  0.89300  0.75405  Biso   1.000  C
  C29      1.0000 0.65426  0.60700  0.25405  Biso   1.000  C
  C30      1.0000 0.34574  0.60700  0.24595  Biso   1.000  C
  C31      1.0000 0.15426  0.10700  0.25405  Biso   1.000  C
  C32      1.0000 0.84574  0.10700  0.24595  Biso   1.000  C
  H1       1.0000 0.35070  0.33010  0.75380  Biso   1.000  H
  H2       1.0000 0.64930  0.33010  0.74620  Biso   1.000  H
  H3       1.0000 0.85070  0.83010  0.75380  Biso   1.000  H
  H4       1.0000 0.14930  0.83010  0.74620  Biso   1.000  H
  H5       1.0000 0.64930  0.66990  0.24620  Biso   1.000  H
  H6       1.0000 0.35070  0.66990  0.25380  Biso   1.000  H
  H7       1.0000 0.14930  0.16990  0.24620  Biso   1.000  H
  H8       1.0000 0.85070  0.16990  0.25380  Biso   1.000  H
  C33      1.0000 0.39761  0.44470  0.75059  Biso   1.000  C
  C34      1.0000 0.60239  0.44470  0.74941  Biso   1.000  C
  C35      1.0000 0.89761  0.94470  0.75059  Biso   1.000  C
  C36      1.0000 0.10239  0.94470  0.74941  Biso   1.000  C
  C37      1.0000 0.60239  0.55530  0.24941  Biso   1.000  C
  C38      1.0000 0.39761  0.55530  0.25059  Biso   1.000  C
  C39      1.0000 0.10239  0.05530  0.24941  Biso   1.000  C
  C40      1.0000 0.89761  0.05530  0.25059  Biso   1.000  C
  H9       1.0000 0.43630  0.41630  0.76090  Biso   1.000  H
  H10      1.0000 0.56370  0.41630  0.73910  Biso   1.000  H
  H11      1.0000 0.93630  0.91630  0.76090  Biso   1.000  H
  H12      1.0000 0.06370  0.91630  0.73910  Biso   1.000  H
  H13      1.0000 0.56370  0.58370  0.23910  Biso   1.000  H
  H14      1.0000 0.43630  0.58370  0.26090  Biso   1.000  H
  H15      1.0000 0.06370  0.08370  0.23910  Biso   1.000  H
  H16      1.0000 0.93630  0.08370  0.26090  Biso   1.000  H
  C41      1.0000 0.39252  0.53830  0.73996  Biso   1.000  C
  C42      1.0000 0.60748  0.53830  0.76004  Biso   1.000  C
  C43      1.0000 0.89252  0.03830  0.73996  Biso   1.000  C
  C44      1.0000 0.10748  0.03830  0.76004  Biso   1.000  C
  C45      1.0000 0.60748  0.46170  0.26004  Biso   1.000  C
  C46      1.0000 0.39252  0.46170  0.23996  Biso   1.000  C
  C47      1.0000 0.10748  0.96170  0.26004  Biso   1.000  C
  C48      1.0000 0.89252  0.96170  0.23996  Biso   1.000  C
  C49      1.0000 0.33311  0.57530  0.72479  Biso   1.000  C
  C50      1.0000 0.66689  0.57530  0.77521  Biso   1.000  C
  C51      1.0000 0.83311  0.07530  0.72479  Biso   1.000  C
  C52      1.0000 0.16689  0.07530  0.77521  Biso   1.000  C
  C53      1.0000 0.66689  0.42470  0.27521  Biso   1.000  C
  C54      1.0000 0.33311  0.42470  0.22479  Biso   1.000  C
  C55      1.0000 0.16689  0.92470  0.27521  Biso   1.000  C
  C56      1.0000 0.83311  0.92470  0.22479  Biso   1.000  C
  H17      1.0000 0.32690  0.63830  0.71790  Biso   1.000  H
  H18      1.0000 0.67310  0.63830  0.78210  Biso   1.000  H
  H19      1.0000 0.82690  0.13830  0.71790  Biso   1.000  H
  H20      1.0000 0.17310  0.13830  0.78210  Biso   1.000  H
  H21      1.0000 0.67310  0.36170  0.28210  Biso   1.000  H
  H22      1.0000 0.32690  0.36170  0.21790  Biso   1.000  H
  H23      1.0000 0.17310  0.86170  0.28210  Biso   1.000  H
  H24      1.0000 0.82690  0.86170  0.21790  Biso   1.000  H
  C57      1.0000 0.28341  0.51810  0.72003  Biso   1.000  C
  C58      1.0000 0.71659  0.51810  0.77997  Biso   1.000  C
  C59      1.0000 0.78341  0.01810  0.72003  Biso   1.000  C
  C60      1.0000 0.21659  0.01810  0.77997  Biso   1.000  C
  C61      1.0000 0.71659  0.48190  0.27997  Biso   1.000  C
  C62      1.0000 0.28341  0.48190  0.22003  Biso   1.000  C
  C63      1.0000 0.21659  0.98190  0.27997  Biso   1.000  C
  C64      1.0000 0.78341  0.98190  0.22003  Biso   1.000  C
  H25      1.0000 0.24400  0.54420  0.70850  Biso   1.000  H
  H26      1.0000 0.75600  0.54420  0.79150  Biso   1.000  H
  H27      1.0000 0.74400  0.04420  0.70850  Biso   1.000  H
  H28      1.0000 0.25600  0.04420  0.79150  Biso   1.000  H
  H29      1.0000 0.75600  0.45580  0.29150  Biso   1.000  H
  H30      1.0000 0.24400  0.45580  0.20850  Biso   1.000  H
  H31      1.0000 0.25600  0.95580  0.29150  Biso   1.000  H
  H32      1.0000 0.74400  0.95580  0.20850  Biso   1.000  H
  C65      1.0000 0.44804  0.59550  0.74546  Biso   1.000  C
  C66      1.0000 0.55196  0.59550  0.75454  Biso   1.000  C
  C67      1.0000 0.94804  0.09550  0.74546  Biso   1.000  C
  C68      1.0000 0.05196  0.09550  0.75454  Biso   1.000  C
  C69      1.0000 0.55196  0.40450  0.25454  Biso   1.000  C
  C70      1.0000 0.44804  0.40450  0.24546  Biso   1.000  C
  C71      1.0000 0.05196  0.90450  0.25454  Biso   1.000  C
  C72      1.0000 0.94804  0.90450  0.24546  Biso   1.000  C
  C73      1.0000 0.44670  0.69090  0.74640  Biso   1.000  C
  C74      1.0000 0.55330  0.69090  0.75360  Biso   1.000  C
  C75      1.0000 0.94670  0.19090  0.74640  Biso   1.000  C
  C76      1.0000 0.05330  0.19090  0.75360  Biso   1.000  C
  C77      1.0000 0.55330  0.30910  0.25360  Biso   1.000  C
  C78      1.0000 0.44670  0.30910  0.24640  Biso   1.000  C
  C79      1.0000 0.05330  0.80910  0.25360  Biso   1.000  C
  C80      1.0000 0.94670  0.80910  0.24640  Biso   1.000  C
  H33      1.0000 0.41020  0.72160  0.74460  Biso   1.000  H
  H34      1.0000 0.58980  0.72160  0.75540  Biso   1.000  H
  H35      1.0000 0.91020  0.22160  0.74460  Biso   1.000  H
  H36      1.0000 0.08980  0.22160  0.75540  Biso   1.000  H
  H37      1.0000 0.58980  0.27840  0.25540  Biso   1.000  H
  H38      1.0000 0.41020  0.27840  0.24460  Biso   1.000  H
  H39      1.0000 0.08980  0.77840  0.25540  Biso   1.000  H
  H40      1.0000 0.91020  0.77840  0.24460  Biso   1.000  H
  C81      1.0000 0.50000  0.74090  0.75000  Biso   1.000  C
  C82      1.0000 0.00000  0.24090  0.75000  Biso   1.000  C
  C83      1.0000 0.50000  0.25910  0.25000  Biso   1.000  C
  C84      1.0000 0.00000  0.75910  0.25000  Biso   1.000  C
  C85      1.0000 0.50000  0.84250  0.75000  Biso   1.000  C
  C86      1.0000 0.00000  0.34250  0.75000  Biso   1.000  C
  C87      1.0000 0.50000  0.15750  0.25000  Biso   1.000  C
  C88      1.0000 0.00000  0.65750  0.25000  Biso   1.000  C
  C89      1.0000 0.55000  0.89250  0.79010  Biso   1.000  C
  C90      1.0000 0.45000  0.89250  0.70990  Biso   1.000  C
  C91      1.0000 0.05000  0.39250  0.79010  Biso   1.000  C
  C92      1.0000 0.95000  0.39250  0.70990  Biso   1.000  C
  C93      1.0000 0.45000  0.10750  0.20990  Biso   1.000  C
  C94      1.0000 0.55000  0.10750  0.29010  Biso   1.000  C
  C95      1.0000 0.95000  0.60750  0.20990  Biso   1.000  C
  C96      1.0000 0.05000  0.60750  0.29010  Biso   1.000  C
  H41      1.0000 0.58180  0.85230  0.81620  Biso   1.000  H
  H42      1.0000 0.41820  0.85230  0.68380  Biso   1.000  H
  H43      1.0000 0.08180  0.35230  0.81620  Biso   1.000  H
  H44      1.0000 0.91820  0.35230  0.68380  Biso   1.000  H
  H45      1.0000 0.41820  0.14770  0.18380  Biso   1.000  H
  H46      1.0000 0.58180  0.14770  0.31620  Biso   1.000  H
  H47      1.0000 0.91820  0.64770  0.18380  Biso   1.000  H
  H48      1.0000 0.08180  0.64770  0.31620  Biso   1.000  H
  C97      1.0000 0.56360  0.98090  0.80030  Biso   1.000  C
  C98      1.0000 0.43640  0.98090  0.69970  Biso   1.000  C
  C99      1.0000 0.06360  0.48090  0.80030  Biso   1.000  C
  C100     1.0000 0.93640  0.48090  0.69970  Biso   1.000  C
  C101     1.0000 0.43640  0.01910  0.19970  Biso   1.000  C
  C102     1.0000 0.56360  0.01910  0.30030  Biso   1.000  C
  C103     1.0000 0.93640  0.51910  0.19970  Biso   1.000  C
  C104     1.0000 0.06360  0.51910  0.30030  Biso   1.000  C
  H49      1.0000 0.39830  0.00350  0.66960  Biso   1.000  H
  H50      1.0000 0.60170  0.00350  0.83040  Biso   1.000  H
  H51      1.0000 0.89830  0.50350  0.66960  Biso   1.000  H
  H52      1.0000 0.10170  0.50350  0.83040  Biso   1.000  H
  H53      1.0000 0.60170  0.99650  0.33040  Biso   1.000  H
  H54      1.0000 0.39830  0.99650  0.16960  Biso   1.000  H
  H55      1.0000 0.10170  0.49650  0.33040  Biso   1.000  H
  H56      1.0000 0.89830  0.49650  0.16960  Biso   1.000  H
  C105     1.0000 0.51530  0.03750  0.76160  Biso   1.000  C
  C106     1.0000 0.48470  0.03750  0.73840  Biso   1.000  C
  C107     1.0000 0.01530  0.53750  0.76160  Biso   1.000  C
  C108     1.0000 0.98470  0.53750  0.73840  Biso   1.000  C
  C109     1.0000 0.48470  0.96250  0.23840  Biso   1.000  C
  C110     1.0000 0.51530  0.96250  0.26160  Biso   1.000  C
  C111     1.0000 0.98470  0.46250  0.23840  Biso   1.000  C
  C112     1.0000 0.01530  0.46250  0.26160  Biso   1.000  C
  C113     1.0000 0.47550  0.14010  0.73260  Biso   1.000  C
  C114     1.0000 0.52450  0.14010  0.76740  Biso   1.000  C
  C115     1.0000 0.97550  0.64010  0.73260  Biso   1.000  C
  C116     1.0000 0.02450  0.64010  0.76740  Biso   1.000  C
  C117     1.0000 0.52450  0.85990  0.26740  Biso   1.000  C
  C118     1.0000 0.47550  0.85990  0.23260  Biso   1.000  C
  C119     1.0000 0.02450  0.35990  0.26740  Biso   1.000  C
  C120     1.0000 0.97550  0.35990  0.23260  Biso   1.000  C
  H57      1.0000 0.44040  0.15670  0.74560  Biso   1.000  H
  H58      1.0000 0.55960  0.15670  0.75440  Biso   1.000  H
  H59      1.0000 0.94040  0.65670  0.74560  Biso   1.000  H
  H60      1.0000 0.05960  0.65670  0.75440  Biso   1.000  H
  H61      1.0000 0.55960  0.84330  0.25440  Biso   1.000  H
  H62      1.0000 0.44040  0.84330  0.24560  Biso   1.000  H
  H63      1.0000 0.05960  0.34330  0.25440  Biso   1.000  H
  H64      1.0000 0.94040  0.34330  0.24560  Biso   1.000  H
  H65      1.0000 0.46620  0.15740  0.68790  Biso   1.000  H
  H66      1.0000 0.53380  0.15740  0.81210  Biso   1.000  H
  H67      1.0000 0.96620  0.65740  0.68790  Biso   1.000  H
  H68      1.0000 0.03380  0.65740  0.81210  Biso   1.000  H
  H69      1.0000 0.53380  0.84260  0.31210  Biso   1.000  H
  H70      1.0000 0.46620  0.84260  0.18790  Biso   1.000  H
  H71      1.0000 0.03380  0.34260  0.31210  Biso   1.000  H
  H72      1.0000 0.96620  0.34260  0.18790  Biso   1.000  H
  C121     1.0000 0.53030  0.19880  0.77090  Biso   1.000  C
  C122     1.0000 0.46970  0.19880  0.72910  Biso   1.000  C
  C123     1.0000 0.03030  0.69880  0.77090  Biso   1.000  C
  C124     1.0000 0.96970  0.69880  0.72910  Biso   1.000  C
  C125     1.0000 0.46970  0.80120  0.22910  Biso   1.000  C
  C126     1.0000 0.53030  0.80120  0.27090  Biso   1.000  C
  C127     1.0000 0.96970  0.30120  0.22910  Biso   1.000  C
  C128     1.0000 0.03030  0.30120  0.27090  Biso   1.000  C
  H73      1.0000 0.52120  0.26330  0.76460  Biso   1.000  H
  H74      1.0000 0.47880  0.26330  0.73540  Biso   1.000  H
  H75      1.0000 0.02120  0.76330  0.76460  Biso   1.000  H
  H76      1.0000 0.97880  0.76330  0.73540  Biso   1.000  H
  H77      1.0000 0.47880  0.73670  0.23540  Biso   1.000  H
  H78      1.0000 0.52120  0.73670  0.26460  Biso   1.000  H
  H79      1.0000 0.97880  0.23670  0.23540  Biso   1.000  H
  H80      1.0000 0.02120  0.23670  0.26460  Biso   1.000  H
  H81      1.0000 0.53950  0.18370  0.81580  Biso   1.000  H
  H82      1.0000 0.46050  0.18370  0.68420  Biso   1.000  H
  H83      1.0000 0.03950  0.68370  0.81580  Biso   1.000  H
  H84      1.0000 0.96050  0.68370  0.68420  Biso   1.000  H
  H85      1.0000 0.46050  0.81630  0.18420  Biso   1.000  H
  H86      1.0000 0.53950  0.81630  0.31580  Biso   1.000  H
  H87      1.0000 0.96050  0.31630  0.18420  Biso   1.000  H
  H88      1.0000 0.03950  0.31630  0.31580  Biso   1.000  H
  H89      1.0000 0.56560  0.18440  0.75750  Biso   1.000  H
  H90      1.0000 0.43440  0.18440  0.74250  Biso   1.000  H
  H91      1.0000 0.06560  0.68440  0.75750  Biso   1.000  H
  H92      1.0000 0.93440  0.68440  0.74250  Biso   1.000  H
  H93      1.0000 0.43440  0.81560  0.24250  Biso   1.000  H
  H94      1.0000 0.56560  0.81560  0.25750  Biso   1.000  H
  H95      1.0000 0.93440  0.31560  0.24250  Biso   1.000  H
  H96      1.0000 0.06560  0.31560  0.25750  Biso   1.000  H
  C129     1.0000 0.53540  0.99440  0.78040  Biso   1.000  C
  C130     1.0000 0.46460  0.99440  0.71960  Biso   1.000  C
  C131     1.0000 0.03540  0.49440  0.78040  Biso   1.000  C
  C132     1.0000 0.96460  0.49440  0.71960  Biso   1.000  C
  C133     1.0000 0.46460  0.00560  0.21960  Biso   1.000  C
  C134     1.0000 0.53540  0.00560  0.28040  Biso   1.000  C
  C135     1.0000 0.96460  0.50560  0.21960  Biso   1.000  C
  C136     1.0000 0.03540  0.50560  0.28040  Biso   1.000  C
  H97      1.0000 0.56640  0.03460  0.80760  Biso   1.000  H
  H98      1.0000 0.43360  0.03460  0.69240  Biso   1.000  H
  H99      1.0000 0.06640  0.53460  0.80760  Biso   1.000  H
  H100     1.0000 0.93360  0.53460  0.69240  Biso   1.000  H
  H101     1.0000 0.43360  0.96540  0.19240  Biso   1.000  H
  H102     1.0000 0.56640  0.96540  0.30760  Biso   1.000  H
  H103     1.0000 0.93360  0.46540  0.19240  Biso   1.000  H
  H104     1.0000 0.06640  0.46540  0.30760  Biso   1.000  H
  C137     1.0000 0.16581  0.15370  0.93294  Biso   1.000  C
  C138     1.0000 0.83419  0.15370  0.56706  Biso   1.000  C
  C139     1.0000 0.66581  0.65370  0.93294  Biso   1.000  C
  C140     1.0000 0.33419  0.65370  0.56706  Biso   1.000  C
  C141     1.0000 0.83419  0.84630  0.06706  Biso   1.000  C
  C142     1.0000 0.16581  0.84630  0.43294  Biso   1.000  C
  C143     1.0000 0.33419  0.34630  0.06706  Biso   1.000  C
  C144     1.0000 0.66581  0.34630  0.43294  Biso   1.000  C
  H105     1.0000 0.16890  0.21730  0.92990  Biso   1.000  H
  H106     1.0000 0.83110  0.21730  0.57010  Biso   1.000  H
  H107     1.0000 0.66890  0.71730  0.92990  Biso   1.000  H
  H108     1.0000 0.33110  0.71730  0.57010  Biso   1.000  H
  H109     1.0000 0.83110  0.78270  0.07010  Biso   1.000  H
  H110     1.0000 0.16890  0.78270  0.42990  Biso   1.000  H
  H111     1.0000 0.33110  0.28270  0.07010  Biso   1.000  H
  H112     1.0000 0.66890  0.28270  0.42990  Biso   1.000  H
  C145     1.0000 0.10846  0.11700  0.92636  Biso   1.000  C
  C146     1.0000 0.89154  0.11700  0.57364  Biso   1.000  C
  C147     1.0000 0.60846  0.61700  0.92636  Biso   1.000  C
  C148     1.0000 0.39154  0.61700  0.57364  Biso   1.000  C
  C149     1.0000 0.89154  0.88300  0.07364  Biso   1.000  C
  C150     1.0000 0.10846  0.88300  0.42636  Biso   1.000  C
  C151     1.0000 0.39154  0.38300  0.07364  Biso   1.000  C
  C152     1.0000 0.60846  0.38300  0.42636  Biso   1.000  C
  H113     1.0000 0.07420  0.15550  0.91900  Biso   1.000  H
  H114     1.0000 0.92580  0.15550  0.58100  Biso   1.000  H
  H115     1.0000 0.57420  0.65550  0.91900  Biso   1.000  H
  H116     1.0000 0.42580  0.65550  0.58100  Biso   1.000  H
  H117     1.0000 0.92580  0.84450  0.08100  Biso   1.000  H
  H118     1.0000 0.07420  0.84450  0.41900  Biso   1.000  H
  H119     1.0000 0.42580  0.34450  0.08100  Biso   1.000  H
  H120     1.0000 0.57420  0.34450  0.41900  Biso   1.000  H
  C153     1.0000 0.10150  0.02320  0.93068  Biso   1.000  C
  C154     1.0000 0.89850  0.02320  0.56932  Biso   1.000  C
  C155     1.0000 0.60150  0.52320  0.93068  Biso   1.000  C
  C156     1.0000 0.39850  0.52320  0.56932  Biso   1.000  C
  C157     1.0000 0.89850  0.97680  0.06932  Biso   1.000  C
  C158     1.0000 0.10150  0.97680  0.43068  Biso   1.000  C
  C159     1.0000 0.39850  0.47680  0.06932  Biso   1.000  C
  C160     1.0000 0.60150  0.47680  0.43068  Biso   1.000  C
  C161     1.0000 0.15452  0.97100  0.94100  Biso   1.000  C
  C162     1.0000 0.84548  0.97100  0.55900  Biso   1.000  C
  C163     1.0000 0.65452  0.47100  0.94100  Biso   1.000  C
  C164     1.0000 0.34548  0.47100  0.55900  Biso   1.000  C
  C165     1.0000 0.84548  0.02900  0.05900  Biso   1.000  C
  C166     1.0000 0.15452  0.02900  0.44100  Biso   1.000  C
  C167     1.0000 0.34548  0.52900  0.05900  Biso   1.000  C
  C168     1.0000 0.65452  0.52900  0.44100  Biso   1.000  C
  H121     1.0000 0.15270  0.90720  0.94380  Biso   1.000  H
  H122     1.0000 0.84730  0.90720  0.55620  Biso   1.000  H
  H123     1.0000 0.65270  0.40720  0.94380  Biso   1.000  H
  H124     1.0000 0.34730  0.40720  0.55620  Biso   1.000  H
  H125     1.0000 0.84730  0.09280  0.05620  Biso   1.000  H
  H126     1.0000 0.15270  0.09280  0.44380  Biso   1.000  H
  H127     1.0000 0.34730  0.59280  0.05620  Biso   1.000  H
  H128     1.0000 0.65270  0.59280  0.44380  Biso   1.000  H
  C169     1.0000 0.21037  0.01390  0.94720  Biso   1.000  C
  C170     1.0000 0.78963  0.01390  0.55280  Biso   1.000  C
  C171     1.0000 0.71037  0.51390  0.94720  Biso   1.000  C
  C172     1.0000 0.28963  0.51390  0.55280  Biso   1.000  C
  C173     1.0000 0.78963  0.98610  0.05280  Biso   1.000  C
  C174     1.0000 0.21037  0.98610  0.44720  Biso   1.000  C
  C175     1.0000 0.28963  0.48610  0.05280  Biso   1.000  C
  C176     1.0000 0.71037  0.48610  0.44720  Biso   1.000  C
  H129     1.0000 0.24540  0.97700  0.95440  Biso   1.000  H
  H130     1.0000 0.75460  0.97700  0.54560  Biso   1.000  H
  H131     1.0000 0.74540  0.47700  0.95440  Biso   1.000  H
  H132     1.0000 0.25460  0.47700  0.54560  Biso   1.000  H
  H133     1.0000 0.75460  0.02300  0.04560  Biso   1.000  H
  H134     1.0000 0.24540  0.02300  0.45440  Biso   1.000  H
  H135     1.0000 0.25460  0.52300  0.04560  Biso   1.000  H
  H136     1.0000 0.74540  0.52300  0.45440  Biso   1.000  H
  C177     1.0000 0.04066  0.97810  0.92419  Biso   1.000  C
  C178     1.0000 0.95934  0.97810  0.57581  Biso   1.000  C
  C179     1.0000 0.54066  0.47810  0.92419  Biso   1.000  C
  C180     1.0000 0.45934  0.47810  0.57581  Biso   1.000  C
  C181     1.0000 0.95934  0.02190  0.07581  Biso   1.000  C
  C182     1.0000 0.04066  0.02190  0.42419  Biso   1.000  C
  C183     1.0000 0.45934  0.52190  0.07581  Biso   1.000  C
  C184     1.0000 0.54066  0.52190  0.42419  Biso   1.000  C
  C185     1.0000 0.98719  0.02900  0.91584  Biso   1.000  C
  C186     1.0000 0.01281  0.02900  0.58416  Biso   1.000  C
  C187     1.0000 0.48719  0.52900  0.91584  Biso   1.000  C
  C188     1.0000 0.51281  0.52900  0.58416  Biso   1.000  C
  C189     1.0000 0.01281  0.97100  0.08416  Biso   1.000  C
  C190     1.0000 0.98719  0.97100  0.41584  Biso   1.000  C
  C191     1.0000 0.51281  0.47100  0.08416  Biso   1.000  C
  C192     1.0000 0.48719  0.47100  0.41584  Biso   1.000  C
  H137     1.0000 0.98840  0.09270  0.91230  Biso   1.000  H
  H138     1.0000 0.01160  0.09270  0.58770  Biso   1.000  H
  H139     1.0000 0.48840  0.59270  0.91230  Biso   1.000  H
  H140     1.0000 0.51160  0.59270  0.58770  Biso   1.000  H
  H141     1.0000 0.01160  0.90730  0.08770  Biso   1.000  H
  H142     1.0000 0.98840  0.90730  0.41230  Biso   1.000  H
  H143     1.0000 0.51160  0.40730  0.08770  Biso   1.000  H
  H144     1.0000 0.48840  0.40730  0.41230  Biso   1.000  H
  C193     1.0000 0.93138  0.98580  0.91265  Biso   1.000  C
  C194     1.0000 0.06862  0.98580  0.58735  Biso   1.000  C
  C195     1.0000 0.43138  0.48580  0.91265  Biso   1.000  C
  C196     1.0000 0.56862  0.48580  0.58735  Biso   1.000  C
  C197     1.0000 0.06862  0.01420  0.08735  Biso   1.000  C
  C198     1.0000 0.93138  0.01420  0.41265  Biso   1.000  C
  C199     1.0000 0.56862  0.51420  0.08735  Biso   1.000  C
  C200     1.0000 0.43138  0.51420  0.41265  Biso   1.000  C
  C201     1.0000 0.93357  0.89110  0.91661  Biso   1.000  C
  C202     1.0000 0.06643  0.89110  0.58339  Biso   1.000  C
  C203     1.0000 0.43357  0.39110  0.91661  Biso   1.000  C
  C204     1.0000 0.56643  0.39110  0.58339  Biso   1.000  C
  C205     1.0000 0.06643  0.10890  0.08339  Biso   1.000  C
  C206     1.0000 0.93357  0.10890  0.41661  Biso   1.000  C
  C207     1.0000 0.56643  0.60890  0.08339  Biso   1.000  C
  C208     1.0000 0.43357  0.60890  0.41661  Biso   1.000  C
  H145     1.0000 0.89790  0.85850  0.91500  Biso   1.000  H
  H146     1.0000 0.10210  0.85850  0.58500  Biso   1.000  H
  H147     1.0000 0.39790  0.35850  0.91500  Biso   1.000  H
  H148     1.0000 0.60210  0.35850  0.58500  Biso   1.000  H
  H149     1.0000 0.10210  0.14150  0.08500  Biso   1.000  H
  H150     1.0000 0.89790  0.14150  0.41500  Biso   1.000  H
  H151     1.0000 0.60210  0.64150  0.08500  Biso   1.000  H
  H152     1.0000 0.39790  0.64150  0.41500  Biso   1.000  H
  C209     1.0000 0.98833  0.84350  0.92305  Biso   1.000  C
  C210     1.0000 0.01167  0.84350  0.57695  Biso   1.000  C
  C211     1.0000 0.48833  0.34350  0.92305  Biso   1.000  C
  C212     1.0000 0.51167  0.34350  0.57695  Biso   1.000  C
  C213     1.0000 0.01167  0.15650  0.07695  Biso   1.000  C
  C214     1.0000 0.98833  0.15650  0.42305  Biso   1.000  C
  C215     1.0000 0.51167  0.65650  0.07695  Biso   1.000  C
  C216     1.0000 0.48833  0.65650  0.42305  Biso   1.000  C
  C217     1.0000 0.98935  0.74110  0.92341  Biso   1.000  C
  C218     1.0000 0.01065  0.74110  0.57659  Biso   1.000  C
  C219     1.0000 0.48935  0.24110  0.92341  Biso   1.000  C
  C220     1.0000 0.51065  0.24110  0.57659  Biso   1.000  C
  C221     1.0000 0.01065  0.25890  0.07659  Biso   1.000  C
  C222     1.0000 0.98935  0.25890  0.42341  Biso   1.000  C
  C223     1.0000 0.51065  0.75890  0.07659  Biso   1.000  C
  C224     1.0000 0.48935  0.75890  0.42341  Biso   1.000  C
  C225     1.0000 0.04124  0.69170  0.95920  Biso   1.000  C
  C226     1.0000 0.95876  0.69170  0.54080  Biso   1.000  C
  C227     1.0000 0.54124  0.19170  0.95920  Biso   1.000  C
  C228     1.0000 0.45876  0.19170  0.54080  Biso   1.000  C
  C229     1.0000 0.95876  0.30830  0.04080  Biso   1.000  C
  C230     1.0000 0.04124  0.30830  0.45920  Biso   1.000  C
  C231     1.0000 0.45876  0.80830  0.04080  Biso   1.000  C
  C232     1.0000 0.54124  0.80830  0.45920  Biso   1.000  C
  H153     1.0000 0.07650  0.72230  0.98490  Biso   1.000  H
  H154     1.0000 0.92350  0.72230  0.51510  Biso   1.000  H
  H155     1.0000 0.57650  0.22230  0.98490  Biso   1.000  H
  H156     1.0000 0.42350  0.22230  0.51510  Biso   1.000  H
  H157     1.0000 0.92350  0.27770  0.01510  Biso   1.000  H
  H158     1.0000 0.07650  0.27770  0.48490  Biso   1.000  H
  H159     1.0000 0.42350  0.77770  0.01510  Biso   1.000  H
  H160     1.0000 0.57650  0.77770  0.48490  Biso   1.000  H
  C233     1.0000 0.45972  0.90270  0.04353  Biso   1.000  C
  C234     1.0000 0.54028  0.90270  0.45647  Biso   1.000  C
  C235     1.0000 0.95972  0.40270  0.04353  Biso   1.000  C
  C236     1.0000 0.04028  0.40270  0.45647  Biso   1.000  C
  C237     1.0000 0.54028  0.09730  0.95647  Biso   1.000  C
  C238     1.0000 0.45972  0.09730  0.54353  Biso   1.000  C
  C239     1.0000 0.04028  0.59730  0.95647  Biso   1.000  C
  C240     1.0000 0.95972  0.59730  0.54353  Biso   1.000  C
  H161     1.0000 0.42460  0.93440  0.01850  Biso   1.000  H
  H162     1.0000 0.57540  0.93440  0.48150  Biso   1.000  H
  H163     1.0000 0.92460  0.43440  0.01850  Biso   1.000  H
  H164     1.0000 0.07540  0.43440  0.48150  Biso   1.000  H
  H165     1.0000 0.57540  0.06560  0.98150  Biso   1.000  H
  H166     1.0000 0.42460  0.06560  0.51850  Biso   1.000  H
  H167     1.0000 0.07540  0.56560  0.98150  Biso   1.000  H
  H168     1.0000 0.92460  0.56560  0.51850  Biso   1.000  H
  C241     1.0000 0.55823  0.90360  0.11388  Biso   1.000  C
  C242     1.0000 0.44177  0.90360  0.38612  Biso   1.000  C
  C243     1.0000 0.05823  0.40360  0.11388  Biso   1.000  C
  C244     1.0000 0.94177  0.40360  0.38612  Biso   1.000  C
  C245     1.0000 0.44177  0.09640  0.88612  Biso   1.000  C
  C246     1.0000 0.55823  0.09640  0.61388  Biso   1.000  C
  C247     1.0000 0.94177  0.59640  0.88612  Biso   1.000  C
  C248     1.0000 0.05823  0.59640  0.61388  Biso   1.000  C
  H169     1.0000 0.59290  0.93590  0.13920  Biso   1.000  H
  H170     1.0000 0.40710  0.93590  0.36080  Biso   1.000  H
  H171     1.0000 0.09290  0.43590  0.13920  Biso   1.000  H
  H172     1.0000 0.90710  0.43590  0.36080  Biso   1.000  H
  H173     1.0000 0.40710  0.06410  0.86080  Biso   1.000  H
  H174     1.0000 0.59290  0.06410  0.63920  Biso   1.000  H
  H175     1.0000 0.90710  0.56410  0.86080  Biso   1.000  H
  H176     1.0000 0.09290  0.56410  0.63920  Biso   1.000  H
  C249     1.0000 0.93865  0.69040  0.88674  Biso   1.000  C
  C250     1.0000 0.06135  0.69040  0.61326  Biso   1.000  C
  C251     1.0000 0.43865  0.19040  0.88674  Biso   1.000  C
  C252     1.0000 0.56135  0.19040  0.61326  Biso   1.000  C
  C253     1.0000 0.06135  0.30960  0.11326  Biso   1.000  C
  C254     1.0000 0.93865  0.30960  0.38674  Biso   1.000  C
  C255     1.0000 0.56135  0.80960  0.11326  Biso   1.000  C
  C256     1.0000 0.43865  0.80960  0.38674  Biso   1.000  C
  H177     1.0000 0.90240  0.72030  0.86250  Biso   1.000  H
  H178     1.0000 0.09760  0.72030  0.63750  Biso   1.000  H
  H179     1.0000 0.40240  0.22030  0.86250  Biso   1.000  H
  H180     1.0000 0.59760  0.22030  0.63750  Biso   1.000  H
  H181     1.0000 0.09760  0.27970  0.13750  Biso   1.000  H
  H182     1.0000 0.90240  0.27970  0.36250  Biso   1.000  H
  H183     1.0000 0.59760  0.77970  0.13750  Biso   1.000  H
  H184     1.0000 0.40240  0.77970  0.36250  Biso   1.000  H
  C257     1.0000 0.87306  0.03790  0.90293  Biso   1.000  C
  C258     1.0000 0.12694  0.03790  0.59707  Biso   1.000  C
  C259     1.0000 0.37306  0.53790  0.90293  Biso   1.000  C
  C260     1.0000 0.62694  0.53790  0.59707  Biso   1.000  C
  C261     1.0000 0.12694  0.96210  0.09707  Biso   1.000  C
  C262     1.0000 0.87306  0.96210  0.40293  Biso   1.000  C
  C263     1.0000 0.62694  0.46210  0.09707  Biso   1.000  C
  C264     1.0000 0.37306  0.46210  0.40293  Biso   1.000  C
  C265     1.0000 0.87145  0.13250  0.90380  Biso   1.000  C
  C266     1.0000 0.12855  0.13250  0.59620  Biso   1.000  C
  C267     1.0000 0.37145  0.63250  0.90380  Biso   1.000  C
  C268     1.0000 0.62855  0.63250  0.59620  Biso   1.000  C
  C269     1.0000 0.12855  0.86750  0.09620  Biso   1.000  C
  C270     1.0000 0.87145  0.86750  0.40380  Biso   1.000  C
  C271     1.0000 0.62855  0.36750  0.09620  Biso   1.000  C
  C272     1.0000 0.37145  0.36750  0.40380  Biso   1.000  C
  H185     1.0000 0.90830  0.16510  0.91130  Biso   1.000  H
  H186     1.0000 0.09170  0.16510  0.58870  Biso   1.000  H
  H187     1.0000 0.40830  0.66510  0.91130  Biso   1.000  H
  H188     1.0000 0.59170  0.66510  0.58870  Biso   1.000  H
  H189     1.0000 0.09170  0.83490  0.08870  Biso   1.000  H
  H190     1.0000 0.90830  0.83490  0.41130  Biso   1.000  H
  H191     1.0000 0.59170  0.33490  0.08870  Biso   1.000  H
  H192     1.0000 0.40830  0.33490  0.41130  Biso   1.000  H
  C273     1.0000 0.81692  0.18030  0.89390  Biso   1.000  C
  C274     1.0000 0.18308  0.18030  0.60610  Biso   1.000  C
  C275     1.0000 0.31692  0.68030  0.89390  Biso   1.000  C
  C276     1.0000 0.68308  0.68030  0.60610  Biso   1.000  C
  C277     1.0000 0.18308  0.81970  0.10610  Biso   1.000  C
  C278     1.0000 0.81692  0.81970  0.39390  Biso   1.000  C
  C279     1.0000 0.68308  0.31970  0.10610  Biso   1.000  C
  C280     1.0000 0.31692  0.31970  0.39390  Biso   1.000  C
  H193     1.0000 0.81760  0.24440  0.89520  Biso   1.000  H
  H194     1.0000 0.18240  0.24440  0.60480  Biso   1.000  H
  H195     1.0000 0.31760  0.74440  0.89520  Biso   1.000  H
  H196     1.0000 0.68240  0.74440  0.60480  Biso   1.000  H
  H197     1.0000 0.18240  0.75560  0.10480  Biso   1.000  H
  H198     1.0000 0.81760  0.75560  0.39520  Biso   1.000  H
  H199     1.0000 0.68240  0.25560  0.10480  Biso   1.000  H
  H200     1.0000 0.31760  0.25560  0.39520  Biso   1.000  H
  C281     1.0000 0.76135  0.13420  0.88200  Biso   1.000  C
  C282     1.0000 0.23865  0.13420  0.61800  Biso   1.000  C
  C283     1.0000 0.26135  0.63420  0.88200  Biso   1.000  C
  C284     1.0000 0.73865  0.63420  0.61800  Biso   1.000  C
  C285     1.0000 0.23865  0.86580  0.11800  Biso   1.000  C
  C286     1.0000 0.76135  0.86580  0.38200  Biso   1.000  C
  C287     1.0000 0.73865  0.36580  0.11800  Biso   1.000  C
  C288     1.0000 0.26135  0.36580  0.38200  Biso   1.000  C
  C289     1.0000 0.76300  0.03960  0.88230  Biso   1.000  C
  C290     1.0000 0.23700  0.03960  0.61770  Biso   1.000  C
  C291     1.0000 0.26300  0.53960  0.88230  Biso   1.000  C
  C292     1.0000 0.73700  0.53960  0.61770  Biso   1.000  C
  C293     1.0000 0.23700  0.96040  0.11770  Biso   1.000  C
  C294     1.0000 0.76300  0.96040  0.38230  Biso   1.000  C
  C295     1.0000 0.73700  0.46040  0.11770  Biso   1.000  C
  C296     1.0000 0.26300  0.46040  0.38230  Biso   1.000  C
  H201     1.0000 0.72620  0.00700  0.87520  Biso   1.000  H
  H202     1.0000 0.27380  0.00700  0.62480  Biso   1.000  H
  H203     1.0000 0.22620  0.50700  0.87520  Biso   1.000  H
  H204     1.0000 0.77380  0.50700  0.62480  Biso   1.000  H
  H205     1.0000 0.27380  0.99300  0.12480  Biso   1.000  H
  H206     1.0000 0.72620  0.99300  0.37520  Biso   1.000  H
  H207     1.0000 0.77380  0.49300  0.12480  Biso   1.000  H
  H208     1.0000 0.22620  0.49300  0.37520  Biso   1.000  H
  C297     1.0000 0.81724  0.99200  0.89250  Biso   1.000  C
  C298     1.0000 0.18276  0.99200  0.60750  Biso   1.000  C
  C299     1.0000 0.31724  0.49200  0.89250  Biso   1.000  C
  C300     1.0000 0.68276  0.49200  0.60750  Biso   1.000  C
  C301     1.0000 0.18276  0.00800  0.10750  Biso   1.000  C
  C302     1.0000 0.81724  0.00800  0.39250  Biso   1.000  C
  C303     1.0000 0.68276  0.50800  0.10750  Biso   1.000  C
  C304     1.0000 0.31724  0.50800  0.39250  Biso   1.000  C
  H209     1.0000 0.81670  0.92790  0.89260  Biso   1.000  H
  H210     1.0000 0.18330  0.92790  0.60740  Biso   1.000  H
  H211     1.0000 0.31670  0.42790  0.89260  Biso   1.000  H
  H212     1.0000 0.68330  0.42790  0.60740  Biso   1.000  H
  H213     1.0000 0.18330  0.07210  0.10740  Biso   1.000  H
  H214     1.0000 0.81670  0.07210  0.39260  Biso   1.000  H
  H215     1.0000 0.68330  0.57210  0.10740  Biso   1.000  H
  H216     1.0000 0.31670  0.57210  0.39260  Biso   1.000  H
  C305     1.0000 0.69970  0.18540  0.86900  Biso   1.000  C
  C306     1.0000 0.30030  0.18540  0.63100  Biso   1.000  C
  C307     1.0000 0.19970  0.68540  0.86900  Biso   1.000  C
  C308     1.0000 0.80030  0.68540  0.63100  Biso   1.000  C
  C309     1.0000 0.30030  0.81460  0.13100  Biso   1.000  C
  C310     1.0000 0.69970  0.81460  0.36900  Biso   1.000  C
  C311     1.0000 0.80030  0.31460  0.13100  Biso   1.000  C
  C312     1.0000 0.19970  0.31460  0.36900  Biso   1.000  C
  H217     1.0000 0.70390  0.24750  0.85590  Biso   1.000  H
  H218     1.0000 0.29610  0.24750  0.64410  Biso   1.000  H
  H219     1.0000 0.20390  0.74750  0.85590  Biso   1.000  H
  H220     1.0000 0.79610  0.74750  0.64410  Biso   1.000  H
  H221     1.0000 0.29610  0.75250  0.14410  Biso   1.000  H
  H222     1.0000 0.70390  0.75250  0.35590  Biso   1.000  H
  H223     1.0000 0.79610  0.25250  0.14410  Biso   1.000  H
  H224     1.0000 0.20390  0.25250  0.35590  Biso   1.000  H
  H225     1.0000 0.66820  0.15530  0.83450  Biso   1.000  H
  H226     1.0000 0.33180  0.15530  0.66550  Biso   1.000  H
  H227     1.0000 0.16820  0.65530  0.83450  Biso   1.000  H
  H228     1.0000 0.83180  0.65530  0.66550  Biso   1.000  H
  H229     1.0000 0.33180  0.84470  0.16550  Biso   1.000  H
  H230     1.0000 0.66820  0.84470  0.33450  Biso   1.000  H
  H231     1.0000 0.83180  0.34470  0.16550  Biso   1.000  H
  H232     1.0000 0.16820  0.34470  0.33450  Biso   1.000  H
  C313     1.0000 0.68050  0.18470  0.92630  Biso   1.000  C
  C314     1.0000 0.31950  0.18470  0.57370  Biso   1.000  C
  C315     1.0000 0.18050  0.68470  0.92630  Biso   1.000  C
  C316     1.0000 0.81950  0.68470  0.57370  Biso   1.000  C
  C317     1.0000 0.31950  0.81530  0.07370  Biso   1.000  C
  C318     1.0000 0.68050  0.81530  0.42630  Biso   1.000  C
  C319     1.0000 0.81950  0.31530  0.07370  Biso   1.000  C
  C320     1.0000 0.18050  0.31530  0.42630  Biso   1.000  C
  H233     1.0000 0.64170  0.21640  0.91820  Biso   1.000  H
  H234     1.0000 0.35830  0.21640  0.58180  Biso   1.000  H
  H235     1.0000 0.14170  0.71640  0.91820  Biso   1.000  H
  H236     1.0000 0.85830  0.71640  0.58180  Biso   1.000  H
  H237     1.0000 0.35830  0.78360  0.08180  Biso   1.000  H
  H238     1.0000 0.64170  0.78360  0.41820  Biso   1.000  H
  H239     1.0000 0.85830  0.28360  0.08180  Biso   1.000  H
  H240     1.0000 0.14170  0.28360  0.41820  Biso   1.000  H
  H241     1.0000 0.71210  0.21520  0.96040  Biso   1.000  H
  H242     1.0000 0.28790  0.21520  0.53960  Biso   1.000  H
  H243     1.0000 0.21210  0.71520  0.96040  Biso   1.000  H
  H244     1.0000 0.78790  0.71520  0.53960  Biso   1.000  H
  H245     1.0000 0.28790  0.78480  0.03960  Biso   1.000  H
  H246     1.0000 0.71210  0.78480  0.46040  Biso   1.000  H
  H247     1.0000 0.78790  0.28480  0.03960  Biso   1.000  H
  H248     1.0000 0.21210  0.28480  0.46040  Biso   1.000  H
  H249     1.0000 0.67620  0.12230  0.93890  Biso   1.000  H
  H250     1.0000 0.32380  0.12230  0.56110  Biso   1.000  H
  H251     1.0000 0.17620  0.62230  0.93890  Biso   1.000  H
  H252     1.0000 0.82380  0.62230  0.56110  Biso   1.000  H
  H253     1.0000 0.32380  0.87770  0.06110  Biso   1.000  H
  H254     1.0000 0.67620  0.87770  0.43890  Biso   1.000  H
  H255     1.0000 0.82380  0.37770  0.06110  Biso   1.000  H
  H256     1.0000 0.17620  0.37770  0.43890  Biso   1.000  H
  C321     1.0000 0.81070  0.25630  0.09880  Biso   1.000  C
  C322     1.0000 0.18930  0.25630  0.40120  Biso   1.000  C
  C323     1.0000 0.31070  0.75630  0.09880  Biso   1.000  C
  C324     1.0000 0.68930  0.75630  0.40120  Biso   1.000  C
  C325     1.0000 0.18930  0.74370  0.90120  Biso   1.000  C
  C326     1.0000 0.81070  0.74370  0.59880  Biso   1.000  C
  C327     1.0000 0.68930  0.24370  0.90120  Biso   1.000  C
  C328     1.0000 0.31070  0.24370  0.59880  Biso   1.000  C
  H257     1.0000 0.80910  0.28620  0.17540  Biso   1.000  H
  H258     1.0000 0.19090  0.28620  0.32460  Biso   1.000  H
  H259     1.0000 0.30910  0.78620  0.17540  Biso   1.000  H
  H260     1.0000 0.69090  0.78620  0.32460  Biso   1.000  H
  H261     1.0000 0.19090  0.71380  0.82460  Biso   1.000  H
  H262     1.0000 0.80910  0.71380  0.67540  Biso   1.000  H
  H263     1.0000 0.69090  0.21380  0.82460  Biso   1.000  H
  H264     1.0000 0.30910  0.21380  0.67540  Biso   1.000  H
  H265     1.0000 0.83270  0.36210  0.14000  Biso   1.000  H
  H266     1.0000 0.16730  0.36210  0.36000  Biso   1.000  H
  H267     1.0000 0.33270  0.86210  0.14000  Biso   1.000  H
  H268     1.0000 0.66730  0.86210  0.36000  Biso   1.000  H
  H269     1.0000 0.16730  0.63790  0.86000  Biso   1.000  H
  H270     1.0000 0.83270  0.63790  0.64000  Biso   1.000  H
  H271     1.0000 0.66730  0.13790  0.86000  Biso   1.000  H
  H272     1.0000 0.33270  0.13790  0.64000  Biso   1.000  H
  H273     1.0000 0.85250  0.23440  0.11790  Biso   1.000  H
  H274     1.0000 0.14750  0.23440  0.38210  Biso   1.000  H
  H275     1.0000 0.35250  0.73440  0.11790  Biso   1.000  H
  H276     1.0000 0.64750  0.73440  0.38210  Biso   1.000  H
  H277     1.0000 0.14750  0.76560  0.88210  Biso   1.000  H
  H278     1.0000 0.85250  0.76560  0.61790  Biso   1.000  H
  H279     1.0000 0.64750  0.26560  0.88210  Biso   1.000  H
  H280     1.0000 0.35250  0.26560  0.61790  Biso   1.000  H
  H281     1.0000 0.78220  0.20590  0.09340  Biso   1.000  H
  H282     1.0000 0.21780  0.20590  0.40660  Biso   1.000  H
  H283     1.0000 0.28220  0.70590  0.09340  Biso   1.000  H
  H284     1.0000 0.71780  0.70590  0.40660  Biso   1.000  H
  H285     1.0000 0.21780  0.79410  0.90660  Biso   1.000  H
  H286     1.0000 0.78220  0.79410  0.59340  Biso   1.000  H
  H287     1.0000 0.71780  0.29410  0.90660  Biso   1.000  H
  H288     1.0000 0.28220  0.29410  0.59340  Biso   1.000  H
  H289     1.0000 0.80620  0.28330  0.05730  Biso   1.000  H
  H290     1.0000 0.19380  0.28330  0.44270  Biso   1.000  H
  H291     1.0000 0.30620  0.78330  0.05730  Biso   1.000  H
  H292     1.0000 0.69380  0.78330  0.44270  Biso   1.000  H
  H293     1.0000 0.19380  0.71670  0.94270  Biso   1.000  H
  H294     1.0000 0.80620  0.71670  0.55730  Biso   1.000  H
  H295     1.0000 0.69380  0.21670  0.94270  Biso   1.000  H
  H296     1.0000 0.30620  0.21670  0.55730  Biso   1.000  H
