data_image0
_cell_length_a       23.944
_cell_length_b       23.944
_cell_length_c       26.201
_cell_angle_alpha    90
_cell_angle_beta     90
_cell_angle_gamma    90

_symmetry_space_group_name_H-M    "P 1"
_symmetry_int_tables_number       1

loop_
  _symmetry_equiv_pos_as_xyz
  'x, y, z'

loop_
  _atom_site_label
  _atom_site_occupancy
  _atom_site_fract_x
  _atom_site_fract_y
  _atom_site_fract_z
  _atom_site_thermal_displace_type
  _atom_site_B_iso_or_equiv
  _atom_site_type_symbol
  B1       1.0000 0.75800  0.20520  0.50220  Biso   1.000  B
  B2       1.0000 0.24200  0.79480  0.00220  Biso   1.000  B
  B3       1.0000 0.29480  0.25800  0.25220  Biso   1.000  B
  B4       1.0000 0.70520  0.74200  0.75220  Biso   1.000  B
  B5       1.0000 0.74200  0.70520  0.24780  Biso   1.000  B
  B6       1.0000 0.25800  0.29480  0.74780  Biso   1.000  B
  B7       1.0000 0.20520  0.75800  0.49780  Biso   1.000  B
  B8       1.0000 0.79480  0.24200  0.99780  Biso   1.000  B
  W1       1.0000 0.64525  0.15166  0.56934  Biso   1.000  W
  W2       1.0000 0.35475  0.84834  0.06934  Biso   1.000  W
  W3       1.0000 0.34834  0.14525  0.31934  Biso   1.000  W
  W4       1.0000 0.65166  0.85475  0.81934  Biso   1.000  W
  W5       1.0000 0.85475  0.65166  0.18066  Biso   1.000  W
  W6       1.0000 0.14525  0.34834  0.68066  Biso   1.000  W
  W7       1.0000 0.15166  0.64525  0.43066  Biso   1.000  W
  W8       1.0000 0.84834  0.35475  0.93066  Biso   1.000  W
  W9       1.0000 0.61858  0.23842  0.47258  Biso   1.000  W
  W10      1.0000 0.38142  0.76158  0.97258  Biso   1.000  W
  W11      1.0000 0.26158  0.11858  0.22258  Biso   1.000  W
  W12      1.0000 0.73842  0.88142  0.72258  Biso   1.000  W
  W13      1.0000 0.88142  0.73842  0.27742  Biso   1.000  W
  W14      1.0000 0.11858  0.26158  0.77742  Biso   1.000  W
  W15      1.0000 0.23842  0.61858  0.52742  Biso   1.000  W
  W16      1.0000 0.76158  0.38142  0.02742  Biso   1.000  W
  W17      1.0000 0.73368  0.29161  0.39540  Biso   1.000  W
  W18      1.0000 0.26632  0.70839  0.89540  Biso   1.000  W
  W19      1.0000 0.20839  0.23368  0.14540  Biso   1.000  W
  W20      1.0000 0.79161  0.76632  0.64540  Biso   1.000  W
  W21      1.0000 0.76632  0.79161  0.35460  Biso   1.000  W
  W22      1.0000 0.23368  0.20839  0.85460  Biso   1.000  W
  W23      1.0000 0.29161  0.73368  0.60460  Biso   1.000  W
  W24      1.0000 0.70839  0.26632  0.10460  Biso   1.000  W
  W25      1.0000 0.84171  0.30824  0.55789  Biso   1.000  W
  W26      1.0000 0.15829  0.69176  0.05789  Biso   1.000  W
  W27      1.0000 0.19176  0.34171  0.30789  Biso   1.000  W
  W28      1.0000 0.80824  0.65829  0.80789  Biso   1.000  W
  W29      1.0000 0.65829  0.80824  0.19211  Biso   1.000  W
  W30      1.0000 0.34171  0.19176  0.69211  Biso   1.000  W
  W31      1.0000 0.30824  0.84171  0.44211  Biso   1.000  W
  W32      1.0000 0.69176  0.15829  0.94211  Biso   1.000  W
  W33      1.0000 0.71343  0.34235  0.52557  Biso   1.000  W
  W34      1.0000 0.28657  0.65765  0.02557  Biso   1.000  W
  W35      1.0000 0.15765  0.21343  0.27557  Biso   1.000  W
  W36      1.0000 0.84235  0.78657  0.77557  Biso   1.000  W
  W37      1.0000 0.78657  0.84235  0.22443  Biso   1.000  W
  W38      1.0000 0.21343  0.15765  0.72443  Biso   1.000  W
  W39      1.0000 0.34235  0.71343  0.47443  Biso   1.000  W
  W40      1.0000 0.65765  0.28657  0.97443  Biso   1.000  W
  W41      1.0000 0.73575  0.25870  0.62509  Biso   1.000  W
  W42      1.0000 0.26425  0.74130  0.12509  Biso   1.000  W
  W43      1.0000 0.24130  0.23575  0.37509  Biso   1.000  W
  W44      1.0000 0.75870  0.76425  0.87509  Biso   1.000  W
  W45      1.0000 0.76425  0.75870  0.12491  Biso   1.000  W
  W46      1.0000 0.23575  0.24130  0.62491  Biso   1.000  W
  W47      1.0000 0.25870  0.73575  0.37491  Biso   1.000  W
  W48      1.0000 0.74130  0.26425  0.87491  Biso   1.000  W
  W49      1.0000 0.89210  0.16652  0.53245  Biso   1.000  W
  W50      1.0000 0.10790  0.83348  0.03245  Biso   1.000  W
  W51      1.0000 0.33348  0.39210  0.28245  Biso   1.000  W
  W52      1.0000 0.66652  0.60790  0.78245  Biso   1.000  W
  W53      1.0000 0.60790  0.66652  0.21755  Biso   1.000  W
  W54      1.0000 0.39210  0.33348  0.71755  Biso   1.000  W
  W55      1.0000 0.16652  0.89210  0.46755  Biso   1.000  W
  W56      1.0000 0.83348  0.10790  0.96755  Biso   1.000  W
  W57      1.0000 0.78878  0.11775  0.60359  Biso   1.000  W
  W58      1.0000 0.21122  0.88225  0.10359  Biso   1.000  W
  W59      1.0000 0.38225  0.28878  0.35359  Biso   1.000  W
  W60      1.0000 0.61775  0.71122  0.85359  Biso   1.000  W
  W61      1.0000 0.71122  0.61775  0.14641  Biso   1.000  W
  W62      1.0000 0.28878  0.38225  0.64641  Biso   1.000  W
  W63      1.0000 0.11775  0.78878  0.39641  Biso   1.000  W
  W64      1.0000 0.88225  0.21122  0.89641  Biso   1.000  W
  W65      1.0000 0.66474  0.11128  0.44987  Biso   1.000  W
  W66      1.0000 0.33526  0.88872  0.94987  Biso   1.000  W
  W67      1.0000 0.38872  0.16474  0.19987  Biso   1.000  W
  W68      1.0000 0.61128  0.83526  0.69987  Biso   1.000  W
  W69      1.0000 0.83526  0.61128  0.30013  Biso   1.000  W
  W70      1.0000 0.16474  0.38872  0.80013  Biso   1.000  W
  W71      1.0000 0.11128  0.66474  0.55013  Biso   1.000  W
  W72      1.0000 0.88872  0.33526  0.05013  Biso   1.000  W
  W73      1.0000 0.80734  0.07108  0.48539  Biso   1.000  W
  W74      1.0000 0.19266  0.92892  0.98539  Biso   1.000  W
  W75      1.0000 0.42892  0.30734  0.23539  Biso   1.000  W
  W76      1.0000 0.57108  0.69266  0.73539  Biso   1.000  W
  W77      1.0000 0.69266  0.57108  0.26461  Biso   1.000  W
  W78      1.0000 0.30734  0.42892  0.76461  Biso   1.000  W
  W79      1.0000 0.07108  0.80734  0.51461  Biso   1.000  W
  W80      1.0000 0.92892  0.19266  0.01461  Biso   1.000  W
  W81      1.0000 0.86416  0.26162  0.42660  Biso   1.000  W
  W82      1.0000 0.13584  0.73838  0.92660  Biso   1.000  W
  W83      1.0000 0.23838  0.36416  0.17660  Biso   1.000  W
  W84      1.0000 0.76162  0.63584  0.67660  Biso   1.000  W
  W85      1.0000 0.63584  0.76162  0.32340  Biso   1.000  W
  W86      1.0000 0.36416  0.23838  0.82340  Biso   1.000  W
  W87      1.0000 0.26162  0.86416  0.57340  Biso   1.000  W
  W88      1.0000 0.73838  0.13584  0.07340  Biso   1.000  W
  W89      1.0000 0.78278  0.16381  0.37672  Biso   1.000  W
  W90      1.0000 0.21722  0.83619  0.87672  Biso   1.000  W
  W91      1.0000 0.33619  0.28278  0.12672  Biso   1.000  W
  W92      1.0000 0.66381  0.71722  0.62672  Biso   1.000  W
  W93      1.0000 0.71722  0.66381  0.37328  Biso   1.000  W
  W94      1.0000 0.28278  0.33619  0.87328  Biso   1.000  W
  W95      1.0000 0.16381  0.78278  0.62328  Biso   1.000  W
  W96      1.0000 0.83619  0.21722  0.12328  Biso   1.000  W
  K1       1.0000 0.49304  0.05112  0.40508  Biso   1.000  K
  K2       1.0000 0.50696  0.94888  0.90508  Biso   1.000  K
  K3       1.0000 0.44888  0.99304  0.15508  Biso   1.000  K
  K4       1.0000 0.55112  0.00696  0.65508  Biso   1.000  K
  K5       1.0000 0.00696  0.55112  0.34492  Biso   1.000  K
  K6       1.0000 0.99304  0.44888  0.84492  Biso   1.000  K
  K7       1.0000 0.05112  0.49304  0.59492  Biso   1.000  K
  K8       1.0000 0.94888  0.50696  0.09492  Biso   1.000  K
  Cu1      1.0000 0.34164  0.99436  0.39080  Biso   1.000  Cu
  Cu2      1.0000 0.65836  0.00564  0.89080  Biso   1.000  Cu
  Cu3      1.0000 0.50564  0.84164  0.14080  Biso   1.000  Cu
  Cu4      1.0000 0.49436  0.15836  0.64080  Biso   1.000  Cu
  Cu5      1.0000 0.15836  0.49436  0.35920  Biso   1.000  Cu
  Cu6      1.0000 0.84164  0.50564  0.85920  Biso   1.000  Cu
  Cu7      1.0000 0.99436  0.34164  0.60920  Biso   1.000  Cu
  Cu8      1.0000 0.00564  0.65836  0.10920  Biso   1.000  Cu
  Cu9      1.0000 0.50160  0.96967  0.28140  Biso   1.000  Cu
  Cu10     1.0000 0.49840  0.03033  0.78140  Biso   1.000  Cu
  Cu11     1.0000 0.53033  0.00160  0.03140  Biso   1.000  Cu
  Cu12     1.0000 0.46967  0.99840  0.53140  Biso   1.000  Cu
  Cu13     1.0000 0.99840  0.46967  0.46860  Biso   1.000  Cu
  Cu14     1.0000 0.00160  0.53033  0.96860  Biso   1.000  Cu
  Cu15     1.0000 0.96967  0.50160  0.71860  Biso   1.000  Cu
  Cu16     1.0000 0.03033  0.49840  0.21860  Biso   1.000  Cu
  Cu17     1.0000 0.62601  0.95284  0.42219  Biso   1.000  Cu
  Cu18     1.0000 0.37399  0.04716  0.92219  Biso   1.000  Cu
  Cu19     1.0000 0.54716  0.12601  0.17219  Biso   1.000  Cu
  Cu20     1.0000 0.45284  0.87399  0.67219  Biso   1.000  Cu
  Cu21     1.0000 0.87399  0.45284  0.32781  Biso   1.000  Cu
  Cu22     1.0000 0.12601  0.54716  0.82781  Biso   1.000  Cu
  Cu23     1.0000 0.95284  0.62601  0.57781  Biso   1.000  Cu
  Cu24     1.0000 0.04716  0.37399  0.07781  Biso   1.000  Cu
  O1       1.0000 0.69790  0.18480  0.49870  Biso   1.000  O
  O2       1.0000 0.30210  0.81520  0.99870  Biso   1.000  O
  O3       1.0000 0.31520  0.19790  0.24870  Biso   1.000  O
  O4       1.0000 0.68480  0.80210  0.74870  Biso   1.000  O
  O5       1.0000 0.80210  0.68480  0.25130  Biso   1.000  O
  O6       1.0000 0.19790  0.31520  0.75130  Biso   1.000  O
  O7       1.0000 0.18480  0.69790  0.50130  Biso   1.000  O
  O8       1.0000 0.81520  0.30210  0.00130  Biso   1.000  O
  O9       1.0000 0.79540  0.16170  0.52130  Biso   1.000  O
  O10      1.0000 0.20460  0.83830  0.02130  Biso   1.000  O
  O11      1.0000 0.33830  0.29540  0.27130  Biso   1.000  O
  O12      1.0000 0.66170  0.70460  0.77130  Biso   1.000  O
  O13      1.0000 0.70460  0.66170  0.22870  Biso   1.000  O
  O14      1.0000 0.29540  0.33830  0.72870  Biso   1.000  O
  O15      1.0000 0.16170  0.79540  0.47870  Biso   1.000  O
  O16      1.0000 0.83830  0.20460  0.97870  Biso   1.000  O
  O17      1.0000 0.76180  0.25730  0.53630  Biso   1.000  O
  O18      1.0000 0.23820  0.74270  0.03630  Biso   1.000  O
  O19      1.0000 0.24270  0.26180  0.28630  Biso   1.000  O
  O20      1.0000 0.75730  0.73820  0.78630  Biso   1.000  O
  O21      1.0000 0.73820  0.75730  0.21370  Biso   1.000  O
  O22      1.0000 0.26180  0.24270  0.71370  Biso   1.000  O
  O23      1.0000 0.25730  0.76180  0.46370  Biso   1.000  O
  O24      1.0000 0.74270  0.23820  0.96370  Biso   1.000  O
  O25      1.0000 0.77690  0.22420  0.44670  Biso   1.000  O
  O26      1.0000 0.22310  0.77580  0.94670  Biso   1.000  O
  O27      1.0000 0.27580  0.27690  0.19670  Biso   1.000  O
  O28      1.0000 0.72420  0.72310  0.69670  Biso   1.000  O
  O29      1.0000 0.72310  0.72420  0.30330  Biso   1.000  O
  O30      1.0000 0.27690  0.27580  0.80330  Biso   1.000  O
  O31      1.0000 0.22420  0.77690  0.55330  Biso   1.000  O
  O32      1.0000 0.77580  0.22310  0.05330  Biso   1.000  O
  O33      1.0000 0.72920  0.07120  0.47530  Biso   1.000  O
  O34      1.0000 0.27080  0.92880  0.97530  Biso   1.000  O
  O35      1.0000 0.42880  0.22920  0.22530  Biso   1.000  O
  O36      1.0000 0.57120  0.77080  0.72530  Biso   1.000  O
  O37      1.0000 0.77080  0.57120  0.27470  Biso   1.000  O
  O38      1.0000 0.22920  0.42880  0.77470  Biso   1.000  O
  O39      1.0000 0.07120  0.72920  0.52470  Biso   1.000  O
  O40      1.0000 0.92880  0.27080  0.02470  Biso   1.000  O
  O41      1.0000 0.77670  0.18970  0.62870  Biso   1.000  O
  O42      1.0000 0.22330  0.81030  0.12870  Biso   1.000  O
  O43      1.0000 0.31030  0.27670  0.37870  Biso   1.000  O
  O44      1.0000 0.68970  0.72330  0.87870  Biso   1.000  O
  O45      1.0000 0.72330  0.68970  0.12130  Biso   1.000  O
  O46      1.0000 0.27670  0.31030  0.62130  Biso   1.000  O
  O47      1.0000 0.18970  0.77670  0.37130  Biso   1.000  O
  O48      1.0000 0.81030  0.22330  0.87130  Biso   1.000  O
  O49      1.0000 0.66570  0.26190  0.41740  Biso   1.000  O
  O50      1.0000 0.33430  0.73810  0.91740  Biso   1.000  O
  O51      1.0000 0.23810  0.16570  0.16740  Biso   1.000  O
  O52      1.0000 0.76190  0.83430  0.66740  Biso   1.000  O
  O53      1.0000 0.83430  0.76190  0.33260  Biso   1.000  O
  O54      1.0000 0.16570  0.23810  0.83260  Biso   1.000  O
  O55      1.0000 0.26190  0.66570  0.58260  Biso   1.000  O
  O56      1.0000 0.73810  0.33430  0.08260  Biso   1.000  O
  O57      1.0000 0.74580  0.23020  0.35190  Biso   1.000  O
  O58      1.0000 0.25420  0.76980  0.85190  Biso   1.000  O
  O59      1.0000 0.26980  0.24580  0.10190  Biso   1.000  O
  O60      1.0000 0.73020  0.75420  0.60190  Biso   1.000  O
  O61      1.0000 0.75420  0.73020  0.39810  Biso   1.000  O
  O62      1.0000 0.24580  0.26980  0.89810  Biso   1.000  O
  O63      1.0000 0.23020  0.74580  0.64810  Biso   1.000  O
  O64      1.0000 0.76980  0.25420  0.14810  Biso   1.000  O
  O65      1.0000 0.67520  0.21460  0.60490  Biso   1.000  O
  O66      1.0000 0.32480  0.78540  0.10490  Biso   1.000  O
  O67      1.0000 0.28540  0.17520  0.35490  Biso   1.000  O
  O68      1.0000 0.71460  0.82480  0.85490  Biso   1.000  O
  O69      1.0000 0.82480  0.71460  0.14510  Biso   1.000  O
  O70      1.0000 0.17520  0.28540  0.64510  Biso   1.000  O
  O71      1.0000 0.21460  0.67520  0.39510  Biso   1.000  O
  O72      1.0000 0.78540  0.32480  0.89510  Biso   1.000  O
  O73      1.0000 0.85720  0.30480  0.48690  Biso   1.000  O
  O74      1.0000 0.14280  0.69520  0.98690  Biso   1.000  O
  O75      1.0000 0.19520  0.35720  0.23690  Biso   1.000  O
  O76      1.0000 0.80480  0.64280  0.73690  Biso   1.000  O
  O77      1.0000 0.64280  0.80480  0.26310  Biso   1.000  O
  O78      1.0000 0.35720  0.19520  0.76310  Biso   1.000  O
  O79      1.0000 0.30480  0.85720  0.51310  Biso   1.000  O
  O80      1.0000 0.69520  0.14280  0.01310  Biso   1.000  O
  O81      1.0000 0.61100  0.16760  0.43920  Biso   1.000  O
  O82      1.0000 0.38900  0.83240  0.93920  Biso   1.000  O
  O83      1.0000 0.33240  0.11100  0.18920  Biso   1.000  O
  O84      1.0000 0.66760  0.88900  0.68920  Biso   1.000  O
  O85      1.0000 0.88900  0.66760  0.31080  Biso   1.000  O
  O86      1.0000 0.11100  0.33240  0.81080  Biso   1.000  O
  O87      1.0000 0.16760  0.61100  0.56080  Biso   1.000  O
  O88      1.0000 0.83240  0.38900  0.06080  Biso   1.000  O
  O89      1.0000 0.89440  0.20350  0.46830  Biso   1.000  O
  O90      1.0000 0.10560  0.79650  0.96830  Biso   1.000  O
  O91      1.0000 0.29650  0.39440  0.21830  Biso   1.000  O
  O92      1.0000 0.70350  0.60560  0.71830  Biso   1.000  O
  O93      1.0000 0.60560  0.70350  0.28170  Biso   1.000  O
  O94      1.0000 0.39440  0.29650  0.78170  Biso   1.000  O
  O95      1.0000 0.20350  0.89440  0.53170  Biso   1.000  O
  O96      1.0000 0.79650  0.10560  0.03170  Biso   1.000  O
  O97      1.0000 0.59490  0.20210  0.53410  Biso   1.000  O
  O98      1.0000 0.40510  0.79790  0.03410  Biso   1.000  O
  O99      1.0000 0.29790  0.09490  0.28410  Biso   1.000  O
  O100     1.0000 0.70210  0.90510  0.78410  Biso   1.000  O
  O101     1.0000 0.90510  0.70210  0.21590  Biso   1.000  O
  O102     1.0000 0.09490  0.29790  0.71590  Biso   1.000  O
  O103     1.0000 0.20210  0.59490  0.46590  Biso   1.000  O
  O104     1.0000 0.79790  0.40510  0.96590  Biso   1.000  O
  O105     1.0000 0.81360  0.11110  0.42040  Biso   1.000  O
  O106     1.0000 0.18640  0.88890  0.92040  Biso   1.000  O
  O107     1.0000 0.38890  0.31360  0.17040  Biso   1.000  O
  O108     1.0000 0.61110  0.68640  0.67040  Biso   1.000  O
  O109     1.0000 0.68640  0.61110  0.32960  Biso   1.000  O
  O110     1.0000 0.31360  0.38890  0.82960  Biso   1.000  O
  O111     1.0000 0.11110  0.81360  0.57960  Biso   1.000  O
  O112     1.0000 0.88890  0.18640  0.07960  Biso   1.000  O
  O113     1.0000 0.88300  0.09620  0.49990  Biso   1.000  O
  O114     1.0000 0.11700  0.90380  0.99990  Biso   1.000  O
  O115     1.0000 0.40380  0.38300  0.24990  Biso   1.000  O
  O116     1.0000 0.59620  0.61700  0.74990  Biso   1.000  O
  O117     1.0000 0.61700  0.59620  0.25010  Biso   1.000  O
  O118     1.0000 0.38300  0.40380  0.75010  Biso   1.000  O
  O119     1.0000 0.09620  0.88300  0.50010  Biso   1.000  O
  O120     1.0000 0.90380  0.11700  0.00010  Biso   1.000  O
  O121     1.0000 0.80580  0.29520  0.62080  Biso   1.000  O
  O122     1.0000 0.19420  0.70480  0.12080  Biso   1.000  O
  O123     1.0000 0.20480  0.30580  0.37080  Biso   1.000  O
  O124     1.0000 0.79520  0.69420  0.87080  Biso   1.000  O
  O125     1.0000 0.69420  0.79520  0.12920  Biso   1.000  O
  O126     1.0000 0.30580  0.20480  0.62920  Biso   1.000  O
  O127     1.0000 0.29520  0.80580  0.37920  Biso   1.000  O
  O128     1.0000 0.70480  0.19420  0.87920  Biso   1.000  O
  O129     1.0000 0.79780  0.05720  0.55680  Biso   1.000  O
  O130     1.0000 0.20220  0.94280  0.05680  Biso   1.000  O
  O131     1.0000 0.44280  0.29780  0.30680  Biso   1.000  O
  O132     1.0000 0.55720  0.70220  0.80680  Biso   1.000  O
  O133     1.0000 0.70220  0.55720  0.19320  Biso   1.000  O
  O134     1.0000 0.29780  0.44280  0.69320  Biso   1.000  O
  O135     1.0000 0.05720  0.79780  0.44320  Biso   1.000  O
  O136     1.0000 0.94280  0.20220  0.94320  Biso   1.000  O
  O137     1.0000 0.71100  0.13970  0.39880  Biso   1.000  O
  O138     1.0000 0.28900  0.86030  0.89880  Biso   1.000  O
  O139     1.0000 0.36030  0.21100  0.14880  Biso   1.000  O
  O140     1.0000 0.63970  0.78900  0.64880  Biso   1.000  O
  O141     1.0000 0.78900  0.63970  0.35120  Biso   1.000  O
  O142     1.0000 0.21100  0.36030  0.85120  Biso   1.000  O
  O143     1.0000 0.13970  0.71100  0.60120  Biso   1.000  O
  O144     1.0000 0.86030  0.28900  0.10120  Biso   1.000  O
  O145     1.0000 0.63260  0.09930  0.51630  Biso   1.000  O
  O146     1.0000 0.36740  0.90070  0.01630  Biso   1.000  O
  O147     1.0000 0.40070  0.13260  0.26630  Biso   1.000  O
  O148     1.0000 0.59930  0.86740  0.76630  Biso   1.000  O
  O149     1.0000 0.86740  0.59930  0.23370  Biso   1.000  O
  O150     1.0000 0.13260  0.40070  0.73370  Biso   1.000  O
  O151     1.0000 0.09930  0.63260  0.48370  Biso   1.000  O
  O152     1.0000 0.90070  0.36740  0.98370  Biso   1.000  O
  O153     1.0000 0.87570  0.23690  0.56150  Biso   1.000  O
  O154     1.0000 0.12430  0.76310  0.06150  Biso   1.000  O
  O155     1.0000 0.26310  0.37570  0.31150  Biso   1.000  O
  O156     1.0000 0.73690  0.62430  0.81150  Biso   1.000  O
  O157     1.0000 0.62430  0.73690  0.18850  Biso   1.000  O
  O158     1.0000 0.37570  0.26310  0.68850  Biso   1.000  O
  O159     1.0000 0.23690  0.87570  0.43850  Biso   1.000  O
  O160     1.0000 0.76310  0.12430  0.93850  Biso   1.000  O
  O161     1.0000 0.73360  0.33650  0.45680  Biso   1.000  O
  O162     1.0000 0.26640  0.66350  0.95680  Biso   1.000  O
  O163     1.0000 0.16350  0.23360  0.20680  Biso   1.000  O
  O164     1.0000 0.83650  0.76640  0.70680  Biso   1.000  O
  O165     1.0000 0.76640  0.83650  0.29320  Biso   1.000  O
  O166     1.0000 0.23360  0.16350  0.79320  Biso   1.000  O
  O167     1.0000 0.33650  0.73360  0.54320  Biso   1.000  O
  O168     1.0000 0.66350  0.26640  0.04320  Biso   1.000  O
  O169     1.0000 0.70270  0.32420  0.59680  Biso   1.000  O
  O170     1.0000 0.29730  0.67580  0.09680  Biso   1.000  O
  O171     1.0000 0.17580  0.20270  0.34680  Biso   1.000  O
  O172     1.0000 0.82420  0.79730  0.84680  Biso   1.000  O
  O173     1.0000 0.79730  0.82420  0.15320  Biso   1.000  O
  O174     1.0000 0.20270  0.17580  0.65320  Biso   1.000  O
  O175     1.0000 0.32420  0.70270  0.40320  Biso   1.000  O
  O176     1.0000 0.67580  0.29730  0.90320  Biso   1.000  O
  O177     1.0000 0.78730  0.36480  0.54320  Biso   1.000  O
  O178     1.0000 0.21270  0.63520  0.04320  Biso   1.000  O
  O179     1.0000 0.13520  0.28730  0.29320  Biso   1.000  O
  O180     1.0000 0.86480  0.71270  0.79320  Biso   1.000  O
  O181     1.0000 0.71270  0.86480  0.20680  Biso   1.000  O
  O182     1.0000 0.28730  0.13520  0.70680  Biso   1.000  O
  O183     1.0000 0.36480  0.78730  0.45680  Biso   1.000  O
  O184     1.0000 0.63520  0.21270  0.95680  Biso   1.000  O
  O185     1.0000 0.84990  0.20470  0.37610  Biso   1.000  O
  O186     1.0000 0.15010  0.79530  0.87610  Biso   1.000  O
  O187     1.0000 0.29530  0.34990  0.12610  Biso   1.000  O
  O188     1.0000 0.70470  0.65010  0.62610  Biso   1.000  O
  O189     1.0000 0.65010  0.70470  0.37390  Biso   1.000  O
  O190     1.0000 0.34990  0.29530  0.87390  Biso   1.000  O
  O191     1.0000 0.20470  0.84990  0.62390  Biso   1.000  O
  O192     1.0000 0.79530  0.15010  0.12390  Biso   1.000  O
  O193     1.0000 0.81250  0.30830  0.39170  Biso   1.000  O
  O194     1.0000 0.18750  0.69170  0.89170  Biso   1.000  O
  O195     1.0000 0.19170  0.31250  0.14170  Biso   1.000  O
  O196     1.0000 0.80830  0.68750  0.64170  Biso   1.000  O
  O197     1.0000 0.68750  0.80830  0.35830  Biso   1.000  O
  O198     1.0000 0.31250  0.19170  0.85830  Biso   1.000  O
  O199     1.0000 0.30830  0.81250  0.60830  Biso   1.000  O
  O200     1.0000 0.69170  0.18750  0.10830  Biso   1.000  O
  O201     1.0000 0.70980  0.11280  0.58890  Biso   1.000  O
  O202     1.0000 0.29020  0.88720  0.08890  Biso   1.000  O
  O203     1.0000 0.38720  0.20980  0.33890  Biso   1.000  O
  O204     1.0000 0.61280  0.79020  0.83890  Biso   1.000  O
  O205     1.0000 0.79020  0.61280  0.16110  Biso   1.000  O
  O206     1.0000 0.20980  0.38720  0.66110  Biso   1.000  O
  O207     1.0000 0.11280  0.70980  0.41110  Biso   1.000  O
  O208     1.0000 0.88720  0.29020  0.91110  Biso   1.000  O
  O209     1.0000 0.64940  0.29710  0.51140  Biso   1.000  O
  O210     1.0000 0.35060  0.70290  0.01140  Biso   1.000  O
  O211     1.0000 0.20290  0.14940  0.26140  Biso   1.000  O
  O212     1.0000 0.79710  0.85060  0.76140  Biso   1.000  O
  O213     1.0000 0.85060  0.79710  0.23860  Biso   1.000  O
  O214     1.0000 0.14940  0.20290  0.73860  Biso   1.000  O
  O215     1.0000 0.29710  0.64940  0.48860  Biso   1.000  O
  O216     1.0000 0.70290  0.35060  0.98860  Biso   1.000  O
  O217     1.0000 0.96300  0.16420  0.54520  Biso   1.000  O
  O218     1.0000 0.03700  0.83580  0.04520  Biso   1.000  O
  O219     1.0000 0.33580  0.46300  0.29520  Biso   1.000  O
  O220     1.0000 0.66420  0.53700  0.79520  Biso   1.000  O
  O221     1.0000 0.53700  0.66420  0.20480  Biso   1.000  O
  O222     1.0000 0.46300  0.33580  0.70480  Biso   1.000  O
  O223     1.0000 0.16420  0.96300  0.45480  Biso   1.000  O
  O224     1.0000 0.83580  0.03700  0.95480  Biso   1.000  O
  O225     1.0000 0.63260  0.05940  0.41690  Biso   1.000  O
  O226     1.0000 0.36740  0.94060  0.91690  Biso   1.000  O
  O227     1.0000 0.44060  0.13260  0.16690  Biso   1.000  O
  O228     1.0000 0.55940  0.86740  0.66690  Biso   1.000  O
  O229     1.0000 0.86740  0.55940  0.33310  Biso   1.000  O
  O230     1.0000 0.13260  0.44060  0.83310  Biso   1.000  O
  O231     1.0000 0.05940  0.63260  0.58310  Biso   1.000  O
  O232     1.0000 0.94060  0.36740  0.08310  Biso   1.000  O
  O233     1.0000 0.34770  0.89550  0.42200  Biso   1.000  O
  O234     1.0000 0.65230  0.10450  0.92200  Biso   1.000  O
  O235     1.0000 0.60450  0.84770  0.17200  Biso   1.000  O
  O236     1.0000 0.39550  0.15230  0.67200  Biso   1.000  O
  O237     1.0000 0.15230  0.39550  0.32800  Biso   1.000  O
  O238     1.0000 0.84770  0.60450  0.82800  Biso   1.000  O
  O239     1.0000 0.89550  0.34770  0.57800  Biso   1.000  O
  O240     1.0000 0.10450  0.65230  0.07800  Biso   1.000  O
  O241     1.0000 0.79090  0.07930  0.65660  Biso   1.000  O
  O242     1.0000 0.20910  0.92070  0.15660  Biso   1.000  O
  O243     1.0000 0.42070  0.29090  0.40660  Biso   1.000  O
  O244     1.0000 0.57930  0.70910  0.90660  Biso   1.000  O
  O245     1.0000 0.70910  0.57930  0.09340  Biso   1.000  O
  O246     1.0000 0.29090  0.42070  0.59340  Biso   1.000  O
  O247     1.0000 0.07930  0.79090  0.34340  Biso   1.000  O
  O248     1.0000 0.92070  0.20910  0.84340  Biso   1.000  O
  O249     1.0000 0.59820  0.12720  0.61330  Biso   1.000  O
  O250     1.0000 0.40180  0.87280  0.11330  Biso   1.000  O
  O251     1.0000 0.37280  0.09820  0.36330  Biso   1.000  O
  O252     1.0000 0.62720  0.90180  0.86330  Biso   1.000  O
  O253     1.0000 0.90180  0.62720  0.13670  Biso   1.000  O
  O254     1.0000 0.09820  0.37280  0.63670  Biso   1.000  O
  O255     1.0000 0.12720  0.59820  0.38670  Biso   1.000  O
  O256     1.0000 0.87280  0.40180  0.88670  Biso   1.000  O
  O257     1.0000 0.68330  0.40690  0.52690  Biso   1.000  O
  O258     1.0000 0.31670  0.59310  0.02690  Biso   1.000  O
  O259     1.0000 0.09310  0.18330  0.27690  Biso   1.000  O
  O260     1.0000 0.90690  0.81670  0.77690  Biso   1.000  O
  O261     1.0000 0.81670  0.90690  0.22310  Biso   1.000  O
  O262     1.0000 0.18330  0.09310  0.72310  Biso   1.000  O
  O263     1.0000 0.40690  0.68330  0.47310  Biso   1.000  O
  O264     1.0000 0.59310  0.31670  0.97310  Biso   1.000  O
  O265     1.0000 0.82240  0.00490  0.46490  Biso   1.000  O
  O266     1.0000 0.17760  0.99510  0.96490  Biso   1.000  O
  O267     1.0000 0.49510  0.32240  0.21490  Biso   1.000  O
  O268     1.0000 0.50490  0.67760  0.71490  Biso   1.000  O
  O269     1.0000 0.67760  0.50490  0.28510  Biso   1.000  O
  O270     1.0000 0.32240  0.49510  0.78510  Biso   1.000  O
  O271     1.0000 0.00490  0.82240  0.53510  Biso   1.000  O
  O272     1.0000 0.99510  0.17760  0.03510  Biso   1.000  O
  O273     1.0000 0.78940  0.12920  0.32040  Biso   1.000  O
  O274     1.0000 0.21060  0.87080  0.82040  Biso   1.000  O
  O275     1.0000 0.37080  0.28940  0.07040  Biso   1.000  O
  O276     1.0000 0.62920  0.71060  0.57040  Biso   1.000  O
  O277     1.0000 0.71060  0.62920  0.42960  Biso   1.000  O
  O278     1.0000 0.28940  0.37080  0.92960  Biso   1.000  O
  O279     1.0000 0.12920  0.78940  0.67960  Biso   1.000  O
  O280     1.0000 0.87080  0.21060  0.17960  Biso   1.000  O
  O281     1.0000 0.71890  0.27030  0.68770  Biso   1.000  O
  O282     1.0000 0.28110  0.72970  0.18770  Biso   1.000  O
  O283     1.0000 0.22970  0.21890  0.43770  Biso   1.000  O
  O284     1.0000 0.77030  0.78110  0.93770  Biso   1.000  O
  O285     1.0000 0.78110  0.77030  0.06230  Biso   1.000  O
  O286     1.0000 0.21890  0.22970  0.56230  Biso   1.000  O
  O287     1.0000 0.27030  0.71890  0.31230  Biso   1.000  O
  O288     1.0000 0.72970  0.28110  0.81230  Biso   1.000  O
  O289     1.0000 0.86500  0.13200  0.59490  Biso   1.000  O
  O290     1.0000 0.13500  0.86800  0.09490  Biso   1.000  O
  O291     1.0000 0.36800  0.36500  0.34490  Biso   1.000  O
  O292     1.0000 0.63200  0.63500  0.84490  Biso   1.000  O
  O293     1.0000 0.63500  0.63200  0.15510  Biso   1.000  O
  O294     1.0000 0.36500  0.36800  0.65510  Biso   1.000  O
  O295     1.0000 0.13200  0.86500  0.40510  Biso   1.000  O
  O296     1.0000 0.86800  0.13500  0.90510  Biso   1.000  O
  O297     1.0000 0.92530  0.28630  0.40270  Biso   1.000  O
  O298     1.0000 0.07470  0.71370  0.90270  Biso   1.000  O
  O299     1.0000 0.21370  0.42530  0.15270  Biso   1.000  O
  O300     1.0000 0.78630  0.57470  0.65270  Biso   1.000  O
  O301     1.0000 0.57470  0.78630  0.34730  Biso   1.000  O
  O302     1.0000 0.42530  0.21370  0.84730  Biso   1.000  O
  O303     1.0000 0.28630  0.92530  0.59730  Biso   1.000  O
  O304     1.0000 0.71370  0.07470  0.09730  Biso   1.000  O
  O305     1.0000 0.55720  0.26720  0.45550  Biso   1.000  O
  O306     1.0000 0.44280  0.73280  0.95550  Biso   1.000  O
  O307     1.0000 0.23280  0.05720  0.20550  Biso   1.000  O
  O308     1.0000 0.76720  0.94280  0.70550  Biso   1.000  O
  O309     1.0000 0.94280  0.76720  0.29450  Biso   1.000  O
  O310     1.0000 0.05720  0.23280  0.79450  Biso   1.000  O
  O311     1.0000 0.26720  0.55720  0.54450  Biso   1.000  O
  O312     1.0000 0.73280  0.44280  0.04450  Biso   1.000  O
  O313     1.0000 0.71260  0.34000  0.35200  Biso   1.000  O
  O314     1.0000 0.28740  0.66000  0.85200  Biso   1.000  O
  O315     1.0000 0.16000  0.21260  0.10200  Biso   1.000  O
  O316     1.0000 0.84000  0.78740  0.60200  Biso   1.000  O
  O317     1.0000 0.78740  0.84000  0.39800  Biso   1.000  O
  O318     1.0000 0.21260  0.16000  0.89800  Biso   1.000  O
  O319     1.0000 0.34000  0.71260  0.64800  Biso   1.000  O
  O320     1.0000 0.66000  0.28740  0.14800  Biso   1.000  O
  O321     1.0000 0.39090  0.00630  0.45020  Biso   1.000  O
  O322     1.0000 0.60910  0.99370  0.95020  Biso   1.000  O
  O323     1.0000 0.49370  0.89090  0.20020  Biso   1.000  O
  O324     1.0000 0.50630  0.10910  0.70020  Biso   1.000  O
  O325     1.0000 0.10910  0.50630  0.29980  Biso   1.000  O
  O326     1.0000 0.89090  0.49370  0.79980  Biso   1.000  O
  O327     1.0000 0.00630  0.39090  0.54980  Biso   1.000  O
  O328     1.0000 0.99370  0.60910  0.04980  Biso   1.000  O
  O329     1.0000 0.40430  0.97990  0.34420  Biso   1.000  O
  O330     1.0000 0.59570  0.02010  0.84420  Biso   1.000  O
  O331     1.0000 0.52010  0.90430  0.09420  Biso   1.000  O
  O332     1.0000 0.47990  0.09570  0.59420  Biso   1.000  O
  O333     1.0000 0.09570  0.47990  0.40580  Biso   1.000  O
  O334     1.0000 0.90430  0.52010  0.90580  Biso   1.000  O
  O335     1.0000 0.97990  0.40430  0.65580  Biso   1.000  O
  O336     1.0000 0.02010  0.59570  0.15580  Biso   1.000  O
  O337     1.0000 0.42410  0.97740  0.26140  Biso   1.000  O
  O338     1.0000 0.57590  0.02260  0.76140  Biso   1.000  O
  O339     1.0000 0.52260  0.92410  0.01140  Biso   1.000  O
  O340     1.0000 0.47740  0.07590  0.51140  Biso   1.000  O
  O341     1.0000 0.07590  0.47740  0.48860  Biso   1.000  O
  O342     1.0000 0.92410  0.52260  0.98860  Biso   1.000  O
  O343     1.0000 0.97740  0.42410  0.73860  Biso   1.000  O
  O344     1.0000 0.02260  0.57590  0.23860  Biso   1.000  O
  O345     1.0000 0.38930  0.00920  0.53430  Biso   1.000  O
  O346     1.0000 0.61070  0.99080  0.03430  Biso   1.000  O
  O347     1.0000 0.49080  0.88930  0.28430  Biso   1.000  O
  O348     1.0000 0.50920  0.11070  0.78430  Biso   1.000  O
  O349     1.0000 0.11070  0.50920  0.21570  Biso   1.000  O
  O350     1.0000 0.88930  0.49080  0.71570  Biso   1.000  O
  O351     1.0000 0.00920  0.38930  0.46570  Biso   1.000  O
  O352     1.0000 0.99080  0.61070  0.96570  Biso   1.000  O
  O353     1.0000 0.54750  0.98900  0.55150  Biso   1.000  O
  O354     1.0000 0.45250  0.01100  0.05150  Biso   1.000  O
  O355     1.0000 0.51100  0.04750  0.30150  Biso   1.000  O
  O356     1.0000 0.48900  0.95250  0.80150  Biso   1.000  O
  O357     1.0000 0.95250  0.48900  0.19850  Biso   1.000  O
  O358     1.0000 0.04750  0.51100  0.69850  Biso   1.000  O
  O359     1.0000 0.98900  0.54750  0.44850  Biso   1.000  O
  O360     1.0000 0.01100  0.45250  0.94850  Biso   1.000  O
  O361     1.0000 0.57890  0.95830  0.27750  Biso   1.000  O
  O362     1.0000 0.42110  0.04170  0.77750  Biso   1.000  O
  O363     1.0000 0.54170  0.07890  0.02750  Biso   1.000  O
  O364     1.0000 0.45830  0.92110  0.52750  Biso   1.000  O
  O365     1.0000 0.92110  0.45830  0.47250  Biso   1.000  O
  O366     1.0000 0.07890  0.54170  0.97250  Biso   1.000  O
  O367     1.0000 0.95830  0.57890  0.72250  Biso   1.000  O
  O368     1.0000 0.04170  0.42110  0.22250  Biso   1.000  O
  O369     1.0000 0.57790  0.95950  0.36160  Biso   1.000  O
  O370     1.0000 0.42210  0.04050  0.86160  Biso   1.000  O
  O371     1.0000 0.54050  0.07790  0.11160  Biso   1.000  O
  O372     1.0000 0.45950  0.92210  0.61160  Biso   1.000  O
  O373     1.0000 0.92210  0.45950  0.38840  Biso   1.000  O
  O374     1.0000 0.07790  0.54050  0.88840  Biso   1.000  O
  O375     1.0000 0.95950  0.57790  0.63840  Biso   1.000  O
  O376     1.0000 0.04050  0.42210  0.13840  Biso   1.000  O
  O377     1.0000 0.56610  0.97790  0.46900  Biso   1.000  O
  O378     1.0000 0.43390  0.02210  0.96900  Biso   1.000  O
  O379     1.0000 0.52210  0.06610  0.21900  Biso   1.000  O
  O380     1.0000 0.47790  0.93390  0.71900  Biso   1.000  O
  O381     1.0000 0.93390  0.47790  0.28100  Biso   1.000  O
  O382     1.0000 0.06610  0.52210  0.78100  Biso   1.000  O
  O383     1.0000 0.97790  0.56610  0.53100  Biso   1.000  O
  O384     1.0000 0.02210  0.43390  0.03100  Biso   1.000  O
  N1       1.0000 0.29470  0.98550  0.32900  Biso   1.000  N
  N2       1.0000 0.70530  0.01450  0.82900  Biso   1.000  N
  N3       1.0000 0.51450  0.79470  0.07900  Biso   1.000  N
  N4       1.0000 0.48550  0.20530  0.57900  Biso   1.000  N
  N5       1.0000 0.20530  0.48550  0.42100  Biso   1.000  N
  N6       1.0000 0.79470  0.51450  0.92100  Biso   1.000  N
  N7       1.0000 0.98550  0.29470  0.67100  Biso   1.000  N
  N8       1.0000 0.01450  0.70530  0.17100  Biso   1.000  N
  H1       1.0000 0.28020  0.02060  0.32180  Biso   1.000  H
  H2       1.0000 0.71980  0.97940  0.82180  Biso   1.000  H
  H3       1.0000 0.47940  0.78020  0.07180  Biso   1.000  H
  H4       1.0000 0.52060  0.21980  0.57180  Biso   1.000  H
  H5       1.0000 0.21980  0.52060  0.42820  Biso   1.000  H
  H6       1.0000 0.78020  0.47940  0.92820  Biso   1.000  H
  H7       1.0000 0.02060  0.28020  0.67820  Biso   1.000  H
  H8       1.0000 0.97940  0.71980  0.17820  Biso   1.000  H
  N9       1.0000 0.28270  0.01490  0.43970  Biso   1.000  N
  N10      1.0000 0.71730  0.98510  0.93970  Biso   1.000  N
  N11      1.0000 0.48510  0.78270  0.18970  Biso   1.000  N
  N12      1.0000 0.51490  0.21730  0.68970  Biso   1.000  N
  N13      1.0000 0.21730  0.51490  0.31030  Biso   1.000  N
  N14      1.0000 0.78270  0.48510  0.81030  Biso   1.000  N
  N15      1.0000 0.01490  0.28270  0.56030  Biso   1.000  N
  N16      1.0000 0.98510  0.71730  0.06030  Biso   1.000  N
  H9       1.0000 0.25370  0.98950  0.43560  Biso   1.000  H
  H10      1.0000 0.74630  0.01050  0.93560  Biso   1.000  H
  H11      1.0000 0.51050  0.75370  0.18560  Biso   1.000  H
  H12      1.0000 0.48950  0.24630  0.68560  Biso   1.000  H
  H13      1.0000 0.24630  0.48950  0.31440  Biso   1.000  H
  H14      1.0000 0.75370  0.51050  0.81440  Biso   1.000  H
  H15      1.0000 0.98950  0.25370  0.56440  Biso   1.000  H
  H16      1.0000 0.01050  0.74630  0.06440  Biso   1.000  H
  N17      1.0000 0.68800  0.93470  0.37200  Biso   1.000  N
  N18      1.0000 0.31200  0.06530  0.87200  Biso   1.000  N
  N19      1.0000 0.56530  0.18800  0.12200  Biso   1.000  N
  N20      1.0000 0.43470  0.81200  0.62200  Biso   1.000  N
  N21      1.0000 0.81200  0.43470  0.37800  Biso   1.000  N
  N22      1.0000 0.18800  0.56530  0.87800  Biso   1.000  N
  N23      1.0000 0.93470  0.68800  0.62800  Biso   1.000  N
  N24      1.0000 0.06530  0.31200  0.12800  Biso   1.000  N
  H17      1.0000 0.69910  0.89790  0.37680  Biso   1.000  H
  H18      1.0000 0.30090  0.10210  0.87680  Biso   1.000  H
  H19      1.0000 0.60210  0.19910  0.12680  Biso   1.000  H
  H20      1.0000 0.39790  0.80090  0.62680  Biso   1.000  H
  H21      1.0000 0.80090  0.39790  0.37320  Biso   1.000  H
  H22      1.0000 0.19910  0.60210  0.87320  Biso   1.000  H
  H23      1.0000 0.89790  0.69910  0.62320  Biso   1.000  H
  H24      1.0000 0.10210  0.30090  0.12320  Biso   1.000  H
  N25      1.0000 0.67460  0.95500  0.48490  Biso   1.000  N
  N26      1.0000 0.32540  0.04500  0.98490  Biso   1.000  N
  N27      1.0000 0.54500  0.17460  0.23490  Biso   1.000  N
  N28      1.0000 0.45500  0.82540  0.73490  Biso   1.000  N
  N29      1.0000 0.82540  0.45500  0.26510  Biso   1.000  N
  N30      1.0000 0.17460  0.54500  0.76510  Biso   1.000  N
  N31      1.0000 0.95500  0.67460  0.51510  Biso   1.000  N
  N32      1.0000 0.04500  0.32540  0.01510  Biso   1.000  N
  H25      1.0000 0.69800  0.98580  0.48210  Biso   1.000  H
  H26      1.0000 0.30200  0.01420  0.98210  Biso   1.000  H
  H27      1.0000 0.51420  0.19800  0.23210  Biso   1.000  H
  H28      1.0000 0.48580  0.80200  0.73210  Biso   1.000  H
  H29      1.0000 0.80200  0.48580  0.26790  Biso   1.000  H
  H30      1.0000 0.19800  0.51420  0.76790  Biso   1.000  H
  H31      1.0000 0.98580  0.69800  0.51790  Biso   1.000  H
  H32      1.0000 0.01420  0.30200  0.01790  Biso   1.000  H
  C1       1.0000 0.39060  0.97760  0.29600  Biso   1.000  C
  C2       1.0000 0.60940  0.02240  0.79600  Biso   1.000  C
  C3       1.0000 0.52240  0.89060  0.04600  Biso   1.000  C
  C4       1.0000 0.47760  0.10940  0.54600  Biso   1.000  C
  C5       1.0000 0.10940  0.47760  0.45400  Biso   1.000  C
  C6       1.0000 0.89060  0.52240  0.95400  Biso   1.000  C
  C7       1.0000 0.97760  0.39060  0.70400  Biso   1.000  C
  C8       1.0000 0.02240  0.60940  0.20400  Biso   1.000  C
  C9       1.0000 0.33290  0.97030  0.28390  Biso   1.000  C
  C10      1.0000 0.66710  0.02970  0.78390  Biso   1.000  C
  C11      1.0000 0.52970  0.83290  0.03390  Biso   1.000  C
  C12      1.0000 0.47030  0.16710  0.53390  Biso   1.000  C
  C13      1.0000 0.16710  0.47030  0.46610  Biso   1.000  C
  C14      1.0000 0.83290  0.52970  0.96610  Biso   1.000  C
  C15      1.0000 0.97030  0.33290  0.71610  Biso   1.000  C
  C16      1.0000 0.02970  0.66710  0.21610  Biso   1.000  C
  H33      1.0000 0.32290  0.99340  0.25340  Biso   1.000  H
  H34      1.0000 0.67710  0.00660  0.75340  Biso   1.000  H
  H35      1.0000 0.50660  0.82290  0.00340  Biso   1.000  H
  H36      1.0000 0.49340  0.17710  0.50340  Biso   1.000  H
  H37      1.0000 0.17710  0.49340  0.49660  Biso   1.000  H
  H38      1.0000 0.82290  0.50660  0.99660  Biso   1.000  H
  H39      1.0000 0.99340  0.32290  0.74660  Biso   1.000  H
  H40      1.0000 0.00660  0.67710  0.24660  Biso   1.000  H
  C17      1.0000 0.31810  0.90840  0.27400  Biso   1.000  C
  C18      1.0000 0.68190  0.09160  0.77400  Biso   1.000  C
  C19      1.0000 0.59160  0.81810  0.02400  Biso   1.000  C
  C20      1.0000 0.40840  0.18190  0.52400  Biso   1.000  C
  C21      1.0000 0.18190  0.40840  0.47600  Biso   1.000  C
  C22      1.0000 0.81810  0.59160  0.97600  Biso   1.000  C
  C23      1.0000 0.90840  0.31810  0.72600  Biso   1.000  C
  C24      1.0000 0.09160  0.68190  0.22600  Biso   1.000  C
  H41      1.0000 0.33850  0.88350  0.29770  Biso   1.000  H
  H42      1.0000 0.66150  0.11650  0.79770  Biso   1.000  H
  H43      1.0000 0.61650  0.83850  0.04770  Biso   1.000  H
  H44      1.0000 0.38350  0.16150  0.54770  Biso   1.000  H
  H45      1.0000 0.16150  0.38350  0.45230  Biso   1.000  H
  H46      1.0000 0.83850  0.61650  0.95230  Biso   1.000  H
  H47      1.0000 0.88350  0.33850  0.70230  Biso   1.000  H
  H48      1.0000 0.11650  0.66150  0.20230  Biso   1.000  H
  H49      1.0000 0.32690  0.89750  0.23850  Biso   1.000  H
  H50      1.0000 0.67310  0.10250  0.73850  Biso   1.000  H
  H51      1.0000 0.60250  0.82690  0.98850  Biso   1.000  H
  H52      1.0000 0.39750  0.17310  0.48850  Biso   1.000  H
  H53      1.0000 0.17310  0.39750  0.51150  Biso   1.000  H
  H54      1.0000 0.82690  0.60250  0.01150  Biso   1.000  H
  H55      1.0000 0.89750  0.32690  0.76150  Biso   1.000  H
  H56      1.0000 0.10250  0.67310  0.26150  Biso   1.000  H
  C25      1.0000 0.25120  0.90620  0.28450  Biso   1.000  C
  C26      1.0000 0.74880  0.09380  0.78450  Biso   1.000  C
  C27      1.0000 0.59380  0.75120  0.03450  Biso   1.000  C
  C28      1.0000 0.40620  0.24880  0.53450  Biso   1.000  C
  C29      1.0000 0.24880  0.40620  0.46550  Biso   1.000  C
  C30      1.0000 0.75120  0.59380  0.96550  Biso   1.000  C
  C31      1.0000 0.90620  0.25120  0.71550  Biso   1.000  C
  C32      1.0000 0.09380  0.74880  0.21550  Biso   1.000  C
  H57      1.0000 0.23010  0.91980  0.25450  Biso   1.000  H
  H58      1.0000 0.76990  0.08020  0.75450  Biso   1.000  H
  H59      1.0000 0.58020  0.73010  0.00450  Biso   1.000  H
  H60      1.0000 0.41980  0.26990  0.50450  Biso   1.000  H
  H61      1.0000 0.26990  0.41980  0.49550  Biso   1.000  H
  H62      1.0000 0.73010  0.58020  0.99550  Biso   1.000  H
  H63      1.0000 0.91980  0.23010  0.74550  Biso   1.000  H
  H64      1.0000 0.08020  0.76990  0.24550  Biso   1.000  H
  H65      1.0000 0.23890  0.86780  0.29280  Biso   1.000  H
  H66      1.0000 0.76110  0.13220  0.79280  Biso   1.000  H
  H67      1.0000 0.63220  0.73890  0.04280  Biso   1.000  H
  H68      1.0000 0.36780  0.26110  0.54280  Biso   1.000  H
  H69      1.0000 0.26110  0.36780  0.45720  Biso   1.000  H
  H70      1.0000 0.73890  0.63220  0.95720  Biso   1.000  H
  H71      1.0000 0.86780  0.23890  0.70720  Biso   1.000  H
  H72      1.0000 0.13220  0.76110  0.20720  Biso   1.000  H
  C33      1.0000 0.24390  0.94420  0.32910  Biso   1.000  C
  C34      1.0000 0.75610  0.05580  0.82910  Biso   1.000  C
  C35      1.0000 0.55580  0.74390  0.07910  Biso   1.000  C
  C36      1.0000 0.44420  0.25610  0.57910  Biso   1.000  C
  C37      1.0000 0.25610  0.44420  0.42090  Biso   1.000  C
  C38      1.0000 0.74390  0.55580  0.92090  Biso   1.000  C
  C39      1.0000 0.94420  0.24390  0.67090  Biso   1.000  C
  C40      1.0000 0.05580  0.75610  0.17090  Biso   1.000  C
  H73      1.0000 0.24310  0.92240  0.36120  Biso   1.000  H
  H74      1.0000 0.75690  0.07760  0.86120  Biso   1.000  H
  H75      1.0000 0.57760  0.74310  0.11120  Biso   1.000  H
  H76      1.0000 0.42240  0.25690  0.61120  Biso   1.000  H
  H77      1.0000 0.25690  0.42240  0.38880  Biso   1.000  H
  H78      1.0000 0.74310  0.57760  0.88880  Biso   1.000  H
  H79      1.0000 0.92240  0.24310  0.63880  Biso   1.000  H
  H80      1.0000 0.07760  0.75690  0.13880  Biso   1.000  H
  H81      1.0000 0.20840  0.96510  0.32610  Biso   1.000  H
  H82      1.0000 0.79160  0.03490  0.82610  Biso   1.000  H
  H83      1.0000 0.53490  0.70840  0.07610  Biso   1.000  H
  H84      1.0000 0.46510  0.29160  0.57610  Biso   1.000  H
  H85      1.0000 0.29160  0.46510  0.42390  Biso   1.000  H
  H86      1.0000 0.70840  0.53490  0.92390  Biso   1.000  H
  H87      1.0000 0.96510  0.20840  0.67390  Biso   1.000  H
  H88      1.0000 0.03490  0.79160  0.17390  Biso   1.000  H
  C41      1.0000 0.36590  0.00850  0.49280  Biso   1.000  C
  C42      1.0000 0.63410  0.99150  0.99280  Biso   1.000  C
  C43      1.0000 0.49150  0.86590  0.24280  Biso   1.000  C
  C44      1.0000 0.50850  0.13410  0.74280  Biso   1.000  C
  C45      1.0000 0.13410  0.50850  0.25720  Biso   1.000  C
  C46      1.0000 0.86590  0.49150  0.75720  Biso   1.000  C
  C47      1.0000 0.00850  0.36590  0.50720  Biso   1.000  C
  C48      1.0000 0.99150  0.63410  0.00720  Biso   1.000  C
  C49      1.0000 0.30190  0.01040  0.49120  Biso   1.000  C
  C50      1.0000 0.69810  0.98960  0.99120  Biso   1.000  C
  C51      1.0000 0.48960  0.80190  0.24120  Biso   1.000  C
  C52      1.0000 0.51040  0.19810  0.74120  Biso   1.000  C
  C53      1.0000 0.19810  0.51040  0.25880  Biso   1.000  C
  C54      1.0000 0.80190  0.48960  0.75880  Biso   1.000  C
  C55      1.0000 0.01040  0.30190  0.50880  Biso   1.000  C
  C56      1.0000 0.98960  0.69810  0.00880  Biso   1.000  C
  H89      1.0000 0.28600  0.97610  0.50760  Biso   1.000  H
  H90      1.0000 0.71400  0.02390  0.00760  Biso   1.000  H
  H91      1.0000 0.52390  0.78600  0.25760  Biso   1.000  H
  H92      1.0000 0.47610  0.21400  0.75760  Biso   1.000  H
  H93      1.0000 0.21400  0.47610  0.24240  Biso   1.000  H
  H94      1.0000 0.78600  0.52390  0.74240  Biso   1.000  H
  H95      1.0000 0.97610  0.28600  0.49240  Biso   1.000  H
  H96      1.0000 0.02390  0.71400  0.99240  Biso   1.000  H
  C57      1.0000 0.28400  0.06270  0.52100  Biso   1.000  C
  C58      1.0000 0.71600  0.93730  0.02100  Biso   1.000  C
  C59      1.0000 0.43730  0.78400  0.27100  Biso   1.000  C
  C60      1.0000 0.56270  0.21600  0.77100  Biso   1.000  C
  C61      1.0000 0.21600  0.56270  0.22900  Biso   1.000  C
  C62      1.0000 0.78400  0.43730  0.72900  Biso   1.000  C
  C63      1.0000 0.06270  0.28400  0.47900  Biso   1.000  C
  C64      1.0000 0.93730  0.71600  0.97900  Biso   1.000  C
  H97      1.0000 0.24690  0.05790  0.53710  Biso   1.000  H
  H98      1.0000 0.75310  0.94210  0.03710  Biso   1.000  H
  H99      1.0000 0.44210  0.74690  0.28710  Biso   1.000  H
  H100     1.0000 0.55790  0.25310  0.78710  Biso   1.000  H
  H101     1.0000 0.25310  0.55790  0.21290  Biso   1.000  H
  H102     1.0000 0.74690  0.44210  0.71290  Biso   1.000  H
  H103     1.0000 0.05790  0.24690  0.46290  Biso   1.000  H
  H104     1.0000 0.94210  0.75310  0.96290  Biso   1.000  H
  H105     1.0000 0.31180  0.07290  0.54740  Biso   1.000  H
  H106     1.0000 0.68820  0.92710  0.04740  Biso   1.000  H
  H107     1.0000 0.42710  0.81180  0.29740  Biso   1.000  H
  H108     1.0000 0.57290  0.18820  0.79740  Biso   1.000  H
  H109     1.0000 0.18820  0.57290  0.20260  Biso   1.000  H
  H110     1.0000 0.81180  0.42710  0.70260  Biso   1.000  H
  H111     1.0000 0.07290  0.31180  0.45260  Biso   1.000  H
  H112     1.0000 0.92710  0.68820  0.95260  Biso   1.000  H
  H113     1.0000 0.26530  0.05190  0.55320  Biso   1.000  H
  H114     1.0000 0.73470  0.94810  0.05320  Biso   1.000  H
  H115     1.0000 0.44810  0.76530  0.30320  Biso   1.000  H
  H116     1.0000 0.55190  0.23470  0.80320  Biso   1.000  H
  H117     1.0000 0.23470  0.55190  0.19680  Biso   1.000  H
  H118     1.0000 0.76530  0.44810  0.69680  Biso   1.000  H
  H119     1.0000 0.05190  0.26530  0.44680  Biso   1.000  H
  H120     1.0000 0.94810  0.73470  0.94680  Biso   1.000  H
  H121     1.0000 0.31680  0.08620  0.52930  Biso   1.000  H
  H122     1.0000 0.68320  0.91380  0.02930  Biso   1.000  H
  H123     1.0000 0.41380  0.81680  0.27930  Biso   1.000  H
  H124     1.0000 0.58620  0.18320  0.77930  Biso   1.000  H
  H125     1.0000 0.18320  0.58620  0.22070  Biso   1.000  H
  H126     1.0000 0.81680  0.41380  0.72070  Biso   1.000  H
  H127     1.0000 0.08620  0.31680  0.47070  Biso   1.000  H
  H128     1.0000 0.91380  0.68320  0.97070  Biso   1.000  H
  C65      1.0000 0.25840  0.07260  0.43280  Biso   1.000  C
  C66      1.0000 0.74160  0.92740  0.93280  Biso   1.000  C
  C67      1.0000 0.42740  0.75840  0.18280  Biso   1.000  C
  C68      1.0000 0.57260  0.24160  0.68280  Biso   1.000  C
  C69      1.0000 0.24160  0.57260  0.31720  Biso   1.000  C
  C70      1.0000 0.75840  0.42740  0.81720  Biso   1.000  C
  C71      1.0000 0.07260  0.25840  0.56720  Biso   1.000  C
  C72      1.0000 0.92740  0.74160  0.06720  Biso   1.000  C
  H129     1.0000 0.21710  0.07180  0.43390  Biso   1.000  H
  H130     1.0000 0.78290  0.92820  0.93390  Biso   1.000  H
  H131     1.0000 0.42820  0.71710  0.18390  Biso   1.000  H
  H132     1.0000 0.57180  0.28290  0.68390  Biso   1.000  H
  H133     1.0000 0.28290  0.57180  0.31610  Biso   1.000  H
  H134     1.0000 0.71710  0.42820  0.81610  Biso   1.000  H
  H135     1.0000 0.07180  0.21710  0.56610  Biso   1.000  H
  H136     1.0000 0.92820  0.78290  0.06610  Biso   1.000  H
  H137     1.0000 0.27050  0.08940  0.40000  Biso   1.000  H
  H138     1.0000 0.72950  0.91060  0.90000  Biso   1.000  H
  H139     1.0000 0.41060  0.77050  0.15000  Biso   1.000  H
  H140     1.0000 0.58940  0.22950  0.65000  Biso   1.000  H
  H141     1.0000 0.22950  0.58940  0.35000  Biso   1.000  H
  H142     1.0000 0.77050  0.41060  0.85000  Biso   1.000  H
  H143     1.0000 0.08940  0.27050  0.60000  Biso   1.000  H
  H144     1.0000 0.91060  0.72950  0.10000  Biso   1.000  H
  H145     1.0000 0.22440  0.07170  0.41140  Biso   1.000  H
  H146     1.0000 0.77560  0.92830  0.91140  Biso   1.000  H
  H147     1.0000 0.42830  0.72440  0.16140  Biso   1.000  H
  H148     1.0000 0.57170  0.27560  0.66140  Biso   1.000  H
  H149     1.0000 0.27560  0.57170  0.33860  Biso   1.000  H
  H150     1.0000 0.72440  0.42830  0.83860  Biso   1.000  H
  H151     1.0000 0.07170  0.22440  0.58860  Biso   1.000  H
  H152     1.0000 0.92830  0.77560  0.08860  Biso   1.000  H
  H153     1.0000 0.28620  0.09750  0.41640  Biso   1.000  H
  H154     1.0000 0.71380  0.90250  0.91640  Biso   1.000  H
  H155     1.0000 0.40250  0.78620  0.16640  Biso   1.000  H
  H156     1.0000 0.59750  0.21380  0.66640  Biso   1.000  H
  H157     1.0000 0.21380  0.59750  0.33360  Biso   1.000  H
  H158     1.0000 0.78620  0.40250  0.83360  Biso   1.000  H
  H159     1.0000 0.09750  0.28620  0.58360  Biso   1.000  H
  H160     1.0000 0.90250  0.71380  0.08360  Biso   1.000  H
  C73      1.0000 0.28200  0.10490  0.47830  Biso   1.000  C
  C74      1.0000 0.71800  0.89510  0.97830  Biso   1.000  C
  C75      1.0000 0.39510  0.78200  0.22830  Biso   1.000  C
  C76      1.0000 0.60490  0.21800  0.72830  Biso   1.000  C
  C77      1.0000 0.21800  0.60490  0.27170  Biso   1.000  C
  C78      1.0000 0.78200  0.39510  0.77170  Biso   1.000  C
  C79      1.0000 0.10490  0.28200  0.52170  Biso   1.000  C
  C80      1.0000 0.89510  0.71800  0.02170  Biso   1.000  C
  H161     1.0000 0.32030  0.11900  0.47060  Biso   1.000  H
  H162     1.0000 0.67970  0.88100  0.97060  Biso   1.000  H
  H163     1.0000 0.38100  0.82030  0.22060  Biso   1.000  H
  H164     1.0000 0.61900  0.17970  0.72060  Biso   1.000  H
  H165     1.0000 0.17970  0.61900  0.27940  Biso   1.000  H
  H166     1.0000 0.82030  0.38100  0.77940  Biso   1.000  H
  H167     1.0000 0.11900  0.32030  0.52940  Biso   1.000  H
  H168     1.0000 0.88100  0.67970  0.02940  Biso   1.000  H
  H169     1.0000 0.25810  0.13690  0.48730  Biso   1.000  H
  H170     1.0000 0.74190  0.86310  0.98730  Biso   1.000  H
  H171     1.0000 0.36310  0.75810  0.23730  Biso   1.000  H
  H172     1.0000 0.63690  0.24190  0.73730  Biso   1.000  H
  H173     1.0000 0.24190  0.63690  0.26270  Biso   1.000  H
  H174     1.0000 0.75810  0.36310  0.76270  Biso   1.000  H
  H175     1.0000 0.13690  0.25810  0.51270  Biso   1.000  H
  H176     1.0000 0.86310  0.74190  0.01270  Biso   1.000  H
  C81      1.0000 0.24500  0.09360  0.48690  Biso   1.000  C
  C82      1.0000 0.75500  0.90640  0.98690  Biso   1.000  C
  C83      1.0000 0.40640  0.74500  0.23690  Biso   1.000  C
  C84      1.0000 0.59360  0.25500  0.73690  Biso   1.000  C
  C85      1.0000 0.25500  0.59360  0.26310  Biso   1.000  C
  C86      1.0000 0.74500  0.40640  0.76310  Biso   1.000  C
  C87      1.0000 0.09360  0.24500  0.51310  Biso   1.000  C
  C88      1.0000 0.90640  0.75500  0.01310  Biso   1.000  C
  H177     1.0000 0.25120  0.13440  0.48950  Biso   1.000  H
  H178     1.0000 0.74880  0.86560  0.98950  Biso   1.000  H
  H179     1.0000 0.36560  0.75120  0.23950  Biso   1.000  H
  H180     1.0000 0.63440  0.24880  0.73950  Biso   1.000  H
  H181     1.0000 0.24880  0.63440  0.26050  Biso   1.000  H
  H182     1.0000 0.75120  0.36560  0.76050  Biso   1.000  H
  H183     1.0000 0.13440  0.25120  0.51050  Biso   1.000  H
  H184     1.0000 0.86560  0.74880  0.01050  Biso   1.000  H
  H185     1.0000 0.20570  0.08540  0.49590  Biso   1.000  H
  H186     1.0000 0.79430  0.91460  0.99590  Biso   1.000  H
  H187     1.0000 0.41460  0.70570  0.24590  Biso   1.000  H
  H188     1.0000 0.58540  0.29430  0.74590  Biso   1.000  H
  H189     1.0000 0.29430  0.58540  0.25410  Biso   1.000  H
  H190     1.0000 0.70570  0.41460  0.75410  Biso   1.000  H
  H191     1.0000 0.08540  0.20570  0.50410  Biso   1.000  H
  H192     1.0000 0.91460  0.79430  0.00410  Biso   1.000  H
  C89      1.0000 0.60310  0.95420  0.32010  Biso   1.000  C
  C90      1.0000 0.39690  0.04580  0.82010  Biso   1.000  C
  C91      1.0000 0.54580  0.10310  0.07010  Biso   1.000  C
  C92      1.0000 0.45420  0.89690  0.57010  Biso   1.000  C
  C93      1.0000 0.89690  0.45420  0.42990  Biso   1.000  C
  C94      1.0000 0.10310  0.54580  0.92990  Biso   1.000  C
  C95      1.0000 0.95420  0.60310  0.67990  Biso   1.000  C
  C96      1.0000 0.04580  0.39690  0.17990  Biso   1.000  C
  C97      1.0000 0.66640  0.94120  0.32050  Biso   1.000  C
  C98      1.0000 0.33360  0.05880  0.82050  Biso   1.000  C
  C99      1.0000 0.55880  0.16640  0.07050  Biso   1.000  C
  C100     1.0000 0.44120  0.83360  0.57050  Biso   1.000  C
  C101     1.0000 0.83360  0.44120  0.42950  Biso   1.000  C
  C102     1.0000 0.16640  0.55880  0.92950  Biso   1.000  C
  C103     1.0000 0.94120  0.66640  0.67950  Biso   1.000  C
  C104     1.0000 0.05880  0.33360  0.17950  Biso   1.000  C
  H193     1.0000 0.67290  0.90560  0.30140  Biso   1.000  H
  H194     1.0000 0.32710  0.09440  0.80140  Biso   1.000  H
  H195     1.0000 0.59440  0.17290  0.05140  Biso   1.000  H
  H196     1.0000 0.40560  0.82710  0.55140  Biso   1.000  H
  H197     1.0000 0.82710  0.40560  0.44860  Biso   1.000  H
  H198     1.0000 0.17290  0.59440  0.94860  Biso   1.000  H
  H199     1.0000 0.90560  0.67290  0.69860  Biso   1.000  H
  H200     1.0000 0.09440  0.32710  0.19860  Biso   1.000  H
  C105     1.0000 0.70340  0.98800  0.29620  Biso   1.000  C
  C106     1.0000 0.29660  0.01200  0.79620  Biso   1.000  C
  C107     1.0000 0.51200  0.20340  0.04620  Biso   1.000  C
  C108     1.0000 0.48800  0.79660  0.54620  Biso   1.000  C
  C109     1.0000 0.79660  0.48800  0.45380  Biso   1.000  C
  C110     1.0000 0.20340  0.51200  0.95380  Biso   1.000  C
  C111     1.0000 0.98800  0.70340  0.70380  Biso   1.000  C
  C112     1.0000 0.01200  0.29660  0.20380  Biso   1.000  C
  H201     1.0000 0.71030  0.98050  0.25960  Biso   1.000  H
  H202     1.0000 0.28970  0.01950  0.75960  Biso   1.000  H
  H203     1.0000 0.51950  0.21030  0.00960  Biso   1.000  H
  H204     1.0000 0.48050  0.78970  0.50960  Biso   1.000  H
  H205     1.0000 0.78970  0.48050  0.49040  Biso   1.000  H
  H206     1.0000 0.21030  0.51950  0.99040  Biso   1.000  H
  H207     1.0000 0.98050  0.71030  0.74040  Biso   1.000  H
  H208     1.0000 0.01950  0.28970  0.24040  Biso   1.000  H
  H209     1.0000 0.68550  0.02510  0.29980  Biso   1.000  H
  H210     1.0000 0.31450  0.97490  0.79980  Biso   1.000  H
  H211     1.0000 0.47490  0.18550  0.04980  Biso   1.000  H
  H212     1.0000 0.52510  0.81450  0.54980  Biso   1.000  H
  H213     1.0000 0.81450  0.52510  0.45020  Biso   1.000  H
  H214     1.0000 0.18550  0.47490  0.95020  Biso   1.000  H
  H215     1.0000 0.02510  0.68550  0.70020  Biso   1.000  H
  H216     1.0000 0.97490  0.31450  0.20020  Biso   1.000  H
  C113     1.0000 0.75000  0.98550  0.32250  Biso   1.000  C
  C114     1.0000 0.25000  0.01450  0.82250  Biso   1.000  C
  C115     1.0000 0.51450  0.25000  0.07250  Biso   1.000  C
  C116     1.0000 0.48550  0.75000  0.57250  Biso   1.000  C
  C117     1.0000 0.75000  0.48550  0.42750  Biso   1.000  C
  C118     1.0000 0.25000  0.51450  0.92750  Biso   1.000  C
  C119     1.0000 0.98550  0.75000  0.67750  Biso   1.000  C
  C120     1.0000 0.01450  0.25000  0.17750  Biso   1.000  C
  H217     1.0000 0.76930  0.02200  0.32130  Biso   1.000  H
  H218     1.0000 0.23070  0.97800  0.82130  Biso   1.000  H
  H219     1.0000 0.47800  0.26930  0.07130  Biso   1.000  H
  H220     1.0000 0.52200  0.73070  0.57130  Biso   1.000  H
  H221     1.0000 0.73070  0.52200  0.42870  Biso   1.000  H
  H222     1.0000 0.26930  0.47800  0.92870  Biso   1.000  H
  H223     1.0000 0.02200  0.76930  0.67870  Biso   1.000  H
  H224     1.0000 0.97800  0.23070  0.17870  Biso   1.000  H
  H225     1.0000 0.77500  0.95690  0.30770  Biso   1.000  H
  H226     1.0000 0.22500  0.04310  0.80770  Biso   1.000  H
  H227     1.0000 0.54310  0.27500  0.05770  Biso   1.000  H
  H228     1.0000 0.45690  0.72500  0.55770  Biso   1.000  H
  H229     1.0000 0.72500  0.45690  0.44230  Biso   1.000  H
  H230     1.0000 0.27500  0.54310  0.94230  Biso   1.000  H
  H231     1.0000 0.95690  0.77500  0.69230  Biso   1.000  H
  H232     1.0000 0.04310  0.22500  0.19230  Biso   1.000  H
  C121     1.0000 0.73640  0.97080  0.37620  Biso   1.000  C
  C122     1.0000 0.26360  0.02920  0.87620  Biso   1.000  C
  C123     1.0000 0.52920  0.23640  0.12620  Biso   1.000  C
  C124     1.0000 0.47080  0.76360  0.62620  Biso   1.000  C
  C125     1.0000 0.76360  0.47080  0.37380  Biso   1.000  C
  C126     1.0000 0.23640  0.52920  0.87380  Biso   1.000  C
  C127     1.0000 0.97080  0.73640  0.62380  Biso   1.000  C
  C128     1.0000 0.02920  0.26360  0.12380  Biso   1.000  C
  H233     1.0000 0.76790  0.95100  0.39260  Biso   1.000  H
  H234     1.0000 0.23210  0.04900  0.89260  Biso   1.000  H
  H235     1.0000 0.54900  0.26790  0.14260  Biso   1.000  H
  H236     1.0000 0.45100  0.73210  0.64260  Biso   1.000  H
  H237     1.0000 0.73210  0.45100  0.35740  Biso   1.000  H
  H238     1.0000 0.26790  0.54900  0.85740  Biso   1.000  H
  H239     1.0000 0.95100  0.76790  0.60740  Biso   1.000  H
  H240     1.0000 0.04900  0.23210  0.10740  Biso   1.000  H
  H241     1.0000 0.72750  0.00470  0.39630  Biso   1.000  H
  H242     1.0000 0.27250  0.99530  0.89630  Biso   1.000  H
  H243     1.0000 0.49530  0.22750  0.14630  Biso   1.000  H
  H244     1.0000 0.50470  0.77250  0.64630  Biso   1.000  H
  H245     1.0000 0.77250  0.50470  0.35370  Biso   1.000  H
  H246     1.0000 0.22750  0.49530  0.85370  Biso   1.000  H
  H247     1.0000 0.00470  0.72750  0.60370  Biso   1.000  H
  H248     1.0000 0.99530  0.27250  0.10370  Biso   1.000  H
  C129     1.0000 0.57990  0.97820  0.51500  Biso   1.000  C
  C130     1.0000 0.42010  0.02180  0.01500  Biso   1.000  C
  C131     1.0000 0.52180  0.07990  0.26500  Biso   1.000  C
  C132     1.0000 0.47820  0.92010  0.76500  Biso   1.000  C
  C133     1.0000 0.92010  0.47820  0.23500  Biso   1.000  C
  C134     1.0000 0.07990  0.52180  0.73500  Biso   1.000  C
  C135     1.0000 0.97820  0.57990  0.48500  Biso   1.000  C
  C136     1.0000 0.02180  0.42010  0.98500  Biso   1.000  C
  C137     1.0000 0.63810  0.96380  0.52960  Biso   1.000  C
  C138     1.0000 0.36190  0.03620  0.02960  Biso   1.000  C
  C139     1.0000 0.53620  0.13810  0.27960  Biso   1.000  C
  C140     1.0000 0.46380  0.86190  0.77960  Biso   1.000  C
  C141     1.0000 0.86190  0.46380  0.22040  Biso   1.000  C
  C142     1.0000 0.13810  0.53620  0.72040  Biso   1.000  C
  C143     1.0000 0.96380  0.63810  0.47040  Biso   1.000  C
  C144     1.0000 0.03620  0.36190  0.97040  Biso   1.000  C
  H249     1.0000 0.65390  0.99440  0.55110  Biso   1.000  H
  H250     1.0000 0.34610  0.00560  0.05110  Biso   1.000  H
  H251     1.0000 0.50560  0.15390  0.30110  Biso   1.000  H
  H252     1.0000 0.49440  0.84610  0.80110  Biso   1.000  H
  H253     1.0000 0.84610  0.49440  0.19890  Biso   1.000  H
  H254     1.0000 0.15390  0.50560  0.69890  Biso   1.000  H
  H255     1.0000 0.99440  0.65390  0.44890  Biso   1.000  H
  H256     1.0000 0.00560  0.34610  0.94890  Biso   1.000  H
  C145     1.0000 0.64220  0.90710  0.55940  Biso   1.000  C
  C146     1.0000 0.35780  0.09290  0.05940  Biso   1.000  C
  C147     1.0000 0.59290  0.14220  0.30940  Biso   1.000  C
  C148     1.0000 0.40710  0.85780  0.80940  Biso   1.000  C
  C149     1.0000 0.85780  0.40710  0.19060  Biso   1.000  C
  C150     1.0000 0.14220  0.59290  0.69060  Biso   1.000  C
  C151     1.0000 0.90710  0.64220  0.44060  Biso   1.000  C
  C152     1.0000 0.09290  0.35780  0.94060  Biso   1.000  C
  H257     1.0000 0.63370  0.91230  0.59610  Biso   1.000  H
  H258     1.0000 0.36630  0.08770  0.09610  Biso   1.000  H
  H259     1.0000 0.58770  0.13370  0.34610  Biso   1.000  H
  H260     1.0000 0.41230  0.86630  0.84610  Biso   1.000  H
  H261     1.0000 0.86630  0.41230  0.15390  Biso   1.000  H
  H262     1.0000 0.13370  0.58770  0.65390  Biso   1.000  H
  H263     1.0000 0.91230  0.63370  0.40390  Biso   1.000  H
  H264     1.0000 0.08770  0.36630  0.90390  Biso   1.000  H
  H265     1.0000 0.61650  0.87880  0.54500  Biso   1.000  H
  H266     1.0000 0.38350  0.12120  0.04500  Biso   1.000  H
  H267     1.0000 0.62120  0.11650  0.29500  Biso   1.000  H
  H268     1.0000 0.37880  0.88350  0.79500  Biso   1.000  H
  H269     1.0000 0.88350  0.37880  0.20500  Biso   1.000  H
  H270     1.0000 0.11650  0.62120  0.70500  Biso   1.000  H
  H271     1.0000 0.87880  0.61650  0.45500  Biso   1.000  H
  H272     1.0000 0.12120  0.38350  0.95500  Biso   1.000  H
  C153     1.0000 0.70260  0.89040  0.55160  Biso   1.000  C
  C154     1.0000 0.29740  0.10960  0.05160  Biso   1.000  C
  C155     1.0000 0.60960  0.20260  0.30160  Biso   1.000  C
  C156     1.0000 0.39040  0.79740  0.80160  Biso   1.000  C
  C157     1.0000 0.79740  0.39040  0.19840  Biso   1.000  C
  C158     1.0000 0.20260  0.60960  0.69840  Biso   1.000  C
  C159     1.0000 0.89040  0.70260  0.44840  Biso   1.000  C
  C160     1.0000 0.10960  0.29740  0.94840  Biso   1.000  C
  H273     1.0000 0.70840  0.85020  0.55850  Biso   1.000  H
  H274     1.0000 0.29160  0.14980  0.05850  Biso   1.000  H
  H275     1.0000 0.64980  0.20840  0.30850  Biso   1.000  H
  H276     1.0000 0.35020  0.79160  0.80850  Biso   1.000  H
  H277     1.0000 0.79160  0.35020  0.19150  Biso   1.000  H
  H278     1.0000 0.20840  0.64980  0.69150  Biso   1.000  H
  H279     1.0000 0.85020  0.70840  0.44150  Biso   1.000  H
  H280     1.0000 0.14980  0.29160  0.94150  Biso   1.000  H
  H281     1.0000 0.72790  0.91260  0.57340  Biso   1.000  H
  H282     1.0000 0.27210  0.08740  0.07340  Biso   1.000  H
  H283     1.0000 0.58740  0.22790  0.32340  Biso   1.000  H
  H284     1.0000 0.41260  0.77210  0.82340  Biso   1.000  H
  H285     1.0000 0.77210  0.41260  0.17660  Biso   1.000  H
  H286     1.0000 0.22790  0.58740  0.67660  Biso   1.000  H
  H287     1.0000 0.91260  0.72790  0.42660  Biso   1.000  H
  H288     1.0000 0.08740  0.27210  0.92660  Biso   1.000  H
  C161     1.0000 0.71100  0.90410  0.49440  Biso   1.000  C
  C162     1.0000 0.28900  0.09590  0.99440  Biso   1.000  C
  C163     1.0000 0.59590  0.21100  0.24440  Biso   1.000  C
  C164     1.0000 0.40410  0.78900  0.74440  Biso   1.000  C
  C165     1.0000 0.78900  0.40410  0.25560  Biso   1.000  C
  C166     1.0000 0.21100  0.59590  0.75560  Biso   1.000  C
  C167     1.0000 0.90410  0.71100  0.50560  Biso   1.000  C
  C168     1.0000 0.09590  0.28900  0.00560  Biso   1.000  C
  H289     1.0000 0.75070  0.91250  0.48710  Biso   1.000  H
  H290     1.0000 0.24930  0.08750  0.98710  Biso   1.000  H
  H291     1.0000 0.58750  0.25070  0.23710  Biso   1.000  H
  H292     1.0000 0.41250  0.74930  0.73710  Biso   1.000  H
  H293     1.0000 0.74930  0.41250  0.26290  Biso   1.000  H
  H294     1.0000 0.25070  0.58750  0.76290  Biso   1.000  H
  H295     1.0000 0.91250  0.75070  0.51290  Biso   1.000  H
  H296     1.0000 0.08750  0.24930  0.01290  Biso   1.000  H
  H297     1.0000 0.69900  0.87240  0.47280  Biso   1.000  H
  H298     1.0000 0.30100  0.12760  0.97280  Biso   1.000  H
  H299     1.0000 0.62760  0.19900  0.22280  Biso   1.000  H
  H300     1.0000 0.37240  0.80100  0.72280  Biso   1.000  H
  H301     1.0000 0.80100  0.37240  0.27720  Biso   1.000  H
  H302     1.0000 0.19900  0.62760  0.77720  Biso   1.000  H
  H303     1.0000 0.87240  0.69900  0.52720  Biso   1.000  H
  H304     1.0000 0.12760  0.30100  0.02720  Biso   1.000  H
  O385     1.0000 0.59040  0.86380  0.43890  Biso   1.000  O
  O386     1.0000 0.40960  0.13620  0.93890  Biso   1.000  O
  O387     1.0000 0.63620  0.09040  0.18890  Biso   1.000  O
  O388     1.0000 0.36380  0.90960  0.68890  Biso   1.000  O
  O389     1.0000 0.90960  0.36380  0.31110  Biso   1.000  O
  O390     1.0000 0.09040  0.63620  0.81110  Biso   1.000  O
  O391     1.0000 0.86380  0.59040  0.56110  Biso   1.000  O
  O392     1.0000 0.13620  0.40960  0.06110  Biso   1.000  O
  O393     1.0000 0.48690  0.16760  0.40140  Biso   1.000  O
  O394     1.0000 0.51310  0.83240  0.90140  Biso   1.000  O
  O395     1.0000 0.33240  0.98690  0.15140  Biso   1.000  O
  O396     1.0000 0.66760  0.01310  0.65140  Biso   1.000  O
  O397     1.0000 0.01310  0.66760  0.34860  Biso   1.000  O
  O398     1.0000 0.98690  0.33240  0.84860  Biso   1.000  O
  O399     1.0000 0.16760  0.48690  0.59860  Biso   1.000  O
  O400     1.0000 0.83240  0.51310  0.09860  Biso   1.000  O
  O401     1.0000 0.46740  0.89420  0.41620  Biso   1.000  O
  O402     1.0000 0.53260  0.10580  0.91620  Biso   1.000  O
  O403     1.0000 0.60580  0.96740  0.16620  Biso   1.000  O
  O404     1.0000 0.39420  0.03260  0.66620  Biso   1.000  O
  O405     1.0000 0.03260  0.39420  0.33380  Biso   1.000  O
  O406     1.0000 0.96740  0.60580  0.83380  Biso   1.000  O
  O407     1.0000 0.89420  0.46740  0.58380  Biso   1.000  O
  O408     1.0000 0.10580  0.53260  0.08380  Biso   1.000  O
  O409     1.0000 0.47520  0.86520  0.39910  Biso   1.000  O
  O410     1.0000 0.52480  0.13480  0.89910  Biso   1.000  O
  O411     1.0000 0.63480  0.97520  0.14910  Biso   1.000  O
  O412     1.0000 0.36520  0.02480  0.64910  Biso   1.000  O
  O413     1.0000 0.02480  0.36520  0.35090  Biso   1.000  O
  O414     1.0000 0.97520  0.63480  0.85090  Biso   1.000  O
  O415     1.0000 0.86520  0.47520  0.60090  Biso   1.000  O
  O416     1.0000 0.13480  0.52480  0.10090  Biso   1.000  O
  O417     1.0000 0.25190  0.02250  0.65320  Biso   1.000  O
  O418     1.0000 0.74810  0.97750  0.15320  Biso   1.000  O
  O419     1.0000 0.47750  0.75190  0.40320  Biso   1.000  O
  O420     1.0000 0.52250  0.24810  0.90320  Biso   1.000  O
  O421     1.0000 0.24810  0.52250  0.09680  Biso   1.000  O
  O422     1.0000 0.75190  0.47750  0.59680  Biso   1.000  O
  O423     1.0000 0.02250  0.25190  0.34680  Biso   1.000  O
  O424     1.0000 0.97750  0.74810  0.84680  Biso   1.000  O
  O425     1.0000 0.95470  0.12450  0.39500  Biso   1.000  O
  O426     1.0000 0.04530  0.87550  0.89500  Biso   1.000  O
  O427     1.0000 0.37550  0.45470  0.14500  Biso   1.000  O
  O428     1.0000 0.62450  0.54530  0.64500  Biso   1.000  O
  O429     1.0000 0.54530  0.62450  0.35500  Biso   1.000  O
  O430     1.0000 0.45470  0.37550  0.85500  Biso   1.000  O
  O431     1.0000 0.12450  0.95470  0.60500  Biso   1.000  O
  O432     1.0000 0.87550  0.04530  0.10500  Biso   1.000  O
  O433     1.0000 0.01710  0.00990  0.61590  Biso   1.000  O
  O434     1.0000 0.98290  0.99010  0.11590  Biso   1.000  O
  O435     1.0000 0.49010  0.51710  0.36590  Biso   1.000  O
  O436     1.0000 0.50990  0.48290  0.86590  Biso   1.000  O
  O437     1.0000 0.48290  0.50990  0.13410  Biso   1.000  O
  O438     1.0000 0.51710  0.49010  0.63410  Biso   1.000  O
  O439     1.0000 0.00990  0.01710  0.38410  Biso   1.000  O
  O440     1.0000 0.99010  0.98290  0.88410  Biso   1.000  O
  O441     1.0000 0.64140  0.39770  0.65550  Biso   1.000  O
  O442     1.0000 0.35860  0.60230  0.15550  Biso   1.000  O
  O443     1.0000 0.10230  0.14140  0.40550  Biso   1.000  O
  O444     1.0000 0.89770  0.85860  0.90550  Biso   1.000  O
  O445     1.0000 0.85860  0.89770  0.09450  Biso   1.000  O
  O446     1.0000 0.14140  0.10230  0.59450  Biso   1.000  O
  O447     1.0000 0.39770  0.64140  0.34450  Biso   1.000  O
  O448     1.0000 0.60230  0.35860  0.84450  Biso   1.000  O
  O449     1.0000 0.99170  0.96090  0.55000  Biso   1.000  O
  O450     1.0000 0.00830  0.03910  0.05000  Biso   1.000  O
  O451     1.0000 0.53910  0.49170  0.30000  Biso   1.000  O
  O452     1.0000 0.46090  0.50830  0.80000  Biso   1.000  O
  O453     1.0000 0.50830  0.46090  0.20000  Biso   1.000  O
  O454     1.0000 0.49170  0.53910  0.70000  Biso   1.000  O
  O455     1.0000 0.96090  0.99170  0.45000  Biso   1.000  O
  O456     1.0000 0.03910  0.00830  0.95000  Biso   1.000  O
  O457     1.0000 0.89710  0.23050  0.27900  Biso   1.000  O
  O458     1.0000 0.10290  0.76950  0.77900  Biso   1.000  O
  O459     1.0000 0.26950  0.39710  0.02900  Biso   1.000  O
  O460     1.0000 0.73050  0.60290  0.52900  Biso   1.000  O
  O461     1.0000 0.60290  0.73050  0.47100  Biso   1.000  O
  O462     1.0000 0.39710  0.26950  0.97100  Biso   1.000  O
  O463     1.0000 0.23050  0.89710  0.72100  Biso   1.000  O
  O464     1.0000 0.76950  0.10290  0.22100  Biso   1.000  O
  O465     1.0000 0.94500  0.09700  0.28000  Biso   1.000  O
  O466     1.0000 0.05500  0.90300  0.78000  Biso   1.000  O
  O467     1.0000 0.40300  0.44500  0.03000  Biso   1.000  O
  O468     1.0000 0.59700  0.55500  0.53000  Biso   1.000  O
  O469     1.0000 0.55500  0.59700  0.47000  Biso   1.000  O
  O470     1.0000 0.44500  0.40300  0.97000  Biso   1.000  O
  O471     1.0000 0.09700  0.94500  0.72000  Biso   1.000  O
  O472     1.0000 0.90300  0.05500  0.22000  Biso   1.000  O
