data_image0
_cell_length_a       23.897
_cell_length_b       23.897
_cell_length_c       26.124
_cell_angle_alpha    90
_cell_angle_beta     90
_cell_angle_gamma    90

_symmetry_space_group_name_H-M    "P 1"
_symmetry_int_tables_number       1

loop_
  _symmetry_equiv_pos_as_xyz
  'x, y, z'

loop_
  _atom_site_label
  _atom_site_occupancy
  _atom_site_fract_x
  _atom_site_fract_y
  _atom_site_fract_z
  _atom_site_thermal_displace_type
  _atom_site_B_iso_or_equiv
  _atom_site_type_symbol
  B1       1.0000 0.70490  0.25910  0.00200  Biso   1.000  B
  B2       1.0000 0.29510  0.74090  0.50200  Biso   1.000  B
  B3       1.0000 0.24090  0.20490  0.25200  Biso   1.000  B
  B4       1.0000 0.75910  0.79510  0.75200  Biso   1.000  B
  B5       1.0000 0.79510  0.75910  0.24800  Biso   1.000  B
  B6       1.0000 0.20490  0.24090  0.74800  Biso   1.000  B
  B7       1.0000 0.25910  0.70490  0.99800  Biso   1.000  B
  B8       1.0000 0.74090  0.29510  0.49800  Biso   1.000  B
  W1       1.0000 0.73779  0.11972  0.97303  Biso   1.000  W
  W2       1.0000 0.26221  0.88028  0.47303  Biso   1.000  W
  W3       1.0000 0.38028  0.23779  0.22303  Biso   1.000  W
  W4       1.0000 0.61972  0.76221  0.72303  Biso   1.000  W
  W5       1.0000 0.76221  0.61972  0.27697  Biso   1.000  W
  W6       1.0000 0.23779  0.38028  0.77697  Biso   1.000  W
  W7       1.0000 0.11972  0.73779  0.02697  Biso   1.000  W
  W8       1.0000 0.88028  0.26221  0.52697  Biso   1.000  W
  W9       1.0000 0.61037  0.16564  0.95028  Biso   1.000  W
  W10      1.0000 0.38963  0.83436  0.45028  Biso   1.000  W
  W11      1.0000 0.33436  0.11037  0.20028  Biso   1.000  W
  W12      1.0000 0.66564  0.88963  0.70028  Biso   1.000  W
  W13      1.0000 0.88963  0.66564  0.29972  Biso   1.000  W
  W14      1.0000 0.11037  0.33436  0.79972  Biso   1.000  W
  W15      1.0000 0.16564  0.61037  0.04972  Biso   1.000  W
  W16      1.0000 0.83436  0.38963  0.54972  Biso   1.000  W
  W17      1.0000 0.56976  0.30845  0.98570  Biso   1.000  W
  W18      1.0000 0.43024  0.69155  0.48570  Biso   1.000  W
  W19      1.0000 0.19155  0.06976  0.23570  Biso   1.000  W
  W20      1.0000 0.80845  0.93024  0.73570  Biso   1.000  W
  W21      1.0000 0.93024  0.80845  0.26430  Biso   1.000  W
  W22      1.0000 0.06976  0.19155  0.76430  Biso   1.000  W
  W23      1.0000 0.30845  0.56976  0.01430  Biso   1.000  W
  W24      1.0000 0.69155  0.43024  0.51430  Biso   1.000  W
  W25      1.0000 0.76039  0.36549  0.92626  Biso   1.000  W
  W26      1.0000 0.23961  0.63451  0.42626  Biso   1.000  W
  W27      1.0000 0.13451  0.26039  0.17626  Biso   1.000  W
  W28      1.0000 0.86549  0.73961  0.67626  Biso   1.000  W
  W29      1.0000 0.73961  0.86549  0.32374  Biso   1.000  W
  W30      1.0000 0.26039  0.13451  0.82374  Biso   1.000  W
  W31      1.0000 0.36549  0.76039  0.07374  Biso   1.000  W
  W32      1.0000 0.63451  0.23961  0.57374  Biso   1.000  W
  W33      1.0000 0.66243  0.28387  0.87674  Biso   1.000  W
  W34      1.0000 0.33757  0.71613  0.37674  Biso   1.000  W
  W35      1.0000 0.21613  0.16243  0.12674  Biso   1.000  W
  W36      1.0000 0.78387  0.83757  0.62674  Biso   1.000  W
  W37      1.0000 0.83757  0.78387  0.37326  Biso   1.000  W
  W38      1.0000 0.16243  0.21613  0.87326  Biso   1.000  W
  W39      1.0000 0.28387  0.66243  0.12326  Biso   1.000  W
  W40      1.0000 0.71613  0.33757  0.62326  Biso   1.000  W
  W41      1.0000 0.79033  0.23475  0.89512  Biso   1.000  W
  W42      1.0000 0.20967  0.76525  0.39512  Biso   1.000  W
  W43      1.0000 0.26525  0.29033  0.14512  Biso   1.000  W
  W44      1.0000 0.73475  0.70967  0.64512  Biso   1.000  W
  W45      1.0000 0.70967  0.73475  0.35488  Biso   1.000  W
  W46      1.0000 0.29033  0.26525  0.85488  Biso   1.000  W
  W47      1.0000 0.23475  0.79033  0.10488  Biso   1.000  W
  W48      1.0000 0.76525  0.20967  0.60488  Biso   1.000  W
  W49      1.0000 0.80731  0.34357  0.05768  Biso   1.000  W
  W50      1.0000 0.19269  0.65643  0.55768  Biso   1.000  W
  W51      1.0000 0.15643  0.30731  0.30768  Biso   1.000  W
  W52      1.0000 0.84357  0.69269  0.80768  Biso   1.000  W
  W53      1.0000 0.69269  0.84357  0.19232  Biso   1.000  W
  W54      1.0000 0.30731  0.15643  0.69232  Biso   1.000  W
  W55      1.0000 0.34357  0.80731  0.94232  Biso   1.000  W
  W56      1.0000 0.65643  0.19269  0.44232  Biso   1.000  W
  W57      1.0000 0.84185  0.21513  0.02549  Biso   1.000  W
  W58      1.0000 0.15815  0.78487  0.52549  Biso   1.000  W
  W59      1.0000 0.28487  0.34185  0.27549  Biso   1.000  W
  W60      1.0000 0.71513  0.65815  0.77549  Biso   1.000  W
  W61      1.0000 0.65815  0.71513  0.22451  Biso   1.000  W
  W62      1.0000 0.34185  0.28487  0.72451  Biso   1.000  W
  W63      1.0000 0.21513  0.84185  0.97451  Biso   1.000  W
  W64      1.0000 0.78487  0.15815  0.47451  Biso   1.000  W
  W65      1.0000 0.65098  0.14669  0.06992  Biso   1.000  W
  W66      1.0000 0.34902  0.85331  0.56992  Biso   1.000  W
  W67      1.0000 0.35331  0.15098  0.31992  Biso   1.000  W
  W68      1.0000 0.64669  0.84902  0.81992  Biso   1.000  W
  W69      1.0000 0.84902  0.64669  0.18008  Biso   1.000  W
  W70      1.0000 0.15098  0.35331  0.68008  Biso   1.000  W
  W71      1.0000 0.14669  0.65098  0.93008  Biso   1.000  W
  W72      1.0000 0.85331  0.34902  0.43008  Biso   1.000  W
  W73      1.0000 0.75831  0.23755  0.12538  Biso   1.000  W
  W74      1.0000 0.24169  0.76245  0.62538  Biso   1.000  W
  W75      1.0000 0.26245  0.25831  0.37538  Biso   1.000  W
  W76      1.0000 0.73755  0.74169  0.87538  Biso   1.000  W
  W77      1.0000 0.74169  0.73755  0.12462  Biso   1.000  W
  W78      1.0000 0.25831  0.26245  0.62462  Biso   1.000  W
  W79      1.0000 0.23755  0.75831  0.87462  Biso   1.000  W
  W80      1.0000 0.76245  0.24169  0.37462  Biso   1.000  W
  W81      1.0000 0.66513  0.39381  0.03221  Biso   1.000  W
  W82      1.0000 0.33487  0.60619  0.53221  Biso   1.000  W
  W83      1.0000 0.10619  0.16513  0.28221  Biso   1.000  W
  W84      1.0000 0.89381  0.83487  0.78221  Biso   1.000  W
  W85      1.0000 0.83487  0.89381  0.21779  Biso   1.000  W
  W86      1.0000 0.16513  0.10619  0.71779  Biso   1.000  W
  W87      1.0000 0.39381  0.66513  0.96779  Biso   1.000  W
  W88      1.0000 0.60619  0.33487  0.46779  Biso   1.000  W
  W89      1.0000 0.61704  0.29051  0.10402  Biso   1.000  W
  W90      1.0000 0.38296  0.70949  0.60402  Biso   1.000  W
  W91      1.0000 0.20949  0.11704  0.35402  Biso   1.000  W
  W92      1.0000 0.79051  0.88296  0.85402  Biso   1.000  W
  W93      1.0000 0.88296  0.79051  0.14598  Biso   1.000  W
  W94      1.0000 0.11704  0.20949  0.64598  Biso   1.000  W
  W95      1.0000 0.29051  0.61704  0.89598  Biso   1.000  W
  W96      1.0000 0.70949  0.38296  0.39598  Biso   1.000  W
  O1       1.0000 0.68500  0.20010  0.00000  Biso   1.000  O
  O2       1.0000 0.31500  0.79990  0.50000  Biso   1.000  O
  O3       1.0000 0.29990  0.18500  0.25000  Biso   1.000  O
  O4       1.0000 0.70010  0.81500  0.75000  Biso   1.000  O
  O5       1.0000 0.81500  0.70010  0.25000  Biso   1.000  O
  O6       1.0000 0.18500  0.29990  0.75000  Biso   1.000  O
  O7       1.0000 0.20010  0.68500  0.00000  Biso   1.000  O
  O8       1.0000 0.79990  0.31500  0.50000  Biso   1.000  O
  O9       1.0000 0.75590  0.26360  0.03650  Biso   1.000  O
  O10      1.0000 0.24410  0.73640  0.53650  Biso   1.000  O
  O11      1.0000 0.23640  0.25590  0.28650  Biso   1.000  O
  O12      1.0000 0.76360  0.74410  0.78650  Biso   1.000  O
  O13      1.0000 0.74410  0.76360  0.21350  Biso   1.000  O
  O14      1.0000 0.25590  0.23640  0.71350  Biso   1.000  O
  O15      1.0000 0.26360  0.75590  0.96350  Biso   1.000  O
  O16      1.0000 0.73640  0.24410  0.46350  Biso   1.000  O
  O17      1.0000 0.72290  0.27840  0.94700  Biso   1.000  O
  O18      1.0000 0.27710  0.72160  0.44700  Biso   1.000  O
  O19      1.0000 0.22160  0.22290  0.19700  Biso   1.000  O
  O20      1.0000 0.77840  0.77710  0.69700  Biso   1.000  O
  O21      1.0000 0.77710  0.77840  0.30300  Biso   1.000  O
  O22      1.0000 0.22290  0.22160  0.80300  Biso   1.000  O
  O23      1.0000 0.27840  0.72290  0.05300  Biso   1.000  O
  O24      1.0000 0.72160  0.27710  0.55300  Biso   1.000  O
  O25      1.0000 0.65990  0.29740  0.02100  Biso   1.000  O
  O26      1.0000 0.34010  0.70260  0.52100  Biso   1.000  O
  O27      1.0000 0.20260  0.15990  0.27100  Biso   1.000  O
  O28      1.0000 0.79740  0.84010  0.77100  Biso   1.000  O
  O29      1.0000 0.84010  0.79740  0.22900  Biso   1.000  O
  O30      1.0000 0.15990  0.20260  0.72900  Biso   1.000  O
  O31      1.0000 0.29740  0.65990  0.97900  Biso   1.000  O
  O32      1.0000 0.70260  0.34010  0.47900  Biso   1.000  O
  O33      1.0000 0.66620  0.11050  0.94020  Biso   1.000  O
  O34      1.0000 0.33380  0.88950  0.44020  Biso   1.000  O
  O35      1.0000 0.38950  0.16620  0.19020  Biso   1.000  O
  O36      1.0000 0.61050  0.83380  0.69020  Biso   1.000  O
  O37      1.0000 0.83380  0.61050  0.30980  Biso   1.000  O
  O38      1.0000 0.16620  0.38950  0.80980  Biso   1.000  O
  O39      1.0000 0.11050  0.66620  0.05980  Biso   1.000  O
  O40      1.0000 0.88950  0.33380  0.55980  Biso   1.000  O
  O41      1.0000 0.73500  0.37690  0.06100  Biso   1.000  O
  O42      1.0000 0.26500  0.62310  0.56100  Biso   1.000  O
  O43      1.0000 0.12310  0.23500  0.31100  Biso   1.000  O
  O44      1.0000 0.87690  0.76500  0.81100  Biso   1.000  O
  O45      1.0000 0.76500  0.87690  0.18900  Biso   1.000  O
  O46      1.0000 0.23500  0.12310  0.68900  Biso   1.000  O
  O47      1.0000 0.37690  0.73500  0.93900  Biso   1.000  O
  O48      1.0000 0.62310  0.26500  0.43900  Biso   1.000  O
  O49      1.0000 0.86470  0.28900  0.04310  Biso   1.000  O
  O50      1.0000 0.13530  0.71100  0.54310  Biso   1.000  O
  O51      1.0000 0.21100  0.36470  0.29310  Biso   1.000  O
  O52      1.0000 0.78900  0.63530  0.79310  Biso   1.000  O
  O53      1.0000 0.63530  0.78900  0.20690  Biso   1.000  O
  O54      1.0000 0.36470  0.21100  0.70690  Biso   1.000  O
  O55      1.0000 0.28900  0.86470  0.95690  Biso   1.000  O
  O56      1.0000 0.71100  0.13530  0.45690  Biso   1.000  O
  O57      1.0000 0.83600  0.23480  0.95650  Biso   1.000  O
  O58      1.0000 0.16400  0.76520  0.45650  Biso   1.000  O
  O59      1.0000 0.26520  0.33600  0.20650  Biso   1.000  O
  O60      1.0000 0.73480  0.66400  0.70650  Biso   1.000  O
  O61      1.0000 0.66400  0.73480  0.29350  Biso   1.000  O
  O62      1.0000 0.33600  0.26520  0.79350  Biso   1.000  O
  O63      1.0000 0.23480  0.83600  0.04350  Biso   1.000  O
  O64      1.0000 0.76520  0.16400  0.54350  Biso   1.000  O
  O65      1.0000 0.72990  0.24590  0.85070  Biso   1.000  O
  O66      1.0000 0.27010  0.75410  0.35070  Biso   1.000  O
  O67      1.0000 0.25410  0.22990  0.10070  Biso   1.000  O
  O68      1.0000 0.74590  0.77010  0.60070  Biso   1.000  O
  O69      1.0000 0.77010  0.74590  0.39930  Biso   1.000  O
  O70      1.0000 0.22990  0.25410  0.89930  Biso   1.000  O
  O71      1.0000 0.24590  0.72990  0.14930  Biso   1.000  O
  O72      1.0000 0.75410  0.27010  0.64930  Biso   1.000  O
  O73      1.0000 0.70290  0.39490  0.96700  Biso   1.000  O
  O74      1.0000 0.29710  0.60510  0.46700  Biso   1.000  O
  O75      1.0000 0.10510  0.20290  0.21700  Biso   1.000  O
  O76      1.0000 0.89490  0.79710  0.71700  Biso   1.000  O
  O77      1.0000 0.79710  0.89490  0.28300  Biso   1.000  O
  O78      1.0000 0.20290  0.10510  0.78300  Biso   1.000  O
  O79      1.0000 0.39490  0.70290  0.03300  Biso   1.000  O
  O80      1.0000 0.60510  0.29710  0.53300  Biso   1.000  O
  O81      1.0000 0.59570  0.38410  0.99980  Biso   1.000  O
  O82      1.0000 0.40430  0.61590  0.49980  Biso   1.000  O
  O83      1.0000 0.11590  0.09570  0.24980  Biso   1.000  O
  O84      1.0000 0.88410  0.90430  0.74980  Biso   1.000  O
  O85      1.0000 0.90430  0.88410  0.25020  Biso   1.000  O
  O86      1.0000 0.09570  0.11590  0.75020  Biso   1.000  O
  O87      1.0000 0.38410  0.59570  0.00020  Biso   1.000  O
  O88      1.0000 0.61590  0.40430  0.50020  Biso   1.000  O
  O89      1.0000 0.59790  0.13330  0.01690  Biso   1.000  O
  O90      1.0000 0.40210  0.86670  0.51690  Biso   1.000  O
  O91      1.0000 0.36670  0.09790  0.26690  Biso   1.000  O
  O92      1.0000 0.63330  0.90210  0.76690  Biso   1.000  O
  O93      1.0000 0.90210  0.63330  0.23310  Biso   1.000  O
  O94      1.0000 0.09790  0.36670  0.73310  Biso   1.000  O
  O95      1.0000 0.13330  0.59790  0.98310  Biso   1.000  O
  O96      1.0000 0.86670  0.40210  0.48310  Biso   1.000  O
  O97      1.0000 0.79490  0.30860  0.12100  Biso   1.000  O
  O98      1.0000 0.20510  0.69140  0.62100  Biso   1.000  O
  O99      1.0000 0.19140  0.29490  0.37100  Biso   1.000  O
  O100     1.0000 0.80860  0.70510  0.87100  Biso   1.000  O
  O101     1.0000 0.70510  0.80860  0.12900  Biso   1.000  O
  O102     1.0000 0.29490  0.19140  0.62900  Biso   1.000  O
  O103     1.0000 0.30860  0.79490  0.87900  Biso   1.000  O
  O104     1.0000 0.69140  0.20510  0.37900  Biso   1.000  O
  O105     1.0000 0.63840  0.21240  0.89990  Biso   1.000  O
  O106     1.0000 0.36160  0.78760  0.39990  Biso   1.000  O
  O107     1.0000 0.28760  0.13840  0.14990  Biso   1.000  O
  O108     1.0000 0.71240  0.86160  0.64990  Biso   1.000  O
  O109     1.0000 0.86160  0.71240  0.35010  Biso   1.000  O
  O110     1.0000 0.13840  0.28760  0.85010  Biso   1.000  O
  O111     1.0000 0.21240  0.63840  0.10010  Biso   1.000  O
  O112     1.0000 0.78760  0.36160  0.60010  Biso   1.000  O
  O113     1.0000 0.60940  0.31450  0.92120  Biso   1.000  O
  O114     1.0000 0.39060  0.68550  0.42120  Biso   1.000  O
  O115     1.0000 0.18550  0.10940  0.17120  Biso   1.000  O
  O116     1.0000 0.81450  0.89060  0.67120  Biso   1.000  O
  O117     1.0000 0.89060  0.81450  0.32880  Biso   1.000  O
  O118     1.0000 0.10940  0.18550  0.82880  Biso   1.000  O
  O119     1.0000 0.31450  0.60940  0.07880  Biso   1.000  O
  O120     1.0000 0.68550  0.39060  0.57880  Biso   1.000  O
  O121     1.0000 0.70290  0.09660  0.03440  Biso   1.000  O
  O122     1.0000 0.29710  0.90340  0.53440  Biso   1.000  O
  O123     1.0000 0.40340  0.20290  0.28440  Biso   1.000  O
  O124     1.0000 0.59660  0.79710  0.78440  Biso   1.000  O
  O125     1.0000 0.79710  0.59660  0.21560  Biso   1.000  O
  O126     1.0000 0.20290  0.40340  0.71560  Biso   1.000  O
  O127     1.0000 0.09660  0.70290  0.96560  Biso   1.000  O
  O128     1.0000 0.90340  0.29710  0.46560  Biso   1.000  O
  O129     1.0000 0.71440  0.17620  0.10470  Biso   1.000  O
  O130     1.0000 0.28560  0.82380  0.60470  Biso   1.000  O
  O131     1.0000 0.32380  0.21440  0.35470  Biso   1.000  O
  O132     1.0000 0.67620  0.78560  0.85470  Biso   1.000  O
  O133     1.0000 0.78560  0.67620  0.14530  Biso   1.000  O
  O134     1.0000 0.21440  0.32380  0.64530  Biso   1.000  O
  O135     1.0000 0.17620  0.71440  0.89530  Biso   1.000  O
  O136     1.0000 0.82380  0.28560  0.39530  Biso   1.000  O
  O137     1.0000 0.61360  0.21260  0.08980  Biso   1.000  O
  O138     1.0000 0.38640  0.78740  0.58980  Biso   1.000  O
  O139     1.0000 0.28740  0.11360  0.33980  Biso   1.000  O
  O140     1.0000 0.71260  0.88640  0.83980  Biso   1.000  O
  O141     1.0000 0.88640  0.71260  0.16020  Biso   1.000  O
  O142     1.0000 0.11360  0.28740  0.66020  Biso   1.000  O
  O143     1.0000 0.21260  0.61360  0.91020  Biso   1.000  O
  O144     1.0000 0.78740  0.38640  0.41020  Biso   1.000  O
  O145     1.0000 0.68870  0.27820  0.12850  Biso   1.000  O
  O146     1.0000 0.31130  0.72180  0.62850  Biso   1.000  O
  O147     1.0000 0.22180  0.18870  0.37850  Biso   1.000  O
  O148     1.0000 0.77820  0.81130  0.87850  Biso   1.000  O
  O149     1.0000 0.81130  0.77820  0.12150  Biso   1.000  O
  O150     1.0000 0.18870  0.22180  0.62150  Biso   1.000  O
  O151     1.0000 0.27820  0.68870  0.87150  Biso   1.000  O
  O152     1.0000 0.72180  0.31130  0.37150  Biso   1.000  O
  O153     1.0000 0.80370  0.35900  0.98610  Biso   1.000  O
  O154     1.0000 0.19630  0.64100  0.48610  Biso   1.000  O
  O155     1.0000 0.14100  0.30370  0.23610  Biso   1.000  O
  O156     1.0000 0.85900  0.69630  0.73610  Biso   1.000  O
  O157     1.0000 0.69630  0.85900  0.26390  Biso   1.000  O
  O158     1.0000 0.30370  0.14100  0.76390  Biso   1.000  O
  O159     1.0000 0.35900  0.80370  0.01390  Biso   1.000  O
  O160     1.0000 0.64100  0.19630  0.51390  Biso   1.000  O
  O161     1.0000 0.80660  0.31420  0.89010  Biso   1.000  O
  O162     1.0000 0.19340  0.68580  0.39010  Biso   1.000  O
  O163     1.0000 0.18580  0.30660  0.14010  Biso   1.000  O
  O164     1.0000 0.81420  0.69340  0.64010  Biso   1.000  O
  O165     1.0000 0.69340  0.81420  0.35990  Biso   1.000  O
  O166     1.0000 0.30660  0.18580  0.85990  Biso   1.000  O
  O167     1.0000 0.31420  0.80660  0.10990  Biso   1.000  O
  O168     1.0000 0.68580  0.19340  0.60990  Biso   1.000  O
  O169     1.0000 0.82450  0.20480  0.09670  Biso   1.000  O
  O170     1.0000 0.17550  0.79520  0.59670  Biso   1.000  O
  O171     1.0000 0.29520  0.32450  0.34670  Biso   1.000  O
  O172     1.0000 0.70480  0.67550  0.84670  Biso   1.000  O
  O173     1.0000 0.67550  0.70480  0.15330  Biso   1.000  O
  O174     1.0000 0.32450  0.29520  0.65330  Biso   1.000  O
  O175     1.0000 0.20480  0.82450  0.90330  Biso   1.000  O
  O176     1.0000 0.79520  0.17550  0.40330  Biso   1.000  O
  O177     1.0000 0.76110  0.16610  0.91750  Biso   1.000  O
  O178     1.0000 0.23890  0.83390  0.41750  Biso   1.000  O
  O179     1.0000 0.33390  0.26110  0.16750  Biso   1.000  O
  O180     1.0000 0.66610  0.73890  0.66750  Biso   1.000  O
  O181     1.0000 0.73890  0.66610  0.33250  Biso   1.000  O
  O182     1.0000 0.26110  0.33390  0.83250  Biso   1.000  O
  O183     1.0000 0.16610  0.76110  0.08250  Biso   1.000  O
  O184     1.0000 0.83390  0.23890  0.58250  Biso   1.000  O
  O185     1.0000 0.57140  0.23030  0.97420  Biso   1.000  O
  O186     1.0000 0.42860  0.76970  0.47420  Biso   1.000  O
  O187     1.0000 0.26970  0.07140  0.22420  Biso   1.000  O
  O188     1.0000 0.73030  0.92860  0.72420  Biso   1.000  O
  O189     1.0000 0.92860  0.73030  0.27580  Biso   1.000  O
  O190     1.0000 0.07140  0.26970  0.77580  Biso   1.000  O
  O191     1.0000 0.23030  0.57140  0.02580  Biso   1.000  O
  O192     1.0000 0.76970  0.42860  0.52580  Biso   1.000  O
  O193     1.0000 0.55620  0.29920  0.05750  Biso   1.000  O
  O194     1.0000 0.44380  0.70080  0.55750  Biso   1.000  O
  O195     1.0000 0.20080  0.05620  0.30750  Biso   1.000  O
  O196     1.0000 0.79920  0.94380  0.80750  Biso   1.000  O
  O197     1.0000 0.94380  0.79920  0.19250  Biso   1.000  O
  O198     1.0000 0.05620  0.20080  0.69250  Biso   1.000  O
  O199     1.0000 0.29920  0.55620  0.94250  Biso   1.000  O
  O200     1.0000 0.70080  0.44380  0.44250  Biso   1.000  O
  O201     1.0000 0.79700  0.15000  0.01160  Biso   1.000  O
  O202     1.0000 0.20300  0.85000  0.51160  Biso   1.000  O
  O203     1.0000 0.35000  0.29700  0.26160  Biso   1.000  O
  O204     1.0000 0.65000  0.70300  0.76160  Biso   1.000  O
  O205     1.0000 0.70300  0.65000  0.23840  Biso   1.000  O
  O206     1.0000 0.29700  0.35000  0.73840  Biso   1.000  O
  O207     1.0000 0.15000  0.79700  0.98840  Biso   1.000  O
  O208     1.0000 0.85000  0.20300  0.48840  Biso   1.000  O
  O209     1.0000 0.63140  0.36720  0.09530  Biso   1.000  O
  O210     1.0000 0.36860  0.63280  0.59530  Biso   1.000  O
  O211     1.0000 0.13280  0.13140  0.34530  Biso   1.000  O
  O212     1.0000 0.86720  0.86860  0.84530  Biso   1.000  O
  O213     1.0000 0.86860  0.86720  0.15470  Biso   1.000  O
  O214     1.0000 0.13140  0.13280  0.65470  Biso   1.000  O
  O215     1.0000 0.36720  0.63140  0.90470  Biso   1.000  O
  O216     1.0000 0.63280  0.36860  0.40470  Biso   1.000  O
  O217     1.0000 0.39800  0.84700  0.92210  Biso   1.000  O
  O218     1.0000 0.60200  0.15300  0.42210  Biso   1.000  O
  O219     1.0000 0.65300  0.89800  0.17210  Biso   1.000  O
  O220     1.0000 0.34700  0.10200  0.67210  Biso   1.000  O
  O221     1.0000 0.10200  0.34700  0.32790  Biso   1.000  O
  O222     1.0000 0.89800  0.65300  0.82790  Biso   1.000  O
  O223     1.0000 0.84700  0.39800  0.07790  Biso   1.000  O
  O224     1.0000 0.15300  0.60200  0.57790  Biso   1.000  O
  O225     1.0000 0.62670  0.29030  0.81960  Biso   1.000  O
  O226     1.0000 0.37330  0.70970  0.31960  Biso   1.000  O
  O227     1.0000 0.20970  0.12670  0.06960  Biso   1.000  O
  O228     1.0000 0.79030  0.87330  0.56960  Biso   1.000  O
  O229     1.0000 0.87330  0.79030  0.43040  Biso   1.000  O
  O230     1.0000 0.12670  0.20970  0.93040  Biso   1.000  O
  O231     1.0000 0.29030  0.62670  0.18040  Biso   1.000  O
  O232     1.0000 0.70970  0.37330  0.68040  Biso   1.000  O
  O233     1.0000 0.83960  0.21410  0.85230  Biso   1.000  O
  O234     1.0000 0.16040  0.78590  0.35230  Biso   1.000  O
  O235     1.0000 0.28590  0.33960  0.10230  Biso   1.000  O
  O236     1.0000 0.71410  0.66040  0.60230  Biso   1.000  O
  O237     1.0000 0.66040  0.71410  0.39770  Biso   1.000  O
  O238     1.0000 0.33960  0.28590  0.89770  Biso   1.000  O
  O239     1.0000 0.21410  0.83960  0.14770  Biso   1.000  O
  O240     1.0000 0.78590  0.16040  0.64770  Biso   1.000  O
  O241     1.0000 0.76880  0.21970  0.18810  Biso   1.000  O
  O242     1.0000 0.23120  0.78030  0.68810  Biso   1.000  O
  O243     1.0000 0.28030  0.26880  0.43810  Biso   1.000  O
  O244     1.0000 0.71970  0.73120  0.93810  Biso   1.000  O
  O245     1.0000 0.73120  0.71970  0.06190  Biso   1.000  O
  O246     1.0000 0.26880  0.28030  0.56190  Biso   1.000  O
  O247     1.0000 0.21970  0.76880  0.81190  Biso   1.000  O
  O248     1.0000 0.78030  0.23120  0.31190  Biso   1.000  O
  O249     1.0000 0.78450  0.42780  0.90140  Biso   1.000  O
  O250     1.0000 0.21550  0.57220  0.40140  Biso   1.000  O
  O251     1.0000 0.07220  0.28450  0.15140  Biso   1.000  O
  O252     1.0000 0.92780  0.71550  0.65140  Biso   1.000  O
  O253     1.0000 0.71550  0.92780  0.34860  Biso   1.000  O
  O254     1.0000 0.28450  0.07220  0.84860  Biso   1.000  O
  O255     1.0000 0.42780  0.78450  0.09860  Biso   1.000  O
  O256     1.0000 0.57220  0.21550  0.59860  Biso   1.000  O
  O257     1.0000 0.70240  0.35230  0.87640  Biso   1.000  O
  O258     1.0000 0.29760  0.64770  0.37640  Biso   1.000  O
  O259     1.0000 0.14770  0.20240  0.12640  Biso   1.000  O
  O260     1.0000 0.85230  0.79760  0.62640  Biso   1.000  O
  O261     1.0000 0.79760  0.85230  0.37360  Biso   1.000  O
  O262     1.0000 0.20240  0.14770  0.87360  Biso   1.000  O
  O263     1.0000 0.35230  0.70240  0.12360  Biso   1.000  O
  O264     1.0000 0.64770  0.29760  0.62360  Biso   1.000  O
  O265     1.0000 0.50360  0.32420  0.96470  Biso   1.000  O
  O266     1.0000 0.49640  0.67580  0.46470  Biso   1.000  O
  O267     1.0000 0.17580  0.00360  0.21470  Biso   1.000  O
  O268     1.0000 0.82420  0.99640  0.71470  Biso   1.000  O
  O269     1.0000 0.99640  0.82420  0.28530  Biso   1.000  O
  O270     1.0000 0.00360  0.17580  0.78530  Biso   1.000  O
  O271     1.0000 0.32420  0.50360  0.03530  Biso   1.000  O
  O272     1.0000 0.67580  0.49640  0.53530  Biso   1.000  O
  O273     1.0000 0.62810  0.09880  0.11450  Biso   1.000  O
  O274     1.0000 0.37190  0.90120  0.61450  Biso   1.000  O
  O275     1.0000 0.40120  0.12810  0.36450  Biso   1.000  O
  O276     1.0000 0.59880  0.87190  0.86450  Biso   1.000  O
  O277     1.0000 0.87190  0.59880  0.13550  Biso   1.000  O
  O278     1.0000 0.12810  0.40120  0.63550  Biso   1.000  O
  O279     1.0000 0.09880  0.62810  0.88550  Biso   1.000  O
  O280     1.0000 0.90120  0.37190  0.38550  Biso   1.000  O
  O281     1.0000 0.76520  0.05840  0.95570  Biso   1.000  O
  O282     1.0000 0.23480  0.94160  0.45570  Biso   1.000  O
  O283     1.0000 0.44160  0.26520  0.20570  Biso   1.000  O
  O284     1.0000 0.55840  0.73480  0.70570  Biso   1.000  O
  O285     1.0000 0.73480  0.55840  0.29430  Biso   1.000  O
  O286     1.0000 0.26520  0.44160  0.79430  Biso   1.000  O
  O287     1.0000 0.05840  0.76520  0.04430  Biso   1.000  O
  O288     1.0000 0.94160  0.23480  0.54430  Biso   1.000  O
  O289     1.0000 0.90600  0.18550  0.02700  Biso   1.000  O
  O290     1.0000 0.09400  0.81450  0.52700  Biso   1.000  O
  O291     1.0000 0.31450  0.40600  0.27700  Biso   1.000  O
  O292     1.0000 0.68550  0.59400  0.77700  Biso   1.000  O
  O293     1.0000 0.59400  0.68550  0.22300  Biso   1.000  O
  O294     1.0000 0.40600  0.31450  0.72300  Biso   1.000  O
  O295     1.0000 0.18550  0.90600  0.97300  Biso   1.000  O
  O296     1.0000 0.81450  0.09400  0.47300  Biso   1.000  O
  O297     1.0000 0.57740  0.29100  0.15700  Biso   1.000  O
  O298     1.0000 0.42260  0.70900  0.65700  Biso   1.000  O
  O299     1.0000 0.20900  0.07740  0.40700  Biso   1.000  O
  O300     1.0000 0.79100  0.92260  0.90700  Biso   1.000  O
  O301     1.0000 0.92260  0.79100  0.09300  Biso   1.000  O
  O302     1.0000 0.07740  0.20900  0.59300  Biso   1.000  O
  O303     1.0000 0.29100  0.57740  0.84300  Biso   1.000  O
  O304     1.0000 0.70900  0.42260  0.34300  Biso   1.000  O
  O305     1.0000 0.55700  0.13310  0.91620  Biso   1.000  O
  O306     1.0000 0.44300  0.86690  0.41620  Biso   1.000  O
  O307     1.0000 0.36690  0.05700  0.16620  Biso   1.000  O
  O308     1.0000 0.63310  0.94300  0.66620  Biso   1.000  O
  O309     1.0000 0.94300  0.63310  0.33380  Biso   1.000  O
  O310     1.0000 0.05700  0.36690  0.83380  Biso   1.000  O
  O311     1.0000 0.13310  0.55700  0.08380  Biso   1.000  O
  O312     1.0000 0.86690  0.44300  0.58380  Biso   1.000  O
  O313     1.0000 0.66160  0.46440  0.04430  Biso   1.000  O
  O314     1.0000 0.33840  0.53560  0.54430  Biso   1.000  O
  O315     1.0000 0.03560  0.16160  0.29430  Biso   1.000  O
  O316     1.0000 0.96440  0.83840  0.79430  Biso   1.000  O
  O317     1.0000 0.83840  0.96440  0.20570  Biso   1.000  O
  O318     1.0000 0.16160  0.03560  0.70570  Biso   1.000  O
  O319     1.0000 0.46440  0.66160  0.95570  Biso   1.000  O
  O320     1.0000 0.53560  0.33840  0.45570  Biso   1.000  O
  K1       1.0000 0.50660  0.05160  0.15580  Biso   1.000  K
  K2       1.0000 0.49340  0.94840  0.65580  Biso   1.000  K
  K3       1.0000 0.44840  0.00660  0.40580  Biso   1.000  K
  K4       1.0000 0.55160  0.99340  0.90580  Biso   1.000  K
  K5       1.0000 0.99340  0.55160  0.09420  Biso   1.000  K
  K6       1.0000 0.00660  0.44840  0.59420  Biso   1.000  K
  K7       1.0000 0.05160  0.50660  0.84420  Biso   1.000  K
  K8       1.0000 0.94840  0.49340  0.34420  Biso   1.000  K
  Cu1      1.0000 0.49565  0.84121  0.89158  Biso   1.000  Cu
  Cu2      1.0000 0.50435  0.15879  0.39158  Biso   1.000  Cu
  Cu3      1.0000 0.65879  0.99565  0.14158  Biso   1.000  Cu
  Cu4      1.0000 0.34121  0.00435  0.64158  Biso   1.000  Cu
  Cu5      1.0000 0.00435  0.34121  0.35842  Biso   1.000  Cu
  Cu6      1.0000 0.99565  0.65879  0.85842  Biso   1.000  Cu
  Cu7      1.0000 0.84121  0.49565  0.10842  Biso   1.000  Cu
  Cu8      1.0000 0.15879  0.50435  0.60842  Biso   1.000  Cu
  Cu9      1.0000 0.46949  0.00130  0.78190  Biso   1.000  Cu
  Cu10     1.0000 0.53051  0.99870  0.28190  Biso   1.000  Cu
  Cu11     1.0000 0.49870  0.96949  0.03190  Biso   1.000  Cu
  Cu12     1.0000 0.50130  0.03051  0.53190  Biso   1.000  Cu
  Cu13     1.0000 0.03051  0.50130  0.46810  Biso   1.000  Cu
  Cu14     1.0000 0.96949  0.49870  0.96810  Biso   1.000  Cu
  Cu15     1.0000 0.00130  0.46949  0.21810  Biso   1.000  Cu
  Cu16     1.0000 0.99870  0.53051  0.71810  Biso   1.000  Cu
  Cu17     1.0000 0.45224  0.12589  0.92257  Biso   1.000  Cu
  Cu18     1.0000 0.54776  0.87411  0.42257  Biso   1.000  Cu
  Cu19     1.0000 0.37411  0.95224  0.17257  Biso   1.000  Cu
  Cu20     1.0000 0.62589  0.04776  0.67257  Biso   1.000  Cu
  Cu21     1.0000 0.04776  0.62589  0.32743  Biso   1.000  Cu
  Cu22     1.0000 0.95224  0.37411  0.82743  Biso   1.000  Cu
  Cu23     1.0000 0.12589  0.45224  0.07743  Biso   1.000  Cu
  Cu24     1.0000 0.87411  0.54776  0.57743  Biso   1.000  Cu
  O321     1.0000 0.50670  0.89130  0.95020  Biso   1.000  O
  O322     1.0000 0.49330  0.10870  0.45020  Biso   1.000  O
  O323     1.0000 0.60870  0.00670  0.20020  Biso   1.000  O
  O324     1.0000 0.39130  0.99330  0.70020  Biso   1.000  O
  O325     1.0000 0.99330  0.39130  0.29980  Biso   1.000  O
  O326     1.0000 0.00670  0.60870  0.79980  Biso   1.000  O
  O327     1.0000 0.89130  0.50670  0.04980  Biso   1.000  O
  O328     1.0000 0.10870  0.49330  0.54980  Biso   1.000  O
  O329     1.0000 0.48150  0.90400  0.84550  Biso   1.000  O
  O330     1.0000 0.51850  0.09600  0.34550  Biso   1.000  O
  O331     1.0000 0.59600  0.98150  0.09550  Biso   1.000  O
  O332     1.0000 0.40400  0.01850  0.59550  Biso   1.000  O
  O333     1.0000 0.01850  0.40400  0.40450  Biso   1.000  O
  O334     1.0000 0.98150  0.59600  0.90450  Biso   1.000  O
  O335     1.0000 0.90400  0.48150  0.15450  Biso   1.000  O
  O336     1.0000 0.09600  0.51850  0.65450  Biso   1.000  O
  O337     1.0000 0.47760  0.92420  0.76180  Biso   1.000  O
  O338     1.0000 0.52240  0.07580  0.26180  Biso   1.000  O
  O339     1.0000 0.57580  0.97760  0.01180  Biso   1.000  O
  O340     1.0000 0.42420  0.02240  0.51180  Biso   1.000  O
  O341     1.0000 0.02240  0.42420  0.48820  Biso   1.000  O
  O342     1.0000 0.97760  0.57580  0.98820  Biso   1.000  O
  O343     1.0000 0.92420  0.47760  0.23820  Biso   1.000  O
  O344     1.0000 0.07580  0.52240  0.73820  Biso   1.000  O
  O345     1.0000 0.51090  0.88890  0.03620  Biso   1.000  O
  O346     1.0000 0.48910  0.11110  0.53620  Biso   1.000  O
  O347     1.0000 0.61110  0.01090  0.28620  Biso   1.000  O
  O348     1.0000 0.38890  0.98910  0.78620  Biso   1.000  O
  O349     1.0000 0.98910  0.38890  0.21380  Biso   1.000  O
  O350     1.0000 0.01090  0.61110  0.71380  Biso   1.000  O
  O351     1.0000 0.88890  0.51090  0.96380  Biso   1.000  O
  O352     1.0000 0.11110  0.48910  0.46380  Biso   1.000  O
  O353     1.0000 0.48940  0.04740  0.05220  Biso   1.000  O
  O354     1.0000 0.51060  0.95260  0.55220  Biso   1.000  O
  O355     1.0000 0.45260  0.98940  0.30220  Biso   1.000  O
  O356     1.0000 0.54740  0.01060  0.80220  Biso   1.000  O
  O357     1.0000 0.01060  0.54740  0.19780  Biso   1.000  O
  O358     1.0000 0.98940  0.45260  0.69780  Biso   1.000  O
  O359     1.0000 0.04740  0.48940  0.94780  Biso   1.000  O
  O360     1.0000 0.95260  0.51060  0.44780  Biso   1.000  O
  O361     1.0000 0.45870  0.07930  0.77650  Biso   1.000  O
  O362     1.0000 0.54130  0.92070  0.27650  Biso   1.000  O
  O363     1.0000 0.42070  0.95870  0.02650  Biso   1.000  O
  O364     1.0000 0.57930  0.04130  0.52650  Biso   1.000  O
  O365     1.0000 0.04130  0.57930  0.47350  Biso   1.000  O
  O366     1.0000 0.95870  0.42070  0.97350  Biso   1.000  O
  O367     1.0000 0.07930  0.45870  0.22350  Biso   1.000  O
  O368     1.0000 0.92070  0.54130  0.72350  Biso   1.000  O
  O369     1.0000 0.45960  0.07720  0.86210  Biso   1.000  O
  O370     1.0000 0.54040  0.92280  0.36210  Biso   1.000  O
  O371     1.0000 0.42280  0.95960  0.11210  Biso   1.000  O
  O372     1.0000 0.57720  0.04040  0.61210  Biso   1.000  O
  O373     1.0000 0.04040  0.57720  0.38790  Biso   1.000  O
  O374     1.0000 0.95960  0.42280  0.88790  Biso   1.000  O
  O375     1.0000 0.07720  0.45960  0.13790  Biso   1.000  O
  O376     1.0000 0.92280  0.54040  0.63790  Biso   1.000  O
  O377     1.0000 0.47760  0.06490  0.96930  Biso   1.000  O
  O378     1.0000 0.52240  0.93510  0.46930  Biso   1.000  O
  O379     1.0000 0.43510  0.97760  0.21930  Biso   1.000  O
  O380     1.0000 0.56490  0.02240  0.71930  Biso   1.000  O
  O381     1.0000 0.02240  0.56490  0.28070  Biso   1.000  O
  O382     1.0000 0.97760  0.43510  0.78070  Biso   1.000  O
  O383     1.0000 0.06490  0.47760  0.03070  Biso   1.000  O
  O384     1.0000 0.93510  0.52240  0.53070  Biso   1.000  O
  N1       1.0000 0.51830  0.78200  0.94100  Biso   1.000  N
  N2       1.0000 0.48170  0.21800  0.44100  Biso   1.000  N
  N3       1.0000 0.71800  0.01830  0.19100  Biso   1.000  N
  N4       1.0000 0.28200  0.98170  0.69100  Biso   1.000  N
  N5       1.0000 0.98170  0.28200  0.30900  Biso   1.000  N
  N6       1.0000 0.01830  0.71800  0.80900  Biso   1.000  N
  N7       1.0000 0.78200  0.51830  0.05900  Biso   1.000  N
  N8       1.0000 0.21800  0.48170  0.55900  Biso   1.000  N
  H1       1.0000 0.49210  0.78670  0.91880  Biso   1.000  H
  H2       1.0000 0.50790  0.21330  0.41880  Biso   1.000  H
  H3       1.0000 0.71330  0.99210  0.16880  Biso   1.000  H
  H4       1.0000 0.28670  0.00790  0.66880  Biso   1.000  H
  H5       1.0000 0.00790  0.28670  0.33120  Biso   1.000  H
  H6       1.0000 0.99210  0.71330  0.83120  Biso   1.000  H
  H7       1.0000 0.78670  0.49210  0.08120  Biso   1.000  H
  H8       1.0000 0.21330  0.50790  0.58120  Biso   1.000  H
  C1       1.0000 0.51130  0.86490  0.99100  Biso   1.000  C
  C2       1.0000 0.48870  0.13510  0.49100  Biso   1.000  C
  C3       1.0000 0.63510  0.01130  0.24100  Biso   1.000  C
  C4       1.0000 0.36490  0.98870  0.74100  Biso   1.000  C
  C5       1.0000 0.98870  0.36490  0.25900  Biso   1.000  C
  C6       1.0000 0.01130  0.63510  0.75900  Biso   1.000  C
  C7       1.0000 0.86490  0.51130  0.00900  Biso   1.000  C
  C8       1.0000 0.13510  0.48870  0.50900  Biso   1.000  C
  C9       1.0000 0.51380  0.80130  0.99110  Biso   1.000  C
  C10      1.0000 0.48620  0.19870  0.49110  Biso   1.000  C
  C11      1.0000 0.69870  0.01380  0.24110  Biso   1.000  C
  C12      1.0000 0.30130  0.98620  0.74110  Biso   1.000  C
  C13      1.0000 0.98620  0.30130  0.25890  Biso   1.000  C
  C14      1.0000 0.01380  0.69870  0.75890  Biso   1.000  C
  C15      1.0000 0.80130  0.51380  0.00890  Biso   1.000  C
  C16      1.0000 0.19870  0.48620  0.50890  Biso   1.000  C
  H9       1.0000 0.47850  0.78730  0.00530  Biso   1.000  H
  H10      1.0000 0.52150  0.21270  0.50530  Biso   1.000  H
  H11      1.0000 0.71270  0.97850  0.25530  Biso   1.000  H
  H12      1.0000 0.28730  0.02150  0.75530  Biso   1.000  H
  H13      1.0000 0.02150  0.28730  0.24470  Biso   1.000  H
  H14      1.0000 0.97850  0.71270  0.74470  Biso   1.000  H
  H15      1.0000 0.78730  0.47850  0.99470  Biso   1.000  H
  H16      1.0000 0.21270  0.52150  0.49470  Biso   1.000  H
  C17      1.0000 0.56060  0.78120  0.02540  Biso   1.000  C
  C18      1.0000 0.43940  0.21880  0.52540  Biso   1.000  C
  C19      1.0000 0.71880  0.06060  0.27540  Biso   1.000  C
  C20      1.0000 0.28120  0.93940  0.77540  Biso   1.000  C
  C21      1.0000 0.93940  0.28120  0.22460  Biso   1.000  C
  C22      1.0000 0.06060  0.71880  0.72460  Biso   1.000  C
  C23      1.0000 0.78120  0.56060  0.97460  Biso   1.000  C
  C24      1.0000 0.21880  0.43940  0.47460  Biso   1.000  C
  H17      1.0000 0.56890  0.80760  0.05270  Biso   1.000  H
  H18      1.0000 0.43110  0.19240  0.55270  Biso   1.000  H
  H19      1.0000 0.69240  0.06890  0.30270  Biso   1.000  H
  H20      1.0000 0.30760  0.93110  0.80270  Biso   1.000  H
  H21      1.0000 0.93110  0.30760  0.19730  Biso   1.000  H
  H22      1.0000 0.06890  0.69240  0.69730  Biso   1.000  H
  H23      1.0000 0.80760  0.56890  0.94730  Biso   1.000  H
  H24      1.0000 0.19240  0.43110  0.44730  Biso   1.000  H
  H25      1.0000 0.55310  0.74460  0.03980  Biso   1.000  H
  H26      1.0000 0.44690  0.25540  0.53980  Biso   1.000  H
  H27      1.0000 0.75540  0.05310  0.28980  Biso   1.000  H
  H28      1.0000 0.24460  0.94690  0.78980  Biso   1.000  H
  H29      1.0000 0.94690  0.24460  0.21020  Biso   1.000  H
  H30      1.0000 0.05310  0.75540  0.71020  Biso   1.000  H
  H31      1.0000 0.74460  0.55310  0.96020  Biso   1.000  H
  H32      1.0000 0.25540  0.44690  0.46020  Biso   1.000  H
  H33      1.0000 0.54670  0.76410  0.05660  Biso   1.000  H
  H34      1.0000 0.45330  0.23590  0.55660  Biso   1.000  H
  H35      1.0000 0.73590  0.04670  0.30660  Biso   1.000  H
  H36      1.0000 0.26410  0.95330  0.80660  Biso   1.000  H
  H37      1.0000 0.95330  0.26410  0.19340  Biso   1.000  H
  H38      1.0000 0.04670  0.73590  0.69340  Biso   1.000  H
  H39      1.0000 0.76410  0.54670  0.94340  Biso   1.000  H
  H40      1.0000 0.23590  0.45330  0.44340  Biso   1.000  H
  H41      1.0000 0.58570  0.81170  0.03420  Biso   1.000  H
  H42      1.0000 0.41430  0.18830  0.53420  Biso   1.000  H
  H43      1.0000 0.68830  0.08570  0.28420  Biso   1.000  H
  H44      1.0000 0.31170  0.91430  0.78420  Biso   1.000  H
  H45      1.0000 0.91430  0.31170  0.21580  Biso   1.000  H
  H46      1.0000 0.08570  0.68830  0.71580  Biso   1.000  H
  H47      1.0000 0.81170  0.58570  0.96580  Biso   1.000  H
  H48      1.0000 0.18830  0.41430  0.46580  Biso   1.000  H
  C25      1.0000 0.57240  0.75200  0.92810  Biso   1.000  C
  C26      1.0000 0.42760  0.24800  0.42810  Biso   1.000  C
  C27      1.0000 0.74800  0.07240  0.17810  Biso   1.000  C
  C28      1.0000 0.25200  0.92760  0.67810  Biso   1.000  C
  C29      1.0000 0.92760  0.25200  0.32190  Biso   1.000  C
  C30      1.0000 0.07240  0.74800  0.82190  Biso   1.000  C
  C31      1.0000 0.75200  0.57240  0.07190  Biso   1.000  C
  C32      1.0000 0.24800  0.42760  0.57190  Biso   1.000  C
  H49      1.0000 0.59040  0.76570  0.89730  Biso   1.000  H
  H50      1.0000 0.40960  0.23430  0.39730  Biso   1.000  H
  H51      1.0000 0.73430  0.09040  0.14730  Biso   1.000  H
  H52      1.0000 0.26570  0.90960  0.64730  Biso   1.000  H
  H53      1.0000 0.90960  0.26570  0.35270  Biso   1.000  H
  H54      1.0000 0.09040  0.73430  0.85270  Biso   1.000  H
  H55      1.0000 0.76570  0.59040  0.10270  Biso   1.000  H
  H56      1.0000 0.23430  0.40960  0.60270  Biso   1.000  H
  H57      1.0000 0.56950  0.71150  0.92750  Biso   1.000  H
  H58      1.0000 0.43050  0.28850  0.42750  Biso   1.000  H
  H59      1.0000 0.78850  0.06950  0.17750  Biso   1.000  H
  H60      1.0000 0.21150  0.93050  0.67750  Biso   1.000  H
  H61      1.0000 0.93050  0.21150  0.32250  Biso   1.000  H
  H62      1.0000 0.06950  0.78850  0.82250  Biso   1.000  H
  H63      1.0000 0.71150  0.56950  0.07250  Biso   1.000  H
  H64      1.0000 0.28850  0.43050  0.57250  Biso   1.000  H
  H65      1.0000 0.59900  0.77740  0.91250  Biso   1.000  H
  H66      1.0000 0.40100  0.22260  0.41250  Biso   1.000  H
  H67      1.0000 0.72260  0.09900  0.16250  Biso   1.000  H
  H68      1.0000 0.27740  0.90100  0.66250  Biso   1.000  H
  H69      1.0000 0.90100  0.27740  0.33750  Biso   1.000  H
  H70      1.0000 0.09900  0.72260  0.83750  Biso   1.000  H
  H71      1.0000 0.77740  0.59900  0.08750  Biso   1.000  H
  H72      1.0000 0.22260  0.40100  0.58750  Biso   1.000  H
  H73      1.0000 0.56690  0.71990  0.90590  Biso   1.000  H
  H74      1.0000 0.43310  0.28010  0.40590  Biso   1.000  H
  H75      1.0000 0.78010  0.06690  0.15590  Biso   1.000  H
  H76      1.0000 0.21990  0.93310  0.65590  Biso   1.000  H
  H77      1.0000 0.93310  0.21990  0.34410  Biso   1.000  H
  H78      1.0000 0.06690  0.78010  0.84410  Biso   1.000  H
  H79      1.0000 0.71990  0.56690  0.09410  Biso   1.000  H
  H80      1.0000 0.28010  0.43310  0.59410  Biso   1.000  H
  C33      1.0000 0.60350  0.77970  0.98760  Biso   1.000  C
  C34      1.0000 0.39650  0.22030  0.48760  Biso   1.000  C
  C35      1.0000 0.72030  0.10350  0.23760  Biso   1.000  C
  C36      1.0000 0.27970  0.89650  0.73760  Biso   1.000  C
  C37      1.0000 0.89650  0.27970  0.26240  Biso   1.000  C
  C38      1.0000 0.10350  0.72030  0.76240  Biso   1.000  C
  C39      1.0000 0.77970  0.60350  0.01240  Biso   1.000  C
  C40      1.0000 0.22030  0.39650  0.51240  Biso   1.000  C
  H81      1.0000 0.63390  0.75580  0.99890  Biso   1.000  H
  H82      1.0000 0.36610  0.24420  0.49890  Biso   1.000  H
  H83      1.0000 0.74420  0.13390  0.24890  Biso   1.000  H
  H84      1.0000 0.25580  0.86610  0.74890  Biso   1.000  H
  H85      1.0000 0.86610  0.25580  0.25110  Biso   1.000  H
  H86      1.0000 0.13390  0.74420  0.75110  Biso   1.000  H
  H87      1.0000 0.75580  0.63390  0.00110  Biso   1.000  H
  H88      1.0000 0.24420  0.36610  0.50110  Biso   1.000  H
  H89      1.0000 0.61820  0.81700  0.98190  Biso   1.000  H
  H90      1.0000 0.38180  0.18300  0.48190  Biso   1.000  H
  H91      1.0000 0.68300  0.11820  0.23190  Biso   1.000  H
  H92      1.0000 0.31700  0.88180  0.73190  Biso   1.000  H
  H93      1.0000 0.88180  0.31700  0.26810  Biso   1.000  H
  H94      1.0000 0.11820  0.68300  0.76810  Biso   1.000  H
  H95      1.0000 0.81700  0.61820  0.01810  Biso   1.000  H
  H96      1.0000 0.18300  0.38180  0.51810  Biso   1.000  H
  C41      1.0000 0.59270  0.73280  0.98600  Biso   1.000  C
  C42      1.0000 0.40730  0.26720  0.48600  Biso   1.000  C
  C43      1.0000 0.76720  0.09270  0.23600  Biso   1.000  C
  C44      1.0000 0.23280  0.90730  0.73600  Biso   1.000  C
  C45      1.0000 0.90730  0.23280  0.26400  Biso   1.000  C
  C46      1.0000 0.09270  0.76720  0.76400  Biso   1.000  C
  C47      1.0000 0.73280  0.59270  0.01400  Biso   1.000  C
  C48      1.0000 0.26720  0.40730  0.51400  Biso   1.000  C
  H97      1.0000 0.63310  0.73450  0.98920  Biso   1.000  H
  H98      1.0000 0.36690  0.26550  0.48920  Biso   1.000  H
  H99      1.0000 0.76550  0.13310  0.23920  Biso   1.000  H
  H100     1.0000 0.23450  0.86690  0.73920  Biso   1.000  H
  H101     1.0000 0.86690  0.23450  0.26080  Biso   1.000  H
  H102     1.0000 0.13310  0.76550  0.76080  Biso   1.000  H
  H103     1.0000 0.73450  0.63310  0.01080  Biso   1.000  H
  H104     1.0000 0.26550  0.36690  0.51080  Biso   1.000  H
  H105     1.0000 0.58030  0.69510  0.99380  Biso   1.000  H
  H106     1.0000 0.41970  0.30490  0.49380  Biso   1.000  H
  H107     1.0000 0.80490  0.08030  0.24380  Biso   1.000  H
  H108     1.0000 0.19510  0.91970  0.74380  Biso   1.000  H
  H109     1.0000 0.91970  0.19510  0.25620  Biso   1.000  H
  H110     1.0000 0.08030  0.80490  0.75620  Biso   1.000  H
  H111     1.0000 0.69510  0.58030  0.00620  Biso   1.000  H
  H112     1.0000 0.30490  0.41970  0.50620  Biso   1.000  H
  N9       1.0000 0.48970  0.79220  0.83030  Biso   1.000  N
  N10      1.0000 0.51030  0.20780  0.33030  Biso   1.000  N
  N11      1.0000 0.70780  0.98970  0.08030  Biso   1.000  N
  N12      1.0000 0.29220  0.01030  0.58030  Biso   1.000  N
  N13      1.0000 0.01030  0.29220  0.41970  Biso   1.000  N
  N14      1.0000 0.98970  0.70780  0.91970  Biso   1.000  N
  N15      1.0000 0.79220  0.48970  0.16970  Biso   1.000  N
  N16      1.0000 0.20780  0.51030  0.66970  Biso   1.000  N
  H113     1.0000 0.52410  0.77780  0.82340  Biso   1.000  H
  H114     1.0000 0.47590  0.22220  0.32340  Biso   1.000  H
  H115     1.0000 0.72220  0.02410  0.07340  Biso   1.000  H
  H116     1.0000 0.27780  0.97590  0.57340  Biso   1.000  H
  H117     1.0000 0.97590  0.27780  0.42660  Biso   1.000  H
  H118     1.0000 0.02410  0.72220  0.92660  Biso   1.000  H
  H119     1.0000 0.77780  0.52410  0.17660  Biso   1.000  H
  H120     1.0000 0.22220  0.47590  0.67660  Biso   1.000  H
  C49      1.0000 0.47920  0.88940  0.79570  Biso   1.000  C
  C50      1.0000 0.52080  0.11060  0.29570  Biso   1.000  C
  C51      1.0000 0.61060  0.97920  0.04570  Biso   1.000  C
  C52      1.0000 0.38940  0.02080  0.54570  Biso   1.000  C
  C53      1.0000 0.02080  0.38940  0.45430  Biso   1.000  C
  C54      1.0000 0.97920  0.61060  0.95430  Biso   1.000  C
  C55      1.0000 0.88940  0.47920  0.20430  Biso   1.000  C
  C56      1.0000 0.11060  0.52080  0.70430  Biso   1.000  C
  C57      1.0000 0.47280  0.82940  0.78670  Biso   1.000  C
  C58      1.0000 0.52720  0.17060  0.28670  Biso   1.000  C
  C59      1.0000 0.67060  0.97280  0.03670  Biso   1.000  C
  C60      1.0000 0.32940  0.02720  0.53670  Biso   1.000  C
  C61      1.0000 0.02720  0.32940  0.46330  Biso   1.000  C
  C62      1.0000 0.97280  0.67060  0.96330  Biso   1.000  C
  C63      1.0000 0.82940  0.47280  0.21330  Biso   1.000  C
  C64      1.0000 0.17060  0.52720  0.71330  Biso   1.000  C
  H121     1.0000 0.49410  0.81890  0.75610  Biso   1.000  H
  H122     1.0000 0.50590  0.18110  0.25610  Biso   1.000  H
  H123     1.0000 0.68110  0.99410  0.00610  Biso   1.000  H
  H124     1.0000 0.31890  0.00590  0.50610  Biso   1.000  H
  H125     1.0000 0.00590  0.31890  0.49390  Biso   1.000  H
  H126     1.0000 0.99410  0.68110  0.99390  Biso   1.000  H
  H127     1.0000 0.81890  0.49410  0.24390  Biso   1.000  H
  H128     1.0000 0.18110  0.50590  0.74390  Biso   1.000  H
  C65      1.0000 0.40860  0.81370  0.77820  Biso   1.000  C
  C66      1.0000 0.59140  0.18630  0.27820  Biso   1.000  C
  C67      1.0000 0.68630  0.90860  0.02820  Biso   1.000  C
  C68      1.0000 0.31370  0.09140  0.52820  Biso   1.000  C
  C69      1.0000 0.09140  0.31370  0.47180  Biso   1.000  C
  C70      1.0000 0.90860  0.68630  0.97180  Biso   1.000  C
  C71      1.0000 0.81370  0.40860  0.22180  Biso   1.000  C
  C72      1.0000 0.18630  0.59140  0.72180  Biso   1.000  C
  H129     1.0000 0.38500  0.83180  0.80350  Biso   1.000  H
  H130     1.0000 0.61500  0.16820  0.30350  Biso   1.000  H
  H131     1.0000 0.66820  0.88500  0.05350  Biso   1.000  H
  H132     1.0000 0.33180  0.11500  0.55350  Biso   1.000  H
  H133     1.0000 0.11500  0.33180  0.44650  Biso   1.000  H
  H134     1.0000 0.88500  0.66820  0.94650  Biso   1.000  H
  H135     1.0000 0.83180  0.38500  0.19650  Biso   1.000  H
  H136     1.0000 0.16820  0.61500  0.69650  Biso   1.000  H
  H137     1.0000 0.39610  0.82440  0.74430  Biso   1.000  H
  H138     1.0000 0.60390  0.17560  0.24430  Biso   1.000  H
  H139     1.0000 0.67560  0.89610  0.99430  Biso   1.000  H
  H140     1.0000 0.32440  0.10390  0.49430  Biso   1.000  H
  H141     1.0000 0.10390  0.32440  0.50570  Biso   1.000  H
  H142     1.0000 0.89610  0.67560  0.00570  Biso   1.000  H
  H143     1.0000 0.82440  0.39610  0.25570  Biso   1.000  H
  H144     1.0000 0.17560  0.60390  0.75570  Biso   1.000  H
  C73      1.0000 0.40800  0.75020  0.78490  Biso   1.000  C
  C74      1.0000 0.59200  0.24980  0.28490  Biso   1.000  C
  C75      1.0000 0.74980  0.90800  0.03490  Biso   1.000  C
  C76      1.0000 0.25020  0.09200  0.53490  Biso   1.000  C
  C77      1.0000 0.09200  0.25020  0.46510  Biso   1.000  C
  C78      1.0000 0.90800  0.74980  0.96510  Biso   1.000  C
  C79      1.0000 0.75020  0.40800  0.21510  Biso   1.000  C
  C80      1.0000 0.24980  0.59200  0.71510  Biso   1.000  C
  H145     1.0000 0.37070  0.73640  0.79250  Biso   1.000  H
  H146     1.0000 0.62930  0.26360  0.29250  Biso   1.000  H
  H147     1.0000 0.76360  0.87070  0.04250  Biso   1.000  H
  H148     1.0000 0.23640  0.12930  0.54250  Biso   1.000  H
  H149     1.0000 0.12930  0.23640  0.45750  Biso   1.000  H
  H150     1.0000 0.87070  0.76360  0.95750  Biso   1.000  H
  H151     1.0000 0.73640  0.37070  0.20750  Biso   1.000  H
  H152     1.0000 0.26360  0.62930  0.70750  Biso   1.000  H
  H153     1.0000 0.42240  0.73120  0.75480  Biso   1.000  H
  H154     1.0000 0.57760  0.26880  0.25480  Biso   1.000  H
  H155     1.0000 0.76880  0.92240  0.00480  Biso   1.000  H
  H156     1.0000 0.23120  0.07760  0.50480  Biso   1.000  H
  H157     1.0000 0.07760  0.23120  0.49520  Biso   1.000  H
  H158     1.0000 0.92240  0.76880  0.99520  Biso   1.000  H
  H159     1.0000 0.73120  0.42240  0.24520  Biso   1.000  H
  H160     1.0000 0.26880  0.57760  0.74520  Biso   1.000  H
  C81      1.0000 0.44650  0.74390  0.82970  Biso   1.000  C
  C82      1.0000 0.55350  0.25610  0.32970  Biso   1.000  C
  C83      1.0000 0.75610  0.94650  0.07970  Biso   1.000  C
  C84      1.0000 0.24390  0.05350  0.57970  Biso   1.000  C
  C85      1.0000 0.05350  0.24390  0.42030  Biso   1.000  C
  C86      1.0000 0.94650  0.75610  0.92030  Biso   1.000  C
  C87      1.0000 0.74390  0.44650  0.17030  Biso   1.000  C
  C88      1.0000 0.25610  0.55350  0.67030  Biso   1.000  C
  H161     1.0000 0.46580  0.70830  0.82760  Biso   1.000  H
  H162     1.0000 0.53420  0.29170  0.32760  Biso   1.000  H
  H163     1.0000 0.79170  0.96580  0.07760  Biso   1.000  H
  H164     1.0000 0.20830  0.03420  0.57760  Biso   1.000  H
  H165     1.0000 0.03420  0.20830  0.42240  Biso   1.000  H
  H166     1.0000 0.96580  0.79170  0.92240  Biso   1.000  H
  H167     1.0000 0.70830  0.46580  0.17240  Biso   1.000  H
  H168     1.0000 0.29170  0.53420  0.67240  Biso   1.000  H
  H169     1.0000 0.42500  0.74440  0.86120  Biso   1.000  H
  H170     1.0000 0.57500  0.25560  0.36120  Biso   1.000  H
  H171     1.0000 0.75560  0.92500  0.11120  Biso   1.000  H
  H172     1.0000 0.24440  0.07500  0.61120  Biso   1.000  H
  H173     1.0000 0.07500  0.24440  0.38880  Biso   1.000  H
  H174     1.0000 0.92500  0.75560  0.88880  Biso   1.000  H
  H175     1.0000 0.74440  0.42500  0.13880  Biso   1.000  H
  H176     1.0000 0.25560  0.57500  0.63880  Biso   1.000  H
  N17      1.0000 0.43490  0.18700  0.87170  Biso   1.000  N
  N18      1.0000 0.56510  0.81300  0.37170  Biso   1.000  N
  N19      1.0000 0.31300  0.93490  0.12170  Biso   1.000  N
  N20      1.0000 0.68700  0.06510  0.62170  Biso   1.000  N
  N21      1.0000 0.06510  0.68700  0.37830  Biso   1.000  N
  N22      1.0000 0.93490  0.31300  0.87830  Biso   1.000  N
  N23      1.0000 0.18700  0.43490  0.12830  Biso   1.000  N
  N24      1.0000 0.81300  0.56510  0.62830  Biso   1.000  N
  H177     1.0000 0.39850  0.19740  0.87560  Biso   1.000  H
  H178     1.0000 0.60150  0.80260  0.37560  Biso   1.000  H
  H179     1.0000 0.30260  0.89850  0.12560  Biso   1.000  H
  H180     1.0000 0.69740  0.10150  0.62560  Biso   1.000  H
  H181     1.0000 0.10150  0.69740  0.37440  Biso   1.000  H
  H182     1.0000 0.89850  0.30260  0.87440  Biso   1.000  H
  H183     1.0000 0.19740  0.39850  0.12440  Biso   1.000  H
  H184     1.0000 0.80260  0.60150  0.62440  Biso   1.000  H
  C89      1.0000 0.45420  0.10320  0.81990  Biso   1.000  C
  C90      1.0000 0.54580  0.89680  0.31990  Biso   1.000  C
  C91      1.0000 0.39680  0.95420  0.06990  Biso   1.000  C
  C92      1.0000 0.60320  0.04580  0.56990  Biso   1.000  C
  C93      1.0000 0.04580  0.60320  0.43010  Biso   1.000  C
  C94      1.0000 0.95420  0.39680  0.93010  Biso   1.000  C
  C95      1.0000 0.10320  0.45420  0.18010  Biso   1.000  C
  C96      1.0000 0.89680  0.54580  0.68010  Biso   1.000  C
  C97      1.0000 0.44280  0.16820  0.82070  Biso   1.000  C
  C98      1.0000 0.55720  0.83180  0.32070  Biso   1.000  C
  C99      1.0000 0.33180  0.94280  0.07070  Biso   1.000  C
  C100     1.0000 0.66820  0.05720  0.57070  Biso   1.000  C
  C101     1.0000 0.05720  0.66820  0.42930  Biso   1.000  C
  C102     1.0000 0.94280  0.33180  0.92930  Biso   1.000  C
  C103     1.0000 0.16820  0.44280  0.17930  Biso   1.000  C
  C104     1.0000 0.83180  0.55720  0.67930  Biso   1.000  C
  H185     1.0000 0.40790  0.17490  0.80200  Biso   1.000  H
  H186     1.0000 0.59210  0.82510  0.30200  Biso   1.000  H
  H187     1.0000 0.32510  0.90790  0.05200  Biso   1.000  H
  H188     1.0000 0.67490  0.09210  0.55200  Biso   1.000  H
  H189     1.0000 0.09210  0.67490  0.44800  Biso   1.000  H
  H190     1.0000 0.90790  0.32510  0.94800  Biso   1.000  H
  H191     1.0000 0.17490  0.40790  0.19800  Biso   1.000  H
  H192     1.0000 0.82510  0.59210  0.69800  Biso   1.000  H
  C105     1.0000 0.48720  0.20300  0.79660  Biso   1.000  C
  C106     1.0000 0.51280  0.79700  0.29660  Biso   1.000  C
  C107     1.0000 0.29700  0.98720  0.04660  Biso   1.000  C
  C108     1.0000 0.70300  0.01280  0.54660  Biso   1.000  C
  C109     1.0000 0.01280  0.70300  0.45340  Biso   1.000  C
  C110     1.0000 0.98720  0.29700  0.95340  Biso   1.000  C
  C111     1.0000 0.20300  0.48720  0.20340  Biso   1.000  C
  C112     1.0000 0.79700  0.51280  0.70340  Biso   1.000  C
  H193     1.0000 0.52380  0.18580  0.80000  Biso   1.000  H
  H194     1.0000 0.47620  0.81420  0.30000  Biso   1.000  H
  H195     1.0000 0.31420  0.02380  0.05000  Biso   1.000  H
  H196     1.0000 0.68580  0.97620  0.55000  Biso   1.000  H
  H197     1.0000 0.97620  0.68580  0.45000  Biso   1.000  H
  H198     1.0000 0.02380  0.31420  0.95000  Biso   1.000  H
  H199     1.0000 0.18580  0.52380  0.20000  Biso   1.000  H
  H200     1.0000 0.81420  0.47620  0.70000  Biso   1.000  H
  H201     1.0000 0.47950  0.20990  0.76070  Biso   1.000  H
  H202     1.0000 0.52050  0.79010  0.26070  Biso   1.000  H
  H203     1.0000 0.29010  0.97950  0.01070  Biso   1.000  H
  H204     1.0000 0.70990  0.02050  0.51070  Biso   1.000  H
  H205     1.0000 0.02050  0.70990  0.48930  Biso   1.000  H
  H206     1.0000 0.97950  0.29010  0.98930  Biso   1.000  H
  H207     1.0000 0.20990  0.47950  0.23930  Biso   1.000  H
  H208     1.0000 0.79010  0.52050  0.73930  Biso   1.000  H
  C113     1.0000 0.48320  0.25040  0.82480  Biso   1.000  C
  C114     1.0000 0.51680  0.74960  0.32480  Biso   1.000  C
  C115     1.0000 0.24960  0.98320  0.07480  Biso   1.000  C
  C116     1.0000 0.75040  0.01680  0.57480  Biso   1.000  C
  C117     1.0000 0.01680  0.75040  0.42520  Biso   1.000  C
  C118     1.0000 0.98320  0.24960  0.92520  Biso   1.000  C
  C119     1.0000 0.25040  0.48320  0.17520  Biso   1.000  C
  C120     1.0000 0.74960  0.51680  0.67520  Biso   1.000  C
  H209     1.0000 0.45420  0.27430  0.81070  Biso   1.000  H
  H210     1.0000 0.54580  0.72570  0.31070  Biso   1.000  H
  H211     1.0000 0.22570  0.95420  0.06070  Biso   1.000  H
  H212     1.0000 0.77430  0.04580  0.56070  Biso   1.000  H
  H213     1.0000 0.04580  0.77430  0.43930  Biso   1.000  H
  H214     1.0000 0.95420  0.22570  0.93930  Biso   1.000  H
  H215     1.0000 0.27430  0.45420  0.18930  Biso   1.000  H
  H216     1.0000 0.72570  0.54580  0.68930  Biso   1.000  H
  H217     1.0000 0.51840  0.27060  0.82360  Biso   1.000  H
  H218     1.0000 0.48160  0.72940  0.32360  Biso   1.000  H
  H219     1.0000 0.22940  0.01840  0.07360  Biso   1.000  H
  H220     1.0000 0.77060  0.98160  0.57360  Biso   1.000  H
  H221     1.0000 0.98160  0.77060  0.42640  Biso   1.000  H
  H222     1.0000 0.01840  0.22940  0.92640  Biso   1.000  H
  H223     1.0000 0.27060  0.51840  0.17640  Biso   1.000  H
  H224     1.0000 0.72940  0.48160  0.67640  Biso   1.000  H
  C121     1.0000 0.47050  0.23740  0.87460  Biso   1.000  C
  C122     1.0000 0.52950  0.76260  0.37460  Biso   1.000  C
  C123     1.0000 0.26260  0.97050  0.12460  Biso   1.000  C
  C124     1.0000 0.73740  0.02950  0.62460  Biso   1.000  C
  C125     1.0000 0.02950  0.73740  0.37540  Biso   1.000  C
  C126     1.0000 0.97050  0.26260  0.87540  Biso   1.000  C
  C127     1.0000 0.23740  0.47050  0.12540  Biso   1.000  C
  C128     1.0000 0.76260  0.52950  0.62540  Biso   1.000  C
  H225     1.0000 0.45050  0.26790  0.89080  Biso   1.000  H
  H226     1.0000 0.54950  0.73210  0.39080  Biso   1.000  H
  H227     1.0000 0.23210  0.95050  0.14080  Biso   1.000  H
  H228     1.0000 0.76790  0.04950  0.64080  Biso   1.000  H
  H229     1.0000 0.04950  0.76790  0.35920  Biso   1.000  H
  H230     1.0000 0.95050  0.23210  0.85920  Biso   1.000  H
  H231     1.0000 0.26790  0.45050  0.10920  Biso   1.000  H
  H232     1.0000 0.73210  0.54950  0.60920  Biso   1.000  H
  H233     1.0000 0.50420  0.22980  0.89400  Biso   1.000  H
  H234     1.0000 0.49580  0.77020  0.39400  Biso   1.000  H
  H235     1.0000 0.27020  0.00420  0.14400  Biso   1.000  H
  H236     1.0000 0.72980  0.99580  0.64400  Biso   1.000  H
  H237     1.0000 0.99580  0.72980  0.35600  Biso   1.000  H
  H238     1.0000 0.00420  0.27020  0.85600  Biso   1.000  H
  H239     1.0000 0.22980  0.50420  0.10600  Biso   1.000  H
  H240     1.0000 0.77020  0.49580  0.60600  Biso   1.000  H
  N25      1.0000 0.45570  0.17490  0.98610  Biso   1.000  N
  N26      1.0000 0.54430  0.82510  0.48610  Biso   1.000  N
  N27      1.0000 0.32510  0.95570  0.23610  Biso   1.000  N
  N28      1.0000 0.67490  0.04430  0.73610  Biso   1.000  N
  N29      1.0000 0.04430  0.67490  0.26390  Biso   1.000  N
  N30      1.0000 0.95570  0.32510  0.76390  Biso   1.000  N
  N31      1.0000 0.17490  0.45570  0.01390  Biso   1.000  N
  N32      1.0000 0.82510  0.54430  0.51390  Biso   1.000  N
  H241     1.0000 0.47680  0.17560  0.95940  Biso   1.000  H
  H242     1.0000 0.52320  0.82440  0.45940  Biso   1.000  H
  H243     1.0000 0.32440  0.97680  0.20940  Biso   1.000  H
  H244     1.0000 0.67560  0.02320  0.70940  Biso   1.000  H
  H245     1.0000 0.02320  0.67560  0.29060  Biso   1.000  H
  H246     1.0000 0.97680  0.32440  0.79060  Biso   1.000  H
  H247     1.0000 0.17560  0.47680  0.04060  Biso   1.000  H
  H248     1.0000 0.82440  0.52320  0.54060  Biso   1.000  H
  C129     1.0000 0.48030  0.07960  0.01570  Biso   1.000  C
  C130     1.0000 0.51970  0.92040  0.51570  Biso   1.000  C
  C131     1.0000 0.42040  0.98030  0.26570  Biso   1.000  C
  C132     1.0000 0.57960  0.01970  0.76570  Biso   1.000  C
  C133     1.0000 0.01970  0.57960  0.23430  Biso   1.000  C
  C134     1.0000 0.98030  0.42040  0.73430  Biso   1.000  C
  C135     1.0000 0.07960  0.48030  0.98430  Biso   1.000  C
  C136     1.0000 0.92040  0.51970  0.48430  Biso   1.000  C
  C137     1.0000 0.46410  0.14060  0.03130  Biso   1.000  C
  C138     1.0000 0.53590  0.85940  0.53130  Biso   1.000  C
  C139     1.0000 0.35940  0.96410  0.28130  Biso   1.000  C
  C140     1.0000 0.64060  0.03590  0.78130  Biso   1.000  C
  C141     1.0000 0.03590  0.64060  0.21870  Biso   1.000  C
  C142     1.0000 0.96410  0.35940  0.71870  Biso   1.000  C
  C143     1.0000 0.14060  0.46410  0.96870  Biso   1.000  C
  C144     1.0000 0.85940  0.53590  0.46870  Biso   1.000  C
  H249     1.0000 0.49370  0.15680  0.05270  Biso   1.000  H
  H250     1.0000 0.50630  0.84320  0.55270  Biso   1.000  H
  H251     1.0000 0.34320  0.99370  0.30270  Biso   1.000  H
  H252     1.0000 0.65680  0.00630  0.80270  Biso   1.000  H
  H253     1.0000 0.00630  0.65680  0.19730  Biso   1.000  H
  H254     1.0000 0.99370  0.34320  0.69730  Biso   1.000  H
  H255     1.0000 0.15680  0.49370  0.94730  Biso   1.000  H
  H256     1.0000 0.84320  0.50630  0.44730  Biso   1.000  H
  C145     1.0000 0.40660  0.14460  0.05970  Biso   1.000  C
  C146     1.0000 0.59340  0.85540  0.55970  Biso   1.000  C
  C147     1.0000 0.35540  0.90660  0.30970  Biso   1.000  C
  C148     1.0000 0.64460  0.09340  0.80970  Biso   1.000  C
  C149     1.0000 0.09340  0.64460  0.19030  Biso   1.000  C
  C150     1.0000 0.90660  0.35540  0.69030  Biso   1.000  C
  C151     1.0000 0.14460  0.40660  0.94030  Biso   1.000  C
  C152     1.0000 0.85540  0.59340  0.44030  Biso   1.000  C
  H257     1.0000 0.38020  0.11770  0.04590  Biso   1.000  H
  H258     1.0000 0.61980  0.88230  0.54590  Biso   1.000  H
  H259     1.0000 0.38230  0.88020  0.29590  Biso   1.000  H
  H260     1.0000 0.61770  0.11980  0.79590  Biso   1.000  H
  H261     1.0000 0.11980  0.61770  0.20410  Biso   1.000  H
  H262     1.0000 0.88020  0.38230  0.70410  Biso   1.000  H
  H263     1.0000 0.11770  0.38020  0.95410  Biso   1.000  H
  H264     1.0000 0.88230  0.61980  0.45410  Biso   1.000  H
  H265     1.0000 0.41120  0.13750  0.09600  Biso   1.000  H
  H266     1.0000 0.58880  0.86250  0.59600  Biso   1.000  H
  H267     1.0000 0.36250  0.91120  0.34600  Biso   1.000  H
  H268     1.0000 0.63750  0.08880  0.84600  Biso   1.000  H
  H269     1.0000 0.08880  0.63750  0.15400  Biso   1.000  H
  H270     1.0000 0.91120  0.36250  0.65400  Biso   1.000  H
  H271     1.0000 0.13750  0.41120  0.90400  Biso   1.000  H
  H272     1.0000 0.86250  0.58880  0.40400  Biso   1.000  H
  C153     1.0000 0.38720  0.20140  0.05100  Biso   1.000  C
  C154     1.0000 0.61280  0.79860  0.55100  Biso   1.000  C
  C155     1.0000 0.29860  0.88720  0.30100  Biso   1.000  C
  C156     1.0000 0.70140  0.11280  0.80100  Biso   1.000  C
  C157     1.0000 0.11280  0.70140  0.19900  Biso   1.000  C
  C158     1.0000 0.88720  0.29860  0.69900  Biso   1.000  C
  C159     1.0000 0.20140  0.38720  0.94900  Biso   1.000  C
  C160     1.0000 0.79860  0.61280  0.44900  Biso   1.000  C
  H273     1.0000 0.40620  0.22810  0.07290  Biso   1.000  H
  H274     1.0000 0.59380  0.77190  0.57290  Biso   1.000  H
  H275     1.0000 0.27190  0.90620  0.32290  Biso   1.000  H
  H276     1.0000 0.72810  0.09380  0.82290  Biso   1.000  H
  H277     1.0000 0.09380  0.72810  0.17710  Biso   1.000  H
  H278     1.0000 0.90620  0.27190  0.67710  Biso   1.000  H
  H279     1.0000 0.22810  0.40620  0.92710  Biso   1.000  H
  H280     1.0000 0.77190  0.59380  0.42710  Biso   1.000  H
  H281     1.0000 0.34710  0.20470  0.05580  Biso   1.000  H
  H282     1.0000 0.65290  0.79530  0.55580  Biso   1.000  H
  H283     1.0000 0.29530  0.84710  0.30580  Biso   1.000  H
  H284     1.0000 0.70470  0.15290  0.80580  Biso   1.000  H
  H285     1.0000 0.15290  0.70470  0.19420  Biso   1.000  H
  H286     1.0000 0.84710  0.29530  0.69420  Biso   1.000  H
  H287     1.0000 0.20470  0.34710  0.94420  Biso   1.000  H
  H288     1.0000 0.79530  0.65290  0.44420  Biso   1.000  H
  C161     1.0000 0.40400  0.20890  0.99390  Biso   1.000  C
  C162     1.0000 0.59600  0.79110  0.49390  Biso   1.000  C
  C163     1.0000 0.29110  0.90400  0.24390  Biso   1.000  C
  C164     1.0000 0.70890  0.09600  0.74390  Biso   1.000  C
  C165     1.0000 0.09600  0.70890  0.25610  Biso   1.000  C
  C166     1.0000 0.90400  0.29110  0.75610  Biso   1.000  C
  C167     1.0000 0.20890  0.40400  0.00610  Biso   1.000  C
  C168     1.0000 0.79110  0.59600  0.50610  Biso   1.000  C
  H289     1.0000 0.37430  0.19580  0.97160  Biso   1.000  H
  H290     1.0000 0.62570  0.80420  0.47160  Biso   1.000  H
  H291     1.0000 0.30420  0.87430  0.22160  Biso   1.000  H
  H292     1.0000 0.69580  0.12570  0.72160  Biso   1.000  H
  H293     1.0000 0.12570  0.69580  0.27840  Biso   1.000  H
  H294     1.0000 0.87430  0.30420  0.77840  Biso   1.000  H
  H295     1.0000 0.19580  0.37430  0.02840  Biso   1.000  H
  H296     1.0000 0.80420  0.62570  0.52840  Biso   1.000  H
  H297     1.0000 0.41130  0.24800  0.98650  Biso   1.000  H
  H298     1.0000 0.58870  0.75200  0.48650  Biso   1.000  H
  H299     1.0000 0.25200  0.91130  0.23650  Biso   1.000  H
  H300     1.0000 0.74800  0.08870  0.73650  Biso   1.000  H
  H301     1.0000 0.08870  0.74800  0.26350  Biso   1.000  H
  H302     1.0000 0.91130  0.25200  0.76350  Biso   1.000  H
  H303     1.0000 0.24800  0.41130  0.01350  Biso   1.000  H
  H304     1.0000 0.75200  0.58870  0.51350  Biso   1.000  H
  O385     1.0000 0.36250  0.08870  0.93980  Biso   1.000  O
  O386     1.0000 0.63750  0.91130  0.43980  Biso   1.000  O
  O387     1.0000 0.41130  0.86250  0.18980  Biso   1.000  O
  O388     1.0000 0.58870  0.13750  0.68980  Biso   1.000  O
  O389     1.0000 0.13750  0.58870  0.31020  Biso   1.000  O
  O390     1.0000 0.86250  0.41130  0.81020  Biso   1.000  O
  O391     1.0000 0.08870  0.36250  0.06020  Biso   1.000  O
  O392     1.0000 0.91130  0.63750  0.56020  Biso   1.000  O
  O393     1.0000 0.51210  0.16880  0.15160  Biso   1.000  O
  O394     1.0000 0.48790  0.83120  0.65160  Biso   1.000  O
  O395     1.0000 0.33120  0.01210  0.40160  Biso   1.000  O
  O396     1.0000 0.66880  0.98790  0.90160  Biso   1.000  O
  O397     1.0000 0.98790  0.66880  0.09840  Biso   1.000  O
  O398     1.0000 0.01210  0.33120  0.59840  Biso   1.000  O
  O399     1.0000 0.16880  0.51210  0.84840  Biso   1.000  O
  O400     1.0000 0.83120  0.48790  0.34840  Biso   1.000  O
  O401     1.0000 0.52340  0.85720  0.15060  Biso   1.000  O
  O402     1.0000 0.47660  0.14280  0.65060  Biso   1.000  O
  O403     1.0000 0.64280  0.02340  0.40060  Biso   1.000  O
  O404     1.0000 0.35720  0.97660  0.90060  Biso   1.000  O
  O405     1.0000 0.97660  0.35720  0.09940  Biso   1.000  O
  O406     1.0000 0.02340  0.64280  0.59940  Biso   1.000  O
  O407     1.0000 0.85720  0.52340  0.84940  Biso   1.000  O
  O408     1.0000 0.14280  0.47660  0.34940  Biso   1.000  O
  O409     1.0000 0.52960  0.88790  0.16420  Biso   1.000  O
  O410     1.0000 0.47040  0.11210  0.66420  Biso   1.000  O
  O411     1.0000 0.61210  0.02960  0.41420  Biso   1.000  O
  O412     1.0000 0.38790  0.97040  0.91420  Biso   1.000  O
  O413     1.0000 0.97040  0.38790  0.08580  Biso   1.000  O
  O414     1.0000 0.02960  0.61210  0.58580  Biso   1.000  O
  O415     1.0000 0.88790  0.52960  0.83580  Biso   1.000  O
  O416     1.0000 0.11210  0.47040  0.33580  Biso   1.000  O
  O417     1.0000 0.52430  0.75200  0.15270  Biso   1.000  O
  O418     1.0000 0.47570  0.24800  0.65270  Biso   1.000  O
  O419     1.0000 0.74800  0.02430  0.40270  Biso   1.000  O
  O420     1.0000 0.25200  0.97570  0.90270  Biso   1.000  O
  O421     1.0000 0.97570  0.25200  0.09730  Biso   1.000  O
  O422     1.0000 0.02430  0.74800  0.59730  Biso   1.000  O
  O423     1.0000 0.75200  0.52430  0.84730  Biso   1.000  O
  O424     1.0000 0.24800  0.47570  0.34730  Biso   1.000  O
  O425     1.0000 0.51210  0.51610  0.11850  Biso   1.000  O
  O426     1.0000 0.48790  0.48390  0.61850  Biso   1.000  O
  O427     1.0000 0.98390  0.01210  0.36850  Biso   1.000  O
  O428     1.0000 0.01610  0.98790  0.86850  Biso   1.000  O
  O429     1.0000 0.98790  0.01610  0.13150  Biso   1.000  O
  O430     1.0000 0.01210  0.98390  0.63150  Biso   1.000  O
  O431     1.0000 0.51610  0.51210  0.88150  Biso   1.000  O
  O432     1.0000 0.48390  0.48790  0.38150  Biso   1.000  O
  O433     1.0000 0.47300  0.49500  0.05100  Biso   1.000  O
  O434     1.0000 0.52700  0.50500  0.55100  Biso   1.000  O
  O435     1.0000 0.00500  0.97300  0.30100  Biso   1.000  O
  O436     1.0000 0.99500  0.02700  0.80100  Biso   1.000  O
  O437     1.0000 0.02700  0.99500  0.19900  Biso   1.000  O
  O438     1.0000 0.97300  0.00500  0.69900  Biso   1.000  O
  O439     1.0000 0.49500  0.47300  0.94900  Biso   1.000  O
  O440     1.0000 0.50500  0.52700  0.44900  Biso   1.000  O
  O441     1.0000 0.62680  0.45860  0.89340  Biso   1.000  O
  O442     1.0000 0.37320  0.54140  0.39340  Biso   1.000  O
  O443     1.0000 0.04140  0.12680  0.14340  Biso   1.000  O
  O444     1.0000 0.95860  0.87320  0.64340  Biso   1.000  O
  O445     1.0000 0.87320  0.95860  0.35660  Biso   1.000  O
  O446     1.0000 0.12680  0.04140  0.85660  Biso   1.000  O
  O447     1.0000 0.45860  0.62680  0.10660  Biso   1.000  O
  O448     1.0000 0.54140  0.37320  0.60660  Biso   1.000  O
  O449     1.0000 0.88400  0.12600  0.16000  Biso   1.000  O
  O450     1.0000 0.11600  0.87400  0.66000  Biso   1.000  O
  O451     1.0000 0.37400  0.38400  0.41000  Biso   1.000  O
  O452     1.0000 0.62600  0.61600  0.91000  Biso   1.000  O
  O453     1.0000 0.61600  0.62600  0.09000  Biso   1.000  O
  O454     1.0000 0.38400  0.37400  0.59000  Biso   1.000  O
  O455     1.0000 0.12600  0.88400  0.84000  Biso   1.000  O
  O456     1.0000 0.87400  0.11600  0.34000  Biso   1.000  O
  O457     1.0000 0.91200  0.15400  0.15200  Biso   1.000  O
  O458     1.0000 0.08800  0.84600  0.65200  Biso   1.000  O
  O459     1.0000 0.34600  0.41200  0.40200  Biso   1.000  O
  O460     1.0000 0.65400  0.58800  0.90200  Biso   1.000  O
  O461     1.0000 0.58800  0.65400  0.09800  Biso   1.000  O
  O462     1.0000 0.41200  0.34600  0.59800  Biso   1.000  O
  O463     1.0000 0.15400  0.91200  0.84800  Biso   1.000  O
  O464     1.0000 0.84600  0.08800  0.34800  Biso   1.000  O
  O465     1.0000 0.60600  0.25400  0.72320  Biso   1.000  O
  O466     1.0000 0.39400  0.74600  0.22320  Biso   1.000  O
  O467     1.0000 0.24600  0.10600  0.97320  Biso   1.000  O
  O468     1.0000 0.75400  0.89400  0.47320  Biso   1.000  O
  O469     1.0000 0.89400  0.75400  0.52680  Biso   1.000  O
  O470     1.0000 0.10600  0.24600  0.02680  Biso   1.000  O
  O471     1.0000 0.25400  0.60600  0.27680  Biso   1.000  O
  O472     1.0000 0.74600  0.39400  0.77680  Biso   1.000  O
  O473     1.0000 0.08720  0.18800  0.03140  Biso   1.000  O
  O474     1.0000 0.91280  0.81200  0.53140  Biso   1.000  O
  O475     1.0000 0.31200  0.58720  0.28140  Biso   1.000  O
  O476     1.0000 0.68800  0.41280  0.78140  Biso   1.000  O
  O477     1.0000 0.41280  0.68800  0.21860  Biso   1.000  O
  O478     1.0000 0.58720  0.31200  0.71860  Biso   1.000  O
  O479     1.0000 0.18800  0.08720  0.96860  Biso   1.000  O
  O480     1.0000 0.81200  0.91280  0.46860  Biso   1.000  O
  O481     1.0000 0.65800  0.49600  0.80000  Biso   1.000  O
  O482     1.0000 0.34200  0.50400  0.30000  Biso   1.000  O
  O483     1.0000 0.00400  0.15800  0.05000  Biso   1.000  O
  O484     1.0000 0.99600  0.84200  0.55000  Biso   1.000  O
  O485     1.0000 0.84200  0.99600  0.45000  Biso   1.000  O
  O486     1.0000 0.15800  0.00400  0.95000  Biso   1.000  O
  O487     1.0000 0.49600  0.65800  0.20000  Biso   1.000  O
  O488     1.0000 0.50400  0.34200  0.70000  Biso   1.000  O
  O489     1.0000 0.67000  0.50600  0.83500  Biso   1.000  O
  O490     1.0000 0.33000  0.49400  0.33500  Biso   1.000  O
  O491     1.0000 0.99400  0.17000  0.08500  Biso   1.000  O
  O492     1.0000 0.00600  0.83000  0.58500  Biso   1.000  O
  O493     1.0000 0.83000  0.00600  0.41500  Biso   1.000  O
  O494     1.0000 0.17000  0.99400  0.91500  Biso   1.000  O
  O495     1.0000 0.50600  0.67000  0.16500  Biso   1.000  O
  O496     1.0000 0.49400  0.33000  0.66500  Biso   1.000  O
  O497     1.0000 0.91100  0.09200  0.88700  Biso   1.000  O
  O498     1.0000 0.08900  0.90800  0.38700  Biso   1.000  O
  O499     1.0000 0.40800  0.41100  0.13700  Biso   1.000  O
  O500     1.0000 0.59200  0.58900  0.63700  Biso   1.000  O
  O501     1.0000 0.58900  0.59200  0.36300  Biso   1.000  O
  O502     1.0000 0.41100  0.40800  0.86300  Biso   1.000  O
  O503     1.0000 0.09200  0.91100  0.11300  Biso   1.000  O
  O504     1.0000 0.90800  0.08900  0.61300  Biso   1.000  O
  O505     1.0000 0.42100  0.44900  0.08800  Biso   1.000  O
  O506     1.0000 0.57900  0.55100  0.58800  Biso   1.000  O
  O507     1.0000 0.05100  0.92100  0.33800  Biso   1.000  O
  O508     1.0000 0.94900  0.07900  0.83800  Biso   1.000  O
  O509     1.0000 0.07900  0.94900  0.16200  Biso   1.000  O
  O510     1.0000 0.92100  0.05100  0.66200  Biso   1.000  O
  O511     1.0000 0.44900  0.42100  0.91200  Biso   1.000  O
  O512     1.0000 0.55100  0.57900  0.41200  Biso   1.000  O
