data_image0
_cell_length_a       30.3969
_cell_length_b       8.722
_cell_length_c       36.9728
_cell_angle_alpha    90
_cell_angle_beta     114.471
_cell_angle_gamma    90

_symmetry_space_group_name_H-M    "P 1"
_symmetry_int_tables_number       1

loop_
  _symmetry_equiv_pos_as_xyz
  'x, y, z'

loop_
  _atom_site_label
  _atom_site_occupancy
  _atom_site_fract_x
  _atom_site_fract_y
  _atom_site_fract_z
  _atom_site_thermal_displace_type
  _atom_site_B_iso_or_equiv
  _atom_site_type_symbol
  Cu1      1.0000 0.49982  0.54198  0.37174  Biso   1.000  Cu
  Cu2      1.0000 0.99982  0.04198  0.37174  Biso   1.000  Cu
  Cu3      1.0000 0.50018  0.54198  0.12826  Biso   1.000  Cu
  Cu4      1.0000 0.00018  0.04198  0.12826  Biso   1.000  Cu
  Cu5      1.0000 0.50018  0.45802  0.62826  Biso   1.000  Cu
  Cu6      1.0000 0.00018  0.95802  0.62826  Biso   1.000  Cu
  Cu7      1.0000 0.49982  0.45802  0.87174  Biso   1.000  Cu
  Cu8      1.0000 0.99982  0.95802  0.87174  Biso   1.000  Cu
  Cu9      1.0000 0.75021  0.80794  0.37713  Biso   1.000  Cu
  Cu10     1.0000 0.25021  0.30794  0.37713  Biso   1.000  Cu
  Cu11     1.0000 0.24979  0.80794  0.12287  Biso   1.000  Cu
  Cu12     1.0000 0.74979  0.30794  0.12287  Biso   1.000  Cu
  Cu13     1.0000 0.24979  0.19206  0.62287  Biso   1.000  Cu
  Cu14     1.0000 0.74979  0.69206  0.62287  Biso   1.000  Cu
  Cu15     1.0000 0.75021  0.19206  0.87713  Biso   1.000  Cu
  Cu16     1.0000 0.25021  0.69206  0.87713  Biso   1.000  Cu
  F1       1.0000 0.41720  0.76130  0.25380  Biso   1.000  F
  F2       1.0000 0.91720  0.26130  0.25380  Biso   1.000  F
  F3       1.0000 0.58280  0.76130  0.24620  Biso   1.000  F
  F4       1.0000 0.08280  0.26130  0.24620  Biso   1.000  F
  F5       1.0000 0.58280  0.23870  0.74620  Biso   1.000  F
  F6       1.0000 0.08280  0.73870  0.74620  Biso   1.000  F
  F7       1.0000 0.41720  0.23870  0.75380  Biso   1.000  F
  F8       1.0000 0.91720  0.73870  0.75380  Biso   1.000  F
  F9       1.0000 0.45480  0.65400  0.22910  Biso   1.000  F
  F10      1.0000 0.95480  0.15400  0.22910  Biso   1.000  F
  F11      1.0000 0.54520  0.65400  0.27090  Biso   1.000  F
  F12      1.0000 0.04520  0.15400  0.27090  Biso   1.000  F
  F13      1.0000 0.54520  0.34600  0.77090  Biso   1.000  F
  F14      1.0000 0.04520  0.84600  0.77090  Biso   1.000  F
  F15      1.0000 0.45480  0.34600  0.72910  Biso   1.000  F
  F16      1.0000 0.95480  0.84600  0.72910  Biso   1.000  F
  F17      1.0000 0.38810  0.56500  0.22720  Biso   1.000  F
  F18      1.0000 0.88810  0.06500  0.22720  Biso   1.000  F
  F19      1.0000 0.61190  0.56500  0.27280  Biso   1.000  F
  F20      1.0000 0.11190  0.06500  0.27280  Biso   1.000  F
  F21      1.0000 0.61190  0.43500  0.77280  Biso   1.000  F
  F22      1.0000 0.11190  0.93500  0.77280  Biso   1.000  F
  F23      1.0000 0.38810  0.43500  0.72720  Biso   1.000  F
  F24      1.0000 0.88810  0.93500  0.72720  Biso   1.000  F
  F25      1.0000 0.47290  0.08000  0.27470  Biso   1.000  F
  F26      1.0000 0.97290  0.58000  0.27470  Biso   1.000  F
  F27      1.0000 0.52710  0.08000  0.22530  Biso   1.000  F
  F28      1.0000 0.02710  0.58000  0.22530  Biso   1.000  F
  F29      1.0000 0.52710  0.92000  0.72530  Biso   1.000  F
  F30      1.0000 0.02710  0.42000  0.72530  Biso   1.000  F
  F31      1.0000 0.47290  0.92000  0.77470  Biso   1.000  F
  F32      1.0000 0.97290  0.42000  0.77470  Biso   1.000  F
  F33      1.0000 0.45870  0.04470  0.32430  Biso   1.000  F
  F34      1.0000 0.95870  0.54470  0.32430  Biso   1.000  F
  F35      1.0000 0.54130  0.04470  0.17570  Biso   1.000  F
  F36      1.0000 0.04130  0.54470  0.17570  Biso   1.000  F
  F37      1.0000 0.54130  0.95530  0.67570  Biso   1.000  F
  F38      1.0000 0.04130  0.45530  0.67570  Biso   1.000  F
  F39      1.0000 0.45870  0.95530  0.82430  Biso   1.000  F
  F40      1.0000 0.95870  0.45530  0.82430  Biso   1.000  F
  F41      1.0000 0.53060  0.07500  0.33250  Biso   1.000  F
  F42      1.0000 0.03060  0.57500  0.33250  Biso   1.000  F
  F43      1.0000 0.46940  0.07500  0.16750  Biso   1.000  F
  F44      1.0000 0.96940  0.57500  0.16750  Biso   1.000  F
  F45      1.0000 0.46940  0.92500  0.66750  Biso   1.000  F
  F46      1.0000 0.96940  0.42500  0.66750  Biso   1.000  F
  F47      1.0000 0.53060  0.92500  0.83250  Biso   1.000  F
  F48      1.0000 0.03060  0.42500  0.83250  Biso   1.000  F
  F49      1.0000 0.46830  0.00800  0.41170  Biso   1.000  F
  F50      1.0000 0.96830  0.50800  0.41170  Biso   1.000  F
  F51      1.0000 0.53170  0.00800  0.08830  Biso   1.000  F
  F52      1.0000 0.03170  0.50800  0.08830  Biso   1.000  F
  F53      1.0000 0.53170  0.99200  0.58830  Biso   1.000  F
  F54      1.0000 0.03170  0.49200  0.58830  Biso   1.000  F
  F55      1.0000 0.46830  0.99200  0.91170  Biso   1.000  F
  F56      1.0000 0.96830  0.49200  0.91170  Biso   1.000  F
  F57      1.0000 0.52310  0.99480  0.47050  Biso   1.000  F
  F58      1.0000 0.02310  0.49480  0.47050  Biso   1.000  F
  F59      1.0000 0.47690  0.99480  0.02950  Biso   1.000  F
  F60      1.0000 0.97690  0.49480  0.02950  Biso   1.000  F
  F61      1.0000 0.47690  0.00520  0.52950  Biso   1.000  F
  F62      1.0000 0.97690  0.50520  0.52950  Biso   1.000  F
  F63      1.0000 0.52310  0.00520  0.97050  Biso   1.000  F
  F64      1.0000 0.02310  0.50520  0.97050  Biso   1.000  F
  F65      1.0000 0.54110  0.03890  0.42280  Biso   1.000  F
  F66      1.0000 0.04110  0.53890  0.42280  Biso   1.000  F
  F67      1.0000 0.45890  0.03890  0.07720  Biso   1.000  F
  F68      1.0000 0.95890  0.53890  0.07720  Biso   1.000  F
  F69      1.0000 0.45890  0.96110  0.57720  Biso   1.000  F
  F70      1.0000 0.95890  0.46110  0.57720  Biso   1.000  F
  F71      1.0000 0.54110  0.96110  0.92280  Biso   1.000  F
  F72      1.0000 0.04110  0.46110  0.92280  Biso   1.000  F
  F73      1.0000 0.57370  0.51420  0.52620  Biso   1.000  F
  F74      1.0000 0.07370  0.01420  0.52620  Biso   1.000  F
  F75      1.0000 0.42630  0.51420  0.97380  Biso   1.000  F
  F76      1.0000 0.92630  0.01420  0.97380  Biso   1.000  F
  F77      1.0000 0.42630  0.48580  0.47380  Biso   1.000  F
  F78      1.0000 0.92630  0.98580  0.47380  Biso   1.000  F
  F79      1.0000 0.57370  0.48580  0.02620  Biso   1.000  F
  F80      1.0000 0.07370  0.98580  0.02620  Biso   1.000  F
  F81      1.0000 0.53940  0.32810  0.49540  Biso   1.000  F
  F82      1.0000 0.03940  0.82810  0.49540  Biso   1.000  F
  F83      1.0000 0.46060  0.32810  0.00460  Biso   1.000  F
  F84      1.0000 0.96060  0.82810  0.00460  Biso   1.000  F
  F85      1.0000 0.46060  0.67190  0.50460  Biso   1.000  F
  F86      1.0000 0.96060  0.17190  0.50460  Biso   1.000  F
  F87      1.0000 0.53940  0.67190  0.99540  Biso   1.000  F
  F88      1.0000 0.03940  0.17190  0.99540  Biso   1.000  F
  F89      1.0000 0.60370  0.37900  0.49670  Biso   1.000  F
  F90      1.0000 0.10370  0.87900  0.49670  Biso   1.000  F
  F91      1.0000 0.39630  0.37900  0.00330  Biso   1.000  F
  F92      1.0000 0.89630  0.87900  0.00330  Biso   1.000  F
  F93      1.0000 0.39630  0.62100  0.50330  Biso   1.000  F
  F94      1.0000 0.89630  0.12100  0.50330  Biso   1.000  F
  F95      1.0000 0.60370  0.62100  0.99670  Biso   1.000  F
  F96      1.0000 0.10370  0.12100  0.99670  Biso   1.000  F
  F97      1.0000 0.68550  0.23790  0.30120  Biso   1.000  F
  F98      1.0000 0.18550  0.73790  0.30120  Biso   1.000  F
  F99      1.0000 0.31450  0.23790  0.19880  Biso   1.000  F
  F100     1.0000 0.81450  0.73790  0.19880  Biso   1.000  F
  F101     1.0000 0.31450  0.76210  0.69880  Biso   1.000  F
  F102     1.0000 0.81450  0.26210  0.69880  Biso   1.000  F
  F103     1.0000 0.68550  0.76210  0.80120  Biso   1.000  F
  F104     1.0000 0.18550  0.26210  0.80120  Biso   1.000  F
  F105     1.0000 0.64130  0.11150  0.24960  Biso   1.000  F
  F106     1.0000 0.14130  0.61150  0.24960  Biso   1.000  F
  F107     1.0000 0.35870  0.11150  0.25040  Biso   1.000  F
  F108     1.0000 0.85870  0.61150  0.25040  Biso   1.000  F
  F109     1.0000 0.35870  0.88850  0.75040  Biso   1.000  F
  F110     1.0000 0.85870  0.38850  0.75040  Biso   1.000  F
  F111     1.0000 0.64130  0.88850  0.74960  Biso   1.000  F
  F112     1.0000 0.14130  0.38850  0.74960  Biso   1.000  F
  F113     1.0000 0.62470  0.11560  0.29980  Biso   1.000  F
  F114     1.0000 0.12470  0.61560  0.29980  Biso   1.000  F
  F115     1.0000 0.37530  0.11560  0.20020  Biso   1.000  F
  F116     1.0000 0.87530  0.61560  0.20020  Biso   1.000  F
  F117     1.0000 0.37530  0.88440  0.70020  Biso   1.000  F
  F118     1.0000 0.87530  0.38440  0.70020  Biso   1.000  F
  F119     1.0000 0.62470  0.88440  0.79980  Biso   1.000  F
  F120     1.0000 0.12470  0.38440  0.79980  Biso   1.000  F
  F121     1.0000 0.78190  0.61200  0.27640  Biso   1.000  F
  F122     1.0000 0.28190  0.11200  0.27640  Biso   1.000  F
  F123     1.0000 0.21810  0.61200  0.22360  Biso   1.000  F
  F124     1.0000 0.71810  0.11200  0.22360  Biso   1.000  F
  F125     1.0000 0.21810  0.38800  0.72360  Biso   1.000  F
  F126     1.0000 0.71810  0.88800  0.72360  Biso   1.000  F
  F127     1.0000 0.78190  0.38800  0.77640  Biso   1.000  F
  F128     1.0000 0.28190  0.88800  0.77640  Biso   1.000  F
  F129     1.0000 0.71320  0.67130  0.23160  Biso   1.000  F
  F130     1.0000 0.21320  0.17130  0.23160  Biso   1.000  F
  F131     1.0000 0.28680  0.67130  0.26840  Biso   1.000  F
  F132     1.0000 0.78680  0.17130  0.26840  Biso   1.000  F
  F133     1.0000 0.28680  0.32870  0.76840  Biso   1.000  F
  F134     1.0000 0.78680  0.82870  0.76840  Biso   1.000  F
  F135     1.0000 0.71320  0.32870  0.73160  Biso   1.000  F
  F136     1.0000 0.21320  0.82870  0.73160  Biso   1.000  F
  F137     1.0000 0.72150  0.48210  0.27320  Biso   1.000  F
  F138     1.0000 0.22150  0.98210  0.27320  Biso   1.000  F
  F139     1.0000 0.27850  0.48210  0.22680  Biso   1.000  F
  F140     1.0000 0.77850  0.98210  0.22680  Biso   1.000  F
  F141     1.0000 0.27850  0.51790  0.72680  Biso   1.000  F
  F142     1.0000 0.77850  0.01790  0.72680  Biso   1.000  F
  F143     1.0000 0.72150  0.51790  0.77320  Biso   1.000  F
  F144     1.0000 0.22150  0.01790  0.77320  Biso   1.000  F
  F145     1.0000 0.78820  0.13830  0.48450  Biso   1.000  F
  F146     1.0000 0.28820  0.63830  0.48450  Biso   1.000  F
  F147     1.0000 0.21180  0.13830  0.01550  Biso   1.000  F
  F148     1.0000 0.71180  0.63830  0.01550  Biso   1.000  F
  F149     1.0000 0.21180  0.86170  0.51550  Biso   1.000  F
  F150     1.0000 0.71180  0.36170  0.51550  Biso   1.000  F
  F151     1.0000 0.78820  0.86170  0.98450  Biso   1.000  F
  F152     1.0000 0.28820  0.36170  0.98450  Biso   1.000  F
  F153     1.0000 0.79520  0.95770  0.52450  Biso   1.000  F
  F154     1.0000 0.29520  0.45770  0.52450  Biso   1.000  F
  F155     1.0000 0.20480  0.95770  0.97550  Biso   1.000  F
  F156     1.0000 0.70480  0.45770  0.97550  Biso   1.000  F
  F157     1.0000 0.20480  0.04230  0.47550  Biso   1.000  F
  F158     1.0000 0.70480  0.54230  0.47550  Biso   1.000  F
  F159     1.0000 0.79520  0.04230  0.02450  Biso   1.000  F
  F160     1.0000 0.29520  0.54230  0.02450  Biso   1.000  F
  F161     1.0000 0.72800  0.01860  0.48160  Biso   1.000  F
  F162     1.0000 0.22800  0.51860  0.48160  Biso   1.000  F
  F163     1.0000 0.27200  0.01860  0.01840  Biso   1.000  F
  F164     1.0000 0.77200  0.51860  0.01840  Biso   1.000  F
  F165     1.0000 0.27200  0.98140  0.51840  Biso   1.000  F
  F166     1.0000 0.77200  0.48140  0.51840  Biso   1.000  F
  F167     1.0000 0.72800  0.98140  0.98160  Biso   1.000  F
  F168     1.0000 0.22800  0.48140  0.98160  Biso   1.000  F
  F169     1.0000 0.88210  0.51850  0.45500  Biso   1.000  F
  F170     1.0000 0.38210  0.01850  0.45500  Biso   1.000  F
  F171     1.0000 0.11790  0.51850  0.04500  Biso   1.000  F
  F172     1.0000 0.61790  0.01850  0.04500  Biso   1.000  F
  F173     1.0000 0.11790  0.48150  0.54500  Biso   1.000  F
  F174     1.0000 0.61790  0.98150  0.54500  Biso   1.000  F
  F175     1.0000 0.88210  0.48150  0.95500  Biso   1.000  F
  F176     1.0000 0.38210  0.98150  0.95500  Biso   1.000  F
  F177     1.0000 0.86410  0.51280  0.50459  Biso   1.000  F
  F178     1.0000 0.36410  0.01280  0.50459  Biso   1.000  F
  F179     1.0000 0.13590  0.51280  0.99541  Biso   1.000  F
  F180     1.0000 0.63590  0.01280  0.99541  Biso   1.000  F
  F181     1.0000 0.13590  0.48720  0.49541  Biso   1.000  F
  F182     1.0000 0.63590  0.98720  0.49541  Biso   1.000  F
  F183     1.0000 0.86410  0.48720  0.00459  Biso   1.000  F
  F184     1.0000 0.36410  0.98720  0.00459  Biso   1.000  F
  F185     1.0000 0.82260  0.38650  0.45250  Biso   1.000  F
  F186     1.0000 0.32260  0.88650  0.45250  Biso   1.000  F
  F187     1.0000 0.17740  0.38650  0.04750  Biso   1.000  F
  F188     1.0000 0.67740  0.88650  0.04750  Biso   1.000  F
  F189     1.0000 0.17740  0.61350  0.54750  Biso   1.000  F
  F190     1.0000 0.67740  0.11350  0.54750  Biso   1.000  F
  F191     1.0000 0.82260  0.61350  0.95250  Biso   1.000  F
  F192     1.0000 0.32260  0.11350  0.95250  Biso   1.000  F
  F193     1.0000 0.44400  0.76400  0.24760  Biso   1.000  F
  F194     1.0000 0.94400  0.26400  0.24760  Biso   1.000  F
  F195     1.0000 0.55600  0.76400  0.25240  Biso   1.000  F
  F196     1.0000 0.05600  0.26400  0.25240  Biso   1.000  F
  F197     1.0000 0.55600  0.23600  0.75240  Biso   1.000  F
  F198     1.0000 0.05600  0.73600  0.75240  Biso   1.000  F
  F199     1.0000 0.44400  0.23600  0.74760  Biso   1.000  F
  F200     1.0000 0.94400  0.73600  0.74760  Biso   1.000  F
  F201     1.0000 0.38510  0.64000  0.23960  Biso   1.000  F
  F202     1.0000 0.88510  0.14000  0.23960  Biso   1.000  F
  F203     1.0000 0.61490  0.64000  0.26040  Biso   1.000  F
  F204     1.0000 0.11490  0.14000  0.26040  Biso   1.000  F
  F205     1.0000 0.61490  0.36000  0.76040  Biso   1.000  F
  F206     1.0000 0.11490  0.86000  0.76040  Biso   1.000  F
  F207     1.0000 0.38510  0.36000  0.73960  Biso   1.000  F
  F208     1.0000 0.88510  0.86000  0.73960  Biso   1.000  F
  F209     1.0000 0.43320  0.56700  0.21780  Biso   1.000  F
  F210     1.0000 0.93320  0.06700  0.21780  Biso   1.000  F
  F211     1.0000 0.56680  0.56700  0.28220  Biso   1.000  F
  F212     1.0000 0.06680  0.06700  0.28220  Biso   1.000  F
  F213     1.0000 0.56680  0.43300  0.78220  Biso   1.000  F
  F214     1.0000 0.06680  0.93300  0.78220  Biso   1.000  F
  F215     1.0000 0.43320  0.43300  0.71780  Biso   1.000  F
  F216     1.0000 0.93320  0.93300  0.71780  Biso   1.000  F
  F217     1.0000 0.68820  0.56200  0.24050  Biso   1.000  F
  F218     1.0000 0.18820  0.06200  0.24050  Biso   1.000  F
  F219     1.0000 0.31180  0.56200  0.25950  Biso   1.000  F
  F220     1.0000 0.81180  0.06200  0.25950  Biso   1.000  F
  F221     1.0000 0.31180  0.43800  0.75950  Biso   1.000  F
  F222     1.0000 0.81180  0.93800  0.75950  Biso   1.000  F
  F223     1.0000 0.68820  0.43800  0.74050  Biso   1.000  F
  F224     1.0000 0.18820  0.93800  0.74050  Biso   1.000  F
  F225     1.0000 0.74870  0.50000  0.27770  Biso   1.000  F
  F226     1.0000 0.24870  0.00000  0.27770  Biso   1.000  F
  F227     1.0000 0.25130  0.50000  0.22230  Biso   1.000  F
  F228     1.0000 0.75130  0.00000  0.22230  Biso   1.000  F
  F229     1.0000 0.25130  0.50000  0.72230  Biso   1.000  F
  F230     1.0000 0.75130  0.00000  0.72230  Biso   1.000  F
  F231     1.0000 0.74870  0.50000  0.77770  Biso   1.000  F
  F232     1.0000 0.24870  0.00000  0.77770  Biso   1.000  F
  F233     1.0000 0.74850  0.66900  0.24450  Biso   1.000  F
  F234     1.0000 0.24850  0.16900  0.24450  Biso   1.000  F
  F235     1.0000 0.25150  0.66900  0.25550  Biso   1.000  F
  F236     1.0000 0.75150  0.16900  0.25550  Biso   1.000  F
  F237     1.0000 0.25150  0.33100  0.75550  Biso   1.000  F
  F238     1.0000 0.75150  0.83100  0.75550  Biso   1.000  F
  F239     1.0000 0.74850  0.33100  0.74450  Biso   1.000  F
  F240     1.0000 0.24850  0.83100  0.74450  Biso   1.000  F
  O1       1.0000 0.47030  0.62260  0.31708  Biso   1.000  O
  O2       1.0000 0.97030  0.12260  0.31708  Biso   1.000  O
  O3       1.0000 0.52970  0.62260  0.18292  Biso   1.000  O
  O4       1.0000 0.02970  0.12260  0.18292  Biso   1.000  O
  O5       1.0000 0.52970  0.37740  0.68292  Biso   1.000  O
  O6       1.0000 0.02970  0.87740  0.68292  Biso   1.000  O
  O7       1.0000 0.47030  0.37740  0.81708  Biso   1.000  O
  O8       1.0000 0.97030  0.87740  0.81708  Biso   1.000  O
  O9       1.0000 0.49810  0.33330  0.35242  Biso   1.000  O
  O10      1.0000 0.99810  0.83330  0.35242  Biso   1.000  O
  O11      1.0000 0.50190  0.33330  0.14758  Biso   1.000  O
  O12      1.0000 0.00190  0.83330  0.14758  Biso   1.000  O
  O13      1.0000 0.50190  0.66670  0.64758  Biso   1.000  O
  O14      1.0000 0.00190  0.16670  0.64758  Biso   1.000  O
  O15      1.0000 0.49810  0.66670  0.85242  Biso   1.000  O
  O16      1.0000 0.99810  0.16670  0.85242  Biso   1.000  O
  O17      1.0000 0.50110  0.75020  0.39151  Biso   1.000  O
  O18      1.0000 0.00110  0.25020  0.39151  Biso   1.000  O
  O19      1.0000 0.49890  0.75020  0.10849  Biso   1.000  O
  O20      1.0000 0.99890  0.25020  0.10849  Biso   1.000  O
  O21      1.0000 0.49890  0.24980  0.60849  Biso   1.000  O
  O22      1.0000 0.99890  0.74980  0.60849  Biso   1.000  O
  O23      1.0000 0.50110  0.24980  0.89151  Biso   1.000  O
  O24      1.0000 0.00110  0.74980  0.89151  Biso   1.000  O
  O25      1.0000 0.52720  0.45710  0.42552  Biso   1.000  O
  O26      1.0000 0.02720  0.95710  0.42552  Biso   1.000  O
  O27      1.0000 0.47280  0.45710  0.07448  Biso   1.000  O
  O28      1.0000 0.97280  0.95710  0.07448  Biso   1.000  O
  O29      1.0000 0.47280  0.54290  0.57448  Biso   1.000  O
  O30      1.0000 0.97280  0.04290  0.57448  Biso   1.000  O
  O31      1.0000 0.52720  0.54290  0.92552  Biso   1.000  O
  O32      1.0000 0.02720  0.04290  0.92552  Biso   1.000  O
  O33      1.0000 0.70900  0.96850  0.34406  Biso   1.000  O
  O34      1.0000 0.20900  0.46850  0.34406  Biso   1.000  O
  O35      1.0000 0.29100  0.96850  0.15594  Biso   1.000  O
  O36      1.0000 0.79100  0.46850  0.15594  Biso   1.000  O
  O37      1.0000 0.29100  0.03150  0.65594  Biso   1.000  O
  O38      1.0000 0.79100  0.53150  0.65594  Biso   1.000  O
  O39      1.0000 0.70900  0.03150  0.84406  Biso   1.000  O
  O40      1.0000 0.20900  0.53150  0.84406  Biso   1.000  O
  O41      1.0000 0.74760  0.68950  0.33175  Biso   1.000  O
  O42      1.0000 0.24760  0.18950  0.33175  Biso   1.000  O
  O43      1.0000 0.25240  0.68950  0.16825  Biso   1.000  O
  O44      1.0000 0.75240  0.18950  0.16825  Biso   1.000  O
  O45      1.0000 0.25240  0.31050  0.66825  Biso   1.000  O
  O46      1.0000 0.75240  0.81050  0.66825  Biso   1.000  O
  O47      1.0000 0.74760  0.31050  0.83175  Biso   1.000  O
  O48      1.0000 0.24760  0.81050  0.83175  Biso   1.000  O
  O49      1.0000 0.75390  0.92540  0.42311  Biso   1.000  O
  O50      1.0000 0.25390  0.42540  0.42311  Biso   1.000  O
  O51      1.0000 0.24610  0.92540  0.07689  Biso   1.000  O
  O52      1.0000 0.74610  0.42540  0.07689  Biso   1.000  O
  O53      1.0000 0.24610  0.07460  0.57689  Biso   1.000  O
  O54      1.0000 0.74610  0.57460  0.57689  Biso   1.000  O
  O55      1.0000 0.75390  0.07460  0.92311  Biso   1.000  O
  O56      1.0000 0.25390  0.57460  0.92311  Biso   1.000  O
  O57      1.0000 0.79260  0.65120  0.41049  Biso   1.000  O
  O58      1.0000 0.29260  0.15120  0.41049  Biso   1.000  O
  O59      1.0000 0.20740  0.65120  0.08951  Biso   1.000  O
  O60      1.0000 0.70740  0.15120  0.08951  Biso   1.000  O
  O61      1.0000 0.20740  0.34880  0.58951  Biso   1.000  O
  O62      1.0000 0.70740  0.84880  0.58951  Biso   1.000  O
  O63      1.0000 0.79260  0.34880  0.91049  Biso   1.000  O
  O64      1.0000 0.29260  0.84880  0.91049  Biso   1.000  O
  N1       1.0000 0.58290  0.59600  0.37690  Biso   1.000  N
  N2       1.0000 0.08290  0.09600  0.37690  Biso   1.000  N
  N3       1.0000 0.41710  0.59600  0.12310  Biso   1.000  N
  N4       1.0000 0.91710  0.09600  0.12310  Biso   1.000  N
  N5       1.0000 0.41710  0.40400  0.62310  Biso   1.000  N
  N6       1.0000 0.91710  0.90400  0.62310  Biso   1.000  N
  N7       1.0000 0.58290  0.40400  0.87690  Biso   1.000  N
  N8       1.0000 0.08290  0.90400  0.87690  Biso   1.000  N
  N9       1.0000 0.67000  0.68380  0.37310  Biso   1.000  N
  N10      1.0000 0.17000  0.18380  0.37310  Biso   1.000  N
  N11      1.0000 0.33000  0.68380  0.12690  Biso   1.000  N
  N12      1.0000 0.83000  0.18380  0.12690  Biso   1.000  N
  N13      1.0000 0.33000  0.31620  0.62690  Biso   1.000  N
  N14      1.0000 0.83000  0.81620  0.62690  Biso   1.000  N
  N15      1.0000 0.67000  0.31620  0.87310  Biso   1.000  N
  N16      1.0000 0.17000  0.81620  0.87310  Biso   1.000  N
  N17      1.0000 0.83160  0.92400  0.37830  Biso   1.000  N
  N18      1.0000 0.33160  0.42400  0.37830  Biso   1.000  N
  N19      1.0000 0.16840  0.92400  0.12170  Biso   1.000  N
  N20      1.0000 0.66840  0.42400  0.12170  Biso   1.000  N
  N21      1.0000 0.16840  0.07600  0.62170  Biso   1.000  N
  N22      1.0000 0.66840  0.57600  0.62170  Biso   1.000  N
  N23      1.0000 0.83160  0.07600  0.87830  Biso   1.000  N
  N24      1.0000 0.33160  0.57600  0.87830  Biso   1.000  N
  N25      1.0000 0.91500  0.99850  0.36770  Biso   1.000  N
  N26      1.0000 0.41500  0.49850  0.36770  Biso   1.000  N
  N27      1.0000 0.08500  0.99850  0.13230  Biso   1.000  N
  N28      1.0000 0.58500  0.49850  0.13230  Biso   1.000  N
  N29      1.0000 0.08500  0.00150  0.63230  Biso   1.000  N
  N30      1.0000 0.58500  0.50150  0.63230  Biso   1.000  N
  N31      1.0000 0.91500  0.00150  0.86770  Biso   1.000  N
  N32      1.0000 0.41500  0.50150  0.86770  Biso   1.000  N
  C1       1.0000 0.59100  0.73470  0.36830  Biso   1.000  C
  C2       1.0000 0.09100  0.23470  0.36830  Biso   1.000  C
  C3       1.0000 0.40900  0.73470  0.13170  Biso   1.000  C
  C4       1.0000 0.90900  0.23470  0.13170  Biso   1.000  C
  C5       1.0000 0.40900  0.26530  0.63170  Biso   1.000  C
  C6       1.0000 0.90900  0.76530  0.63170  Biso   1.000  C
  C7       1.0000 0.59100  0.26530  0.86830  Biso   1.000  C
  C8       1.0000 0.09100  0.76530  0.86830  Biso   1.000  C
  C9       1.0000 0.63420  0.77850  0.36700  Biso   1.000  C
  C10      1.0000 0.13420  0.27850  0.36700  Biso   1.000  C
  C11      1.0000 0.36580  0.77850  0.13300  Biso   1.000  C
  C12      1.0000 0.86580  0.27850  0.13300  Biso   1.000  C
  C13      1.0000 0.36580  0.22150  0.63300  Biso   1.000  C
  C14      1.0000 0.86580  0.72150  0.63300  Biso   1.000  C
  C15      1.0000 0.63420  0.22150  0.86700  Biso   1.000  C
  C16      1.0000 0.13420  0.72150  0.86700  Biso   1.000  C
  C17      1.0000 0.66210  0.53700  0.38080  Biso   1.000  C
  C18      1.0000 0.16210  0.03700  0.38080  Biso   1.000  C
  C19      1.0000 0.33790  0.53700  0.11920  Biso   1.000  C
  C20      1.0000 0.83790  0.03700  0.11920  Biso   1.000  C
  C21      1.0000 0.33790  0.46300  0.61920  Biso   1.000  C
  C22      1.0000 0.83790  0.96300  0.61920  Biso   1.000  C
  C23      1.0000 0.66210  0.46300  0.88080  Biso   1.000  C
  C24      1.0000 0.16210  0.96300  0.88080  Biso   1.000  C
  C25      1.0000 0.69790  0.42560  0.38720  Biso   1.000  C
  C26      1.0000 0.19790  0.92560  0.38720  Biso   1.000  C
  C27      1.0000 0.30210  0.42560  0.11280  Biso   1.000  C
  C28      1.0000 0.80210  0.92560  0.11280  Biso   1.000  C
  C29      1.0000 0.30210  0.57440  0.61280  Biso   1.000  C
  C30      1.0000 0.80210  0.07440  0.61280  Biso   1.000  C
  C31      1.0000 0.69790  0.57440  0.88720  Biso   1.000  C
  C32      1.0000 0.19790  0.07440  0.88720  Biso   1.000  C
  C33      1.0000 0.69240  0.27850  0.39760  Biso   1.000  C
  C34      1.0000 0.19240  0.77850  0.39760  Biso   1.000  C
  C35      1.0000 0.30760  0.27850  0.10240  Biso   1.000  C
  C36      1.0000 0.80760  0.77850  0.10240  Biso   1.000  C
  C37      1.0000 0.30760  0.72150  0.60240  Biso   1.000  C
  C38      1.0000 0.80760  0.22150  0.60240  Biso   1.000  C
  C39      1.0000 0.69240  0.72150  0.89760  Biso   1.000  C
  C40      1.0000 0.19240  0.22150  0.89760  Biso   1.000  C
  C41      1.0000 0.65000  0.23850  0.40130  Biso   1.000  C
  C42      1.0000 0.15000  0.73850  0.40130  Biso   1.000  C
  C43      1.0000 0.35000  0.23850  0.09870  Biso   1.000  C
  C44      1.0000 0.85000  0.73850  0.09870  Biso   1.000  C
  C45      1.0000 0.35000  0.76150  0.59870  Biso   1.000  C
  C46      1.0000 0.85000  0.26150  0.59870  Biso   1.000  C
  C47      1.0000 0.65000  0.76150  0.90130  Biso   1.000  C
  C48      1.0000 0.15000  0.26150  0.90130  Biso   1.000  C
  C49      1.0000 0.61410  0.33990  0.39600  Biso   1.000  C
  C50      1.0000 0.11410  0.83990  0.39600  Biso   1.000  C
  C51      1.0000 0.38590  0.33990  0.10400  Biso   1.000  C
  C52      1.0000 0.88590  0.83990  0.10400  Biso   1.000  C
  C53      1.0000 0.38590  0.66010  0.60400  Biso   1.000  C
  C54      1.0000 0.88590  0.16010  0.60400  Biso   1.000  C
  C55      1.0000 0.61410  0.66010  0.89600  Biso   1.000  C
  C56      1.0000 0.11410  0.16010  0.89600  Biso   1.000  C
  C57      1.0000 0.61960  0.49310  0.38400  Biso   1.000  C
  C58      1.0000 0.11960  0.99310  0.38400  Biso   1.000  C
  C59      1.0000 0.38040  0.49310  0.11600  Biso   1.000  C
  C60      1.0000 0.88040  0.99310  0.11600  Biso   1.000  C
  C61      1.0000 0.38040  0.50690  0.61600  Biso   1.000  C
  C62      1.0000 0.88040  0.00690  0.61600  Biso   1.000  C
  C63      1.0000 0.61960  0.50690  0.88400  Biso   1.000  C
  C64      1.0000 0.11960  0.00690  0.88400  Biso   1.000  C
  C65      1.0000 0.86450  0.82130  0.38160  Biso   1.000  C
  C66      1.0000 0.36450  0.32130  0.38160  Biso   1.000  C
  C67      1.0000 0.13550  0.82130  0.11840  Biso   1.000  C
  C68      1.0000 0.63550  0.32130  0.11840  Biso   1.000  C
  C69      1.0000 0.13550  0.17870  0.61840  Biso   1.000  C
  C70      1.0000 0.63550  0.67870  0.61840  Biso   1.000  C
  C71      1.0000 0.86450  0.17870  0.88160  Biso   1.000  C
  C72      1.0000 0.36450  0.67870  0.88160  Biso   1.000  C
  C73      1.0000 0.90630  0.85960  0.37650  Biso   1.000  C
  C74      1.0000 0.40630  0.35960  0.37650  Biso   1.000  C
  C75      1.0000 0.09370  0.85960  0.12350  Biso   1.000  C
  C76      1.0000 0.59370  0.35960  0.12350  Biso   1.000  C
  C77      1.0000 0.09370  0.14040  0.62350  Biso   1.000  C
  C78      1.0000 0.59370  0.64040  0.62350  Biso   1.000  C
  C79      1.0000 0.90630  0.14040  0.87650  Biso   1.000  C
  C80      1.0000 0.40630  0.64040  0.87650  Biso   1.000  C
  C81      1.0000 0.88100  0.10800  0.36270  Biso   1.000  C
  C82      1.0000 0.38100  0.60800  0.36270  Biso   1.000  C
  C83      1.0000 0.11900  0.10800  0.13730  Biso   1.000  C
  C84      1.0000 0.61900  0.60800  0.13730  Biso   1.000  C
  C85      1.0000 0.11900  0.89200  0.63730  Biso   1.000  C
  C86      1.0000 0.61900  0.39200  0.63730  Biso   1.000  C
  C87      1.0000 0.88100  0.89200  0.86270  Biso   1.000  C
  C88      1.0000 0.38100  0.39200  0.86270  Biso   1.000  C
  C89      1.0000 0.88760  0.25620  0.35170  Biso   1.000  C
  C90      1.0000 0.38760  0.75620  0.35170  Biso   1.000  C
  C91      1.0000 0.11240  0.25620  0.14830  Biso   1.000  C
  C92      1.0000 0.61240  0.75620  0.14830  Biso   1.000  C
  C93      1.0000 0.11240  0.74380  0.64830  Biso   1.000  C
  C94      1.0000 0.61240  0.24380  0.64830  Biso   1.000  C
  C95      1.0000 0.88760  0.74380  0.85170  Biso   1.000  C
  C96      1.0000 0.38760  0.24380  0.85170  Biso   1.000  C
  C97      1.0000 0.85410  0.36680  0.34880  Biso   1.000  C
  C98      1.0000 0.35410  0.86680  0.34880  Biso   1.000  C
  C99      1.0000 0.14590  0.36680  0.15120  Biso   1.000  C
  C100     1.0000 0.64590  0.86680  0.15120  Biso   1.000  C
  C101     1.0000 0.14590  0.63320  0.65120  Biso   1.000  C
  C102     1.0000 0.64590  0.13320  0.65120  Biso   1.000  C
  C103     1.0000 0.85410  0.63320  0.84880  Biso   1.000  C
  C104     1.0000 0.35410  0.13320  0.84880  Biso   1.000  C
  C105     1.0000 0.81390  0.33050  0.35670  Biso   1.000  C
  C106     1.0000 0.31390  0.83050  0.35670  Biso   1.000  C
  C107     1.0000 0.18610  0.33050  0.14330  Biso   1.000  C
  C108     1.0000 0.68610  0.83050  0.14330  Biso   1.000  C
  C109     1.0000 0.18610  0.66950  0.64330  Biso   1.000  C
  C110     1.0000 0.68610  0.16950  0.64330  Biso   1.000  C
  C111     1.0000 0.81390  0.66950  0.85670  Biso   1.000  C
  C112     1.0000 0.31390  0.16950  0.85670  Biso   1.000  C
  C113     1.0000 0.80650  0.18840  0.36670  Biso   1.000  C
  C114     1.0000 0.30650  0.68840  0.36670  Biso   1.000  C
  C115     1.0000 0.19350  0.18840  0.13330  Biso   1.000  C
  C116     1.0000 0.69350  0.68840  0.13330  Biso   1.000  C
  C117     1.0000 0.19350  0.81160  0.63330  Biso   1.000  C
  C118     1.0000 0.69350  0.31160  0.63330  Biso   1.000  C
  C119     1.0000 0.80650  0.81160  0.86670  Biso   1.000  C
  C120     1.0000 0.30650  0.31160  0.86670  Biso   1.000  C
  C121     1.0000 0.84030  0.07200  0.36980  Biso   1.000  C
  C122     1.0000 0.34030  0.57200  0.36980  Biso   1.000  C
  C123     1.0000 0.15970  0.07200  0.13020  Biso   1.000  C
  C124     1.0000 0.65970  0.57200  0.13020  Biso   1.000  C
  C125     1.0000 0.15970  0.92800  0.63020  Biso   1.000  C
  C126     1.0000 0.65970  0.42800  0.63020  Biso   1.000  C
  C127     1.0000 0.84030  0.92800  0.86980  Biso   1.000  C
  C128     1.0000 0.34030  0.42800  0.86980  Biso   1.000  C
  C129     1.0000 0.42830  0.62580  0.24760  Biso   1.000  C
  C130     1.0000 0.92830  0.12580  0.24760  Biso   1.000  C
  C131     1.0000 0.57170  0.62580  0.25240  Biso   1.000  C
  C132     1.0000 0.07170  0.12580  0.25240  Biso   1.000  C
  C133     1.0000 0.57170  0.37420  0.75240  Biso   1.000  C
  C134     1.0000 0.07170  0.87420  0.75240  Biso   1.000  C
  C135     1.0000 0.42830  0.37420  0.74760  Biso   1.000  C
  C136     1.0000 0.92830  0.87420  0.74760  Biso   1.000  C
  C137     1.0000 0.45660  0.53960  0.28690  Biso   1.000  C
  C138     1.0000 0.95660  0.03960  0.28690  Biso   1.000  C
  C139     1.0000 0.54340  0.53960  0.21310  Biso   1.000  C
  C140     1.0000 0.04340  0.03960  0.21310  Biso   1.000  C
  C141     1.0000 0.54340  0.46040  0.71310  Biso   1.000  C
  C142     1.0000 0.04340  0.96040  0.71310  Biso   1.000  C
  C143     1.0000 0.45660  0.46040  0.78690  Biso   1.000  C
  C144     1.0000 0.95660  0.96040  0.78690  Biso   1.000  C
  C145     1.0000 0.46030  0.38430  0.28360  Biso   1.000  C
  C146     1.0000 0.96030  0.88430  0.28360  Biso   1.000  C
  C147     1.0000 0.53970  0.38430  0.21640  Biso   1.000  C
  C148     1.0000 0.03970  0.88430  0.21640  Biso   1.000  C
  C149     1.0000 0.53970  0.61570  0.71640  Biso   1.000  C
  C150     1.0000 0.03970  0.11570  0.71640  Biso   1.000  C
  C151     1.0000 0.46030  0.61570  0.78360  Biso   1.000  C
  C152     1.0000 0.96030  0.11570  0.78360  Biso   1.000  C
  C153     1.0000 0.48230  0.29420  0.31720  Biso   1.000  C
  C154     1.0000 0.98230  0.79420  0.31720  Biso   1.000  C
  C155     1.0000 0.51770  0.29420  0.18280  Biso   1.000  C
  C156     1.0000 0.01770  0.79420  0.18280  Biso   1.000  C
  C157     1.0000 0.51770  0.70580  0.68280  Biso   1.000  C
  C158     1.0000 0.01770  0.20580  0.68280  Biso   1.000  C
  C159     1.0000 0.48230  0.70580  0.81720  Biso   1.000  C
  C160     1.0000 0.98230  0.20580  0.81720  Biso   1.000  C
  C161     1.0000 0.48660  0.12210  0.31180  Biso   1.000  C
  C162     1.0000 0.98660  0.62210  0.31180  Biso   1.000  C
  C163     1.0000 0.51340  0.12210  0.18820  Biso   1.000  C
  C164     1.0000 0.01340  0.62210  0.18820  Biso   1.000  C
  C165     1.0000 0.51340  0.87790  0.68820  Biso   1.000  C
  C166     1.0000 0.01340  0.37790  0.68820  Biso   1.000  C
  C167     1.0000 0.48660  0.87790  0.81180  Biso   1.000  C
  C168     1.0000 0.98660  0.37790  0.81180  Biso   1.000  C
  C169     1.0000 0.51190  0.95930  0.43380  Biso   1.000  C
  C170     1.0000 0.01190  0.45930  0.43380  Biso   1.000  C
  C171     1.0000 0.48810  0.95930  0.06620  Biso   1.000  C
  C172     1.0000 0.98810  0.45930  0.06620  Biso   1.000  C
  C173     1.0000 0.48810  0.04070  0.56620  Biso   1.000  C
  C174     1.0000 0.98810  0.54070  0.56620  Biso   1.000  C
  C175     1.0000 0.51190  0.04070  0.93380  Biso   1.000  C
  C176     1.0000 0.01190  0.54070  0.93380  Biso   1.000  C
  C177     1.0000 0.51650  0.78780  0.42740  Biso   1.000  C
  C178     1.0000 0.01650  0.28780  0.42740  Biso   1.000  C
  C179     1.0000 0.48350  0.78780  0.07260  Biso   1.000  C
  C180     1.0000 0.98350  0.28780  0.07260  Biso   1.000  C
  C181     1.0000 0.48350  0.21220  0.57260  Biso   1.000  C
  C182     1.0000 0.98350  0.71220  0.57260  Biso   1.000  C
  C183     1.0000 0.51650  0.21220  0.92740  Biso   1.000  C
  C184     1.0000 0.01650  0.71220  0.92740  Biso   1.000  C
  C185     1.0000 0.53710  0.69150  0.46030  Biso   1.000  C
  C186     1.0000 0.03710  0.19150  0.46030  Biso   1.000  C
  C187     1.0000 0.46290  0.69150  0.03970  Biso   1.000  C
  C188     1.0000 0.96290  0.19150  0.03970  Biso   1.000  C
  C189     1.0000 0.46290  0.30850  0.53970  Biso   1.000  C
  C190     1.0000 0.96290  0.80850  0.53970  Biso   1.000  C
  C191     1.0000 0.53710  0.30850  0.96030  Biso   1.000  C
  C192     1.0000 0.03710  0.80850  0.96030  Biso   1.000  C
  C193     1.0000 0.54130  0.53650  0.45620  Biso   1.000  C
  C194     1.0000 0.04130  0.03650  0.45620  Biso   1.000  C
  C195     1.0000 0.45870  0.53650  0.04380  Biso   1.000  C
  C196     1.0000 0.95870  0.03650  0.04380  Biso   1.000  C
  C197     1.0000 0.45870  0.46350  0.54380  Biso   1.000  C
  C198     1.0000 0.95870  0.96350  0.54380  Biso   1.000  C
  C199     1.0000 0.54130  0.46350  0.95620  Biso   1.000  C
  C200     1.0000 0.04130  0.96350  0.95620  Biso   1.000  C
  C201     1.0000 0.56540  0.44010  0.49440  Biso   1.000  C
  C202     1.0000 0.06540  0.94010  0.49440  Biso   1.000  C
  C203     1.0000 0.43460  0.44010  0.00560  Biso   1.000  C
  C204     1.0000 0.93460  0.94010  0.00560  Biso   1.000  C
  C205     1.0000 0.43460  0.55990  0.50560  Biso   1.000  C
  C206     1.0000 0.93460  0.05990  0.50560  Biso   1.000  C
  C207     1.0000 0.56540  0.55990  0.99440  Biso   1.000  C
  C208     1.0000 0.06540  0.05990  0.99440  Biso   1.000  C
  C209     1.0000 0.66110  0.11140  0.28890  Biso   1.000  C
  C210     1.0000 0.16110  0.61140  0.28890  Biso   1.000  C
  C211     1.0000 0.33890  0.11140  0.21110  Biso   1.000  C
  C212     1.0000 0.83890  0.61140  0.21110  Biso   1.000  C
  C213     1.0000 0.33890  0.88860  0.71110  Biso   1.000  C
  C214     1.0000 0.83890  0.38860  0.71110  Biso   1.000  C
  C215     1.0000 0.66110  0.88860  0.78890  Biso   1.000  C
  C216     1.0000 0.16110  0.38860  0.78890  Biso   1.000  C
  C217     1.0000 0.69220  0.96950  0.30640  Biso   1.000  C
  C218     1.0000 0.19220  0.46950  0.30640  Biso   1.000  C
  C219     1.0000 0.30780  0.96950  0.19360  Biso   1.000  C
  C220     1.0000 0.80780  0.46950  0.19360  Biso   1.000  C
  C221     1.0000 0.30780  0.03050  0.69360  Biso   1.000  C
  C222     1.0000 0.80780  0.53050  0.69360  Biso   1.000  C
  C223     1.0000 0.69220  0.03050  0.80640  Biso   1.000  C
  C224     1.0000 0.19220  0.53050  0.80640  Biso   1.000  C
  C225     1.0000 0.69920  0.86430  0.28180  Biso   1.000  C
  C226     1.0000 0.19920  0.36430  0.28180  Biso   1.000  C
  C227     1.0000 0.30080  0.86430  0.21820  Biso   1.000  C
  C228     1.0000 0.80080  0.36430  0.21820  Biso   1.000  C
  C229     1.0000 0.30080  0.13570  0.71820  Biso   1.000  C
  C230     1.0000 0.80080  0.63570  0.71820  Biso   1.000  C
  C231     1.0000 0.69920  0.13570  0.78180  Biso   1.000  C
  C232     1.0000 0.19920  0.63570  0.78180  Biso   1.000  C
  C233     1.0000 0.72660  0.73200  0.29650  Biso   1.000  C
  C234     1.0000 0.22660  0.23200  0.29650  Biso   1.000  C
  C235     1.0000 0.27340  0.73200  0.20350  Biso   1.000  C
  C236     1.0000 0.77340  0.23200  0.20350  Biso   1.000  C
  C237     1.0000 0.27340  0.26800  0.70350  Biso   1.000  C
  C238     1.0000 0.77340  0.76800  0.70350  Biso   1.000  C
  C239     1.0000 0.72660  0.26800  0.79650  Biso   1.000  C
  C240     1.0000 0.22660  0.76800  0.79650  Biso   1.000  C
  C241     1.0000 0.73250  0.62290  0.26630  Biso   1.000  C
  C242     1.0000 0.23250  0.12290  0.26630  Biso   1.000  C
  C243     1.0000 0.26750  0.62290  0.23370  Biso   1.000  C
  C244     1.0000 0.76750  0.12290  0.23370  Biso   1.000  C
  C245     1.0000 0.26750  0.37710  0.73370  Biso   1.000  C
  C246     1.0000 0.76750  0.87710  0.73370  Biso   1.000  C
  C247     1.0000 0.73250  0.37710  0.76630  Biso   1.000  C
  C248     1.0000 0.23250  0.87710  0.76630  Biso   1.000  C
  C249     1.0000 0.77520  0.00070  0.48840  Biso   1.000  C
  C250     1.0000 0.27520  0.50070  0.48840  Biso   1.000  C
  C251     1.0000 0.22480  0.00070  0.01160  Biso   1.000  C
  C252     1.0000 0.72480  0.50070  0.01160  Biso   1.000  C
  C253     1.0000 0.22480  0.99930  0.51160  Biso   1.000  C
  C254     1.0000 0.72480  0.49930  0.51160  Biso   1.000  C
  C255     1.0000 0.77520  0.99930  0.98840  Biso   1.000  C
  C256     1.0000 0.27520  0.49930  0.98840  Biso   1.000  C
  C257     1.0000 0.77910  0.88810  0.45880  Biso   1.000  C
  C258     1.0000 0.27910  0.38810  0.45880  Biso   1.000  C
  C259     1.0000 0.22090  0.88810  0.04120  Biso   1.000  C
  C260     1.0000 0.72090  0.38810  0.04120  Biso   1.000  C
  C261     1.0000 0.22090  0.11190  0.54120  Biso   1.000  C
  C262     1.0000 0.72090  0.61190  0.54120  Biso   1.000  C
  C263     1.0000 0.77910  0.11190  0.95880  Biso   1.000  C
  C264     1.0000 0.27910  0.61190  0.95880  Biso   1.000  C
  C265     1.0000 0.80830  0.76200  0.47260  Biso   1.000  C
  C266     1.0000 0.30830  0.26200  0.47260  Biso   1.000  C
  C267     1.0000 0.19170  0.76200  0.02740  Biso   1.000  C
  C268     1.0000 0.69170  0.26200  0.02740  Biso   1.000  C
  C269     1.0000 0.19170  0.23800  0.52740  Biso   1.000  C
  C270     1.0000 0.69170  0.73800  0.52740  Biso   1.000  C
  C271     1.0000 0.80830  0.23800  0.97260  Biso   1.000  C
  C272     1.0000 0.30830  0.73800  0.97260  Biso   1.000  C
  C273     1.0000 0.81340  0.65340  0.44760  Biso   1.000  C
  C274     1.0000 0.31340  0.15340  0.44760  Biso   1.000  C
  C275     1.0000 0.18660  0.65340  0.05240  Biso   1.000  C
  C276     1.0000 0.68660  0.15340  0.05240  Biso   1.000  C
  C277     1.0000 0.18660  0.34660  0.55240  Biso   1.000  C
  C278     1.0000 0.68660  0.84660  0.55240  Biso   1.000  C
  C279     1.0000 0.81340  0.34660  0.94760  Biso   1.000  C
  C280     1.0000 0.31340  0.84660  0.94760  Biso   1.000  C
  C281     1.0000 0.84560  0.51640  0.46550  Biso   1.000  C
  C282     1.0000 0.34560  0.01640  0.46550  Biso   1.000  C
  C283     1.0000 0.15440  0.51640  0.03450  Biso   1.000  C
  C284     1.0000 0.65440  0.01640  0.03450  Biso   1.000  C
  C285     1.0000 0.15440  0.48360  0.53450  Biso   1.000  C
  C286     1.0000 0.65440  0.98360  0.53450  Biso   1.000  C
  C287     1.0000 0.84560  0.48360  0.96550  Biso   1.000  C
  C288     1.0000 0.34560  0.98360  0.96550  Biso   1.000  C
  H1       1.0000 0.56640  0.80940  0.36270  Biso   1.000  H
  H2       1.0000 0.06640  0.30940  0.36270  Biso   1.000  H
  H3       1.0000 0.43360  0.80940  0.13730  Biso   1.000  H
  H4       1.0000 0.93360  0.30940  0.13730  Biso   1.000  H
  H5       1.0000 0.43360  0.19060  0.63730  Biso   1.000  H
  H6       1.0000 0.93360  0.69060  0.63730  Biso   1.000  H
  H7       1.0000 0.56640  0.19060  0.86270  Biso   1.000  H
  H8       1.0000 0.06640  0.69060  0.86270  Biso   1.000  H
  H9       1.0000 0.63800  0.88270  0.36140  Biso   1.000  H
  H10      1.0000 0.13800  0.38270  0.36140  Biso   1.000  H
  H11      1.0000 0.36200  0.88270  0.13860  Biso   1.000  H
  H12      1.0000 0.86200  0.38270  0.13860  Biso   1.000  H
  H13      1.0000 0.36200  0.11730  0.63860  Biso   1.000  H
  H14      1.0000 0.86200  0.61730  0.63860  Biso   1.000  H
  H15      1.0000 0.63800  0.11730  0.86140  Biso   1.000  H
  H16      1.0000 0.13800  0.61730  0.86140  Biso   1.000  H
  H17      1.0000 0.72650  0.45280  0.38420  Biso   1.000  H
  H18      1.0000 0.22650  0.95280  0.38420  Biso   1.000  H
  H19      1.0000 0.27350  0.45280  0.11580  Biso   1.000  H
  H20      1.0000 0.77350  0.95280  0.11580  Biso   1.000  H
  H21      1.0000 0.27350  0.54720  0.61580  Biso   1.000  H
  H22      1.0000 0.77350  0.04720  0.61580  Biso   1.000  H
  H23      1.0000 0.72650  0.54720  0.88420  Biso   1.000  H
  H24      1.0000 0.22650  0.04720  0.88420  Biso   1.000  H
  H25      1.0000 0.71710  0.20460  0.40220  Biso   1.000  H
  H26      1.0000 0.21710  0.70460  0.40220  Biso   1.000  H
  H27      1.0000 0.28290  0.20460  0.09780  Biso   1.000  H
  H28      1.0000 0.78290  0.70460  0.09780  Biso   1.000  H
  H29      1.0000 0.28290  0.79540  0.59780  Biso   1.000  H
  H30      1.0000 0.78290  0.29540  0.59780  Biso   1.000  H
  H31      1.0000 0.71710  0.79540  0.90220  Biso   1.000  H
  H32      1.0000 0.21710  0.29540  0.90220  Biso   1.000  H
  H33      1.0000 0.64620  0.13550  0.40790  Biso   1.000  H
  H34      1.0000 0.14620  0.63550  0.40790  Biso   1.000  H
  H35      1.0000 0.35380  0.13550  0.09210  Biso   1.000  H
  H36      1.0000 0.85380  0.63550  0.09210  Biso   1.000  H
  H37      1.0000 0.35380  0.86450  0.59210  Biso   1.000  H
  H38      1.0000 0.85380  0.36450  0.59210  Biso   1.000  H
  H39      1.0000 0.64620  0.86450  0.90790  Biso   1.000  H
  H40      1.0000 0.14620  0.36450  0.90790  Biso   1.000  H
  H41      1.0000 0.58640  0.31120  0.40020  Biso   1.000  H
  H42      1.0000 0.08640  0.81120  0.40020  Biso   1.000  H
  H43      1.0000 0.41360  0.31120  0.09980  Biso   1.000  H
  H44      1.0000 0.91360  0.81120  0.09980  Biso   1.000  H
  H45      1.0000 0.41360  0.68880  0.59980  Biso   1.000  H
  H46      1.0000 0.91360  0.18880  0.59980  Biso   1.000  H
  H47      1.0000 0.58640  0.68880  0.90020  Biso   1.000  H
  H48      1.0000 0.08640  0.18880  0.90020  Biso   1.000  H
  H49      1.0000 0.85990  0.71820  0.38760  Biso   1.000  H
  H50      1.0000 0.35990  0.21820  0.38760  Biso   1.000  H
  H51      1.0000 0.14010  0.71820  0.11240  Biso   1.000  H
  H52      1.0000 0.64010  0.21820  0.11240  Biso   1.000  H
  H53      1.0000 0.14010  0.28180  0.61240  Biso   1.000  H
  H54      1.0000 0.64010  0.78180  0.61240  Biso   1.000  H
  H55      1.0000 0.85990  0.28180  0.88760  Biso   1.000  H
  H56      1.0000 0.35990  0.78180  0.88760  Biso   1.000  H
  H57      1.0000 0.92940  0.78140  0.37960  Biso   1.000  H
  H58      1.0000 0.42940  0.28140  0.37960  Biso   1.000  H
  H59      1.0000 0.07060  0.78140  0.12040  Biso   1.000  H
  H60      1.0000 0.57060  0.28140  0.12040  Biso   1.000  H
  H61      1.0000 0.07060  0.21860  0.62040  Biso   1.000  H
  H62      1.0000 0.57060  0.71860  0.62040  Biso   1.000  H
  H63      1.0000 0.92940  0.21860  0.87960  Biso   1.000  H
  H64      1.0000 0.42940  0.71860  0.87960  Biso   1.000  H
  H65      1.0000 0.91470  0.28040  0.34630  Biso   1.000  H
  H66      1.0000 0.41470  0.78040  0.34630  Biso   1.000  H
  H67      1.0000 0.08530  0.28040  0.15370  Biso   1.000  H
  H68      1.0000 0.58530  0.78040  0.15370  Biso   1.000  H
  H69      1.0000 0.08530  0.71960  0.65370  Biso   1.000  H
  H70      1.0000 0.58530  0.21960  0.65370  Biso   1.000  H
  H71      1.0000 0.91470  0.71960  0.84630  Biso   1.000  H
  H72      1.0000 0.41470  0.21960  0.84630  Biso   1.000  H
  H73      1.0000 0.85810  0.46840  0.34140  Biso   1.000  H
  H74      1.0000 0.35810  0.96840  0.34140  Biso   1.000  H
  H75      1.0000 0.14190  0.46840  0.15860  Biso   1.000  H
  H76      1.0000 0.64190  0.96840  0.15860  Biso   1.000  H
  H77      1.0000 0.14190  0.53160  0.65860  Biso   1.000  H
  H78      1.0000 0.64190  0.03160  0.65860  Biso   1.000  H
  H79      1.0000 0.85810  0.53160  0.84140  Biso   1.000  H
  H80      1.0000 0.35810  0.03160  0.84140  Biso   1.000  H
  H81      1.0000 0.79140  0.40890  0.35500  Biso   1.000  H
  H82      1.0000 0.29140  0.90890  0.35500  Biso   1.000  H
  H83      1.0000 0.20860  0.40890  0.14500  Biso   1.000  H
  H84      1.0000 0.70860  0.90890  0.14500  Biso   1.000  H
  H85      1.0000 0.20860  0.59110  0.64500  Biso   1.000  H
  H86      1.0000 0.70860  0.09110  0.64500  Biso   1.000  H
  H87      1.0000 0.79140  0.59110  0.85500  Biso   1.000  H
  H88      1.0000 0.29140  0.09110  0.85500  Biso   1.000  H
  H89      1.0000 0.77890  0.16600  0.37160  Biso   1.000  H
  H90      1.0000 0.27890  0.66600  0.37160  Biso   1.000  H
  H91      1.0000 0.22110  0.16600  0.12840  Biso   1.000  H
  H92      1.0000 0.72110  0.66600  0.12840  Biso   1.000  H
  H93      1.0000 0.22110  0.83400  0.62840  Biso   1.000  H
  H94      1.0000 0.72110  0.33400  0.62840  Biso   1.000  H
  H95      1.0000 0.77890  0.83400  0.87160  Biso   1.000  H
  H96      1.0000 0.27890  0.33400  0.87160  Biso   1.000  H
  H97      1.0000 0.44770  0.33790  0.25810  Biso   1.000  H
  H98      1.0000 0.94770  0.83790  0.25810  Biso   1.000  H
  H99      1.0000 0.55230  0.33790  0.24190  Biso   1.000  H
  H100     1.0000 0.05230  0.83790  0.24190  Biso   1.000  H
  H101     1.0000 0.55230  0.66210  0.74190  Biso   1.000  H
  H102     1.0000 0.05230  0.16210  0.74190  Biso   1.000  H
  H103     1.0000 0.44770  0.66210  0.75810  Biso   1.000  H
  H104     1.0000 0.94770  0.16210  0.75810  Biso   1.000  H
  H105     1.0000 0.54870  0.73440  0.48620  Biso   1.000  H
  H106     1.0000 0.04870  0.23440  0.48620  Biso   1.000  H
  H107     1.0000 0.45130  0.73440  0.01380  Biso   1.000  H
  H108     1.0000 0.95130  0.23440  0.01380  Biso   1.000  H
  H109     1.0000 0.45130  0.26560  0.51380  Biso   1.000  H
  H110     1.0000 0.95130  0.76560  0.51380  Biso   1.000  H
  H111     1.0000 0.54870  0.26560  0.98620  Biso   1.000  H
  H112     1.0000 0.04870  0.76560  0.98620  Biso   1.000  H
  H113     1.0000 0.68500  0.88190  0.25390  Biso   1.000  H
  H114     1.0000 0.18500  0.38190  0.25390  Biso   1.000  H
  H115     1.0000 0.31500  0.88190  0.24610  Biso   1.000  H
  H116     1.0000 0.81500  0.38190  0.24610  Biso   1.000  H
  H117     1.0000 0.31500  0.11810  0.74610  Biso   1.000  H
  H118     1.0000 0.81500  0.61810  0.74610  Biso   1.000  H
  H119     1.0000 0.68500  0.11810  0.75390  Biso   1.000  H
  H120     1.0000 0.18500  0.61810  0.75390  Biso   1.000  H
  H121     1.0000 0.82560  0.74900  0.50050  Biso   1.000  H
  H122     1.0000 0.32560  0.24900  0.50050  Biso   1.000  H
  H123     1.0000 0.17440  0.74900  0.99950  Biso   1.000  H
  H124     1.0000 0.67440  0.24900  0.99950  Biso   1.000  H
  H125     1.0000 0.17440  0.25100  0.49950  Biso   1.000  H
  H126     1.0000 0.67440  0.75100  0.49950  Biso   1.000  H
  H127     1.0000 0.82560  0.25100  0.00050  Biso   1.000  H
  H128     1.0000 0.32560  0.75100  0.00050  Biso   1.000  H
