data_image0
_cell_length_a       41.483
_cell_length_b       41.783
_cell_length_c       30.968
_cell_angle_alpha    90
_cell_angle_beta     109.895
_cell_angle_gamma    90

_symmetry_space_group_name_H-M    "P 1"
_symmetry_int_tables_number       1

loop_
  _symmetry_equiv_pos_as_xyz
  'x, y, z'

loop_
  _atom_site_label
  _atom_site_occupancy
  _atom_site_fract_x
  _atom_site_fract_y
  _atom_site_fract_z
  _atom_site_thermal_displace_type
  _atom_site_B_iso_or_equiv
  _atom_site_type_symbol
  O1       1.0000 0.80727  0.24418  0.51730  Biso   1.000  O
  O2       1.0000 0.30727  0.74418  0.51730  Biso   1.000  O
  O3       1.0000 0.19273  0.24418  0.98270  Biso   1.000  O
  O4       1.0000 0.69273  0.74418  0.98270  Biso   1.000  O
  O5       1.0000 0.19273  0.75582  0.48270  Biso   1.000  O
  O6       1.0000 0.69273  0.25582  0.48270  Biso   1.000  O
  O7       1.0000 0.80727  0.75582  0.01730  Biso   1.000  O
  O8       1.0000 0.30727  0.25582  0.01730  Biso   1.000  O
  O9       1.0000 0.78669  0.27516  0.56170  Biso   1.000  O
  O10      1.0000 0.28669  0.77516  0.56170  Biso   1.000  O
  O11      1.0000 0.21331  0.27516  0.93830  Biso   1.000  O
  O12      1.0000 0.71331  0.77516  0.93830  Biso   1.000  O
  O13      1.0000 0.21331  0.72484  0.43830  Biso   1.000  O
  O14      1.0000 0.71331  0.22484  0.43830  Biso   1.000  O
  O15      1.0000 0.78669  0.72484  0.06170  Biso   1.000  O
  O16      1.0000 0.28669  0.22484  0.06170  Biso   1.000  O
  C1       1.0000 0.80870  0.26410  0.54760  Biso   1.000  C
  C2       1.0000 0.30870  0.76410  0.54760  Biso   1.000  C
  C3       1.0000 0.19130  0.26410  0.95240  Biso   1.000  C
  C4       1.0000 0.69130  0.76410  0.95240  Biso   1.000  C
  C5       1.0000 0.19130  0.73590  0.45240  Biso   1.000  C
  C6       1.0000 0.69130  0.23590  0.45240  Biso   1.000  C
  C7       1.0000 0.80870  0.73590  0.04760  Biso   1.000  C
  C8       1.0000 0.30870  0.23590  0.04760  Biso   1.000  C
  O17      1.0000 0.99037  0.05319  0.48610  Biso   1.000  O
  O18      1.0000 0.49037  0.55319  0.48610  Biso   1.000  O
  O19      1.0000 0.00963  0.05319  0.01390  Biso   1.000  O
  O20      1.0000 0.50963  0.55319  0.01390  Biso   1.000  O
  O21      1.0000 0.00963  0.94681  0.51390  Biso   1.000  O
  O22      1.0000 0.50963  0.44681  0.51390  Biso   1.000  O
  O23      1.0000 0.99037  0.94681  0.98610  Biso   1.000  O
  O24      1.0000 0.49037  0.44681  0.98610  Biso   1.000  O
  O25      1.0000 0.00973  0.02128  0.43890  Biso   1.000  O
  O26      1.0000 0.50973  0.52128  0.43890  Biso   1.000  O
  O27      1.0000 0.99027  0.02128  0.06110  Biso   1.000  O
  O28      1.0000 0.49027  0.52128  0.06110  Biso   1.000  O
  O29      1.0000 0.99027  0.97872  0.56110  Biso   1.000  O
  O30      1.0000 0.49027  0.47872  0.56110  Biso   1.000  O
  O31      1.0000 0.00973  0.97872  0.93890  Biso   1.000  O
  O32      1.0000 0.50973  0.47872  0.93890  Biso   1.000  O
  C9       1.0000 0.00100  0.04800  0.45370  Biso   1.000  C
  C10      1.0000 0.50100  0.54800  0.45370  Biso   1.000  C
  C11      1.0000 0.99900  0.04800  0.04630  Biso   1.000  C
  C12      1.0000 0.49900  0.54800  0.04630  Biso   1.000  C
  C13      1.0000 0.99900  0.95200  0.54630  Biso   1.000  C
  C14      1.0000 0.49900  0.45200  0.54630  Biso   1.000  C
  C15      1.0000 0.00100  0.95200  0.95370  Biso   1.000  C
  C16      1.0000 0.50100  0.45200  0.95370  Biso   1.000  C
  C17      1.0000 0.25600  0.43659  0.27510  Biso   1.000  C
  C18      1.0000 0.75600  0.93659  0.27510  Biso   1.000  C
  C19      1.0000 0.74400  0.43659  0.22490  Biso   1.000  C
  C20      1.0000 0.24400  0.93659  0.22490  Biso   1.000  C
  C21      1.0000 0.74400  0.56341  0.72490  Biso   1.000  C
  C22      1.0000 0.24400  0.06341  0.72490  Biso   1.000  C
  C23      1.0000 0.25600  0.56341  0.77510  Biso   1.000  C
  C24      1.0000 0.75600  0.06341  0.77510  Biso   1.000  C
  C25      1.0000 0.28960  0.44753  0.29850  Biso   1.000  C
  C26      1.0000 0.78960  0.94753  0.29850  Biso   1.000  C
  C27      1.0000 0.71040  0.44753  0.20150  Biso   1.000  C
  C28      1.0000 0.21040  0.94753  0.20150  Biso   1.000  C
  C29      1.0000 0.71040  0.55247  0.70150  Biso   1.000  C
  C30      1.0000 0.21040  0.05247  0.70150  Biso   1.000  C
  C31      1.0000 0.28960  0.55247  0.79850  Biso   1.000  C
  C32      1.0000 0.78960  0.05247  0.79850  Biso   1.000  C
  C33      1.0000 0.30224  0.44834  0.34690  Biso   1.000  C
  C34      1.0000 0.80224  0.94834  0.34690  Biso   1.000  C
  C35      1.0000 0.69776  0.44834  0.15310  Biso   1.000  C
  C36      1.0000 0.19776  0.94834  0.15310  Biso   1.000  C
  C37      1.0000 0.69776  0.55166  0.65310  Biso   1.000  C
  C38      1.0000 0.19776  0.05166  0.65310  Biso   1.000  C
  C39      1.0000 0.30224  0.55166  0.84690  Biso   1.000  C
  C40      1.0000 0.80224  0.05166  0.84690  Biso   1.000  C
  C41      1.0000 0.28130  0.43820  0.37190  Biso   1.000  C
  C42      1.0000 0.78130  0.93820  0.37190  Biso   1.000  C
  C43      1.0000 0.71870  0.43820  0.12810  Biso   1.000  C
  C44      1.0000 0.21870  0.93820  0.12810  Biso   1.000  C
  C45      1.0000 0.71870  0.56180  0.62810  Biso   1.000  C
  C46      1.0000 0.21870  0.06180  0.62810  Biso   1.000  C
  C47      1.0000 0.28130  0.56180  0.87190  Biso   1.000  C
  C48      1.0000 0.78130  0.06180  0.87190  Biso   1.000  C
  H1       1.0000 0.28970  0.43870  0.40380  Biso   1.000  H
  H2       1.0000 0.78970  0.93870  0.40380  Biso   1.000  H
  H3       1.0000 0.71030  0.43870  0.09620  Biso   1.000  H
  H4       1.0000 0.21030  0.93870  0.09620  Biso   1.000  H
  H5       1.0000 0.71030  0.56130  0.59620  Biso   1.000  H
  H6       1.0000 0.21030  0.06130  0.59620  Biso   1.000  H
  H7       1.0000 0.28970  0.56130  0.90380  Biso   1.000  H
  H8       1.0000 0.78970  0.06130  0.90380  Biso   1.000  H
  C49      1.0000 0.24773  0.42726  0.34850  Biso   1.000  C
  C50      1.0000 0.74773  0.92726  0.34850  Biso   1.000  C
  C51      1.0000 0.75227  0.42726  0.15150  Biso   1.000  C
  C52      1.0000 0.25227  0.92726  0.15150  Biso   1.000  C
  C53      1.0000 0.75227  0.57274  0.65150  Biso   1.000  C
  C54      1.0000 0.25227  0.07274  0.65150  Biso   1.000  C
  C55      1.0000 0.24773  0.57274  0.84850  Biso   1.000  C
  C56      1.0000 0.74773  0.07274  0.84850  Biso   1.000  C
  C57      1.0000 0.23508  0.42646  0.30010  Biso   1.000  C
  C58      1.0000 0.73508  0.92646  0.30010  Biso   1.000  C
  C59      1.0000 0.76492  0.42646  0.19990  Biso   1.000  C
  C60      1.0000 0.26492  0.92646  0.19990  Biso   1.000  C
  C61      1.0000 0.76492  0.57354  0.69990  Biso   1.000  C
  C62      1.0000 0.26492  0.07354  0.69990  Biso   1.000  C
  C63      1.0000 0.23508  0.57354  0.80010  Biso   1.000  C
  C64      1.0000 0.73508  0.07354  0.80010  Biso   1.000  C
  C65      1.0000 0.24556  0.43660  0.22680  Biso   1.000  C
  C66      1.0000 0.74556  0.93660  0.22680  Biso   1.000  C
  C67      1.0000 0.75444  0.43660  0.27320  Biso   1.000  C
  C68      1.0000 0.25444  0.93660  0.27320  Biso   1.000  C
  C69      1.0000 0.75444  0.56340  0.77320  Biso   1.000  C
  C70      1.0000 0.25444  0.06340  0.77320  Biso   1.000  C
  C71      1.0000 0.24556  0.56340  0.72680  Biso   1.000  C
  C72      1.0000 0.74556  0.06340  0.72680  Biso   1.000  C
  C73      1.0000 0.22823  0.46387  0.20330  Biso   1.000  C
  C74      1.0000 0.72823  0.96387  0.20330  Biso   1.000  C
  C75      1.0000 0.77177  0.46387  0.29670  Biso   1.000  C
  C76      1.0000 0.27177  0.96387  0.29670  Biso   1.000  C
  C77      1.0000 0.77177  0.53613  0.79670  Biso   1.000  C
  C78      1.0000 0.27177  0.03613  0.79670  Biso   1.000  C
  C79      1.0000 0.22823  0.53613  0.70330  Biso   1.000  C
  C80      1.0000 0.72823  0.03613  0.70330  Biso   1.000  C
  C81      1.0000 0.21510  0.46419  0.15490  Biso   1.000  C
  C82      1.0000 0.71510  0.96419  0.15490  Biso   1.000  C
  C83      1.0000 0.78490  0.46419  0.34510  Biso   1.000  C
  C84      1.0000 0.28490  0.96419  0.34510  Biso   1.000  C
  C85      1.0000 0.78490  0.53581  0.84510  Biso   1.000  C
  C86      1.0000 0.28490  0.03581  0.84510  Biso   1.000  C
  C87      1.0000 0.21510  0.53581  0.65490  Biso   1.000  C
  C88      1.0000 0.71510  0.03581  0.65490  Biso   1.000  C
  C89      1.0000 0.21931  0.43720  0.13000  Biso   1.000  C
  C90      1.0000 0.71931  0.93720  0.13000  Biso   1.000  C
  C91      1.0000 0.78069  0.43720  0.37000  Biso   1.000  C
  C92      1.0000 0.28069  0.93720  0.37000  Biso   1.000  C
  C93      1.0000 0.78069  0.56280  0.87000  Biso   1.000  C
  C94      1.0000 0.28069  0.06280  0.87000  Biso   1.000  C
  C95      1.0000 0.21931  0.56280  0.63000  Biso   1.000  C
  C96      1.0000 0.71931  0.06280  0.63000  Biso   1.000  C
  H9       1.0000 0.21070  0.43740  0.09800  Biso   1.000  H
  H10      1.0000 0.71070  0.93740  0.09800  Biso   1.000  H
  H11      1.0000 0.78930  0.43740  0.40200  Biso   1.000  H
  H12      1.0000 0.28930  0.93740  0.40200  Biso   1.000  H
  H13      1.0000 0.78930  0.56260  0.90200  Biso   1.000  H
  H14      1.0000 0.28930  0.06260  0.90200  Biso   1.000  H
  H15      1.0000 0.21070  0.56260  0.59800  Biso   1.000  H
  H16      1.0000 0.71070  0.06260  0.59800  Biso   1.000  H
  C97      1.0000 0.23664  0.40995  0.15340  Biso   1.000  C
  C98      1.0000 0.73664  0.90995  0.15340  Biso   1.000  C
  C99      1.0000 0.76336  0.40995  0.34660  Biso   1.000  C
  C100     1.0000 0.26336  0.90995  0.34660  Biso   1.000  C
  C101     1.0000 0.76336  0.59005  0.84660  Biso   1.000  C
  C102     1.0000 0.26336  0.09005  0.84660  Biso   1.000  C
  C103     1.0000 0.23664  0.59005  0.65340  Biso   1.000  C
  C104     1.0000 0.73664  0.09005  0.65340  Biso   1.000  C
  C105     1.0000 0.24976  0.40963  0.20180  Biso   1.000  C
  C106     1.0000 0.74976  0.90963  0.20180  Biso   1.000  C
  C107     1.0000 0.75024  0.40963  0.29820  Biso   1.000  C
  C108     1.0000 0.25024  0.90963  0.29820  Biso   1.000  C
  C109     1.0000 0.75024  0.59037  0.79820  Biso   1.000  C
  C110     1.0000 0.25024  0.09037  0.79820  Biso   1.000  C
  C111     1.0000 0.24976  0.59037  0.70180  Biso   1.000  C
  C112     1.0000 0.74976  0.09037  0.70180  Biso   1.000  C
  C113     1.0000 0.24107  0.38189  0.12730  Biso   1.000  C
  C114     1.0000 0.74107  0.88189  0.12730  Biso   1.000  C
  C115     1.0000 0.75893  0.38189  0.37270  Biso   1.000  C
  C116     1.0000 0.25893  0.88189  0.37270  Biso   1.000  C
  C117     1.0000 0.75893  0.61811  0.87270  Biso   1.000  C
  C118     1.0000 0.25893  0.11811  0.87270  Biso   1.000  C
  C119     1.0000 0.24107  0.61811  0.62730  Biso   1.000  C
  C120     1.0000 0.74107  0.11811  0.62730  Biso   1.000  C
  C121     1.0000 0.25001  0.38545  0.08760  Biso   1.000  C
  C122     1.0000 0.75001  0.88545  0.08760  Biso   1.000  C
  C123     1.0000 0.74999  0.38545  0.41240  Biso   1.000  C
  C124     1.0000 0.24999  0.88545  0.41240  Biso   1.000  C
  C125     1.0000 0.74999  0.61455  0.91240  Biso   1.000  C
  C126     1.0000 0.24999  0.11455  0.91240  Biso   1.000  C
  C127     1.0000 0.25001  0.61455  0.58760  Biso   1.000  C
  C128     1.0000 0.75001  0.11455  0.58760  Biso   1.000  C
  H17      1.0000 0.25410  0.40570  0.07820  Biso   1.000  H
  H18      1.0000 0.75410  0.90570  0.07820  Biso   1.000  H
  H19      1.0000 0.74590  0.40570  0.42180  Biso   1.000  H
  H20      1.0000 0.24590  0.90570  0.42180  Biso   1.000  H
  H21      1.0000 0.74590  0.59430  0.92180  Biso   1.000  H
  H22      1.0000 0.24590  0.09430  0.92180  Biso   1.000  H
  H23      1.0000 0.25410  0.59430  0.57820  Biso   1.000  H
  H24      1.0000 0.75410  0.09430  0.57820  Biso   1.000  H
  C129     1.0000 0.25270  0.35827  0.06200  Biso   1.000  C
  C130     1.0000 0.75270  0.85827  0.06200  Biso   1.000  C
  C131     1.0000 0.74730  0.35827  0.43800  Biso   1.000  C
  C132     1.0000 0.24730  0.85827  0.43800  Biso   1.000  C
  C133     1.0000 0.74730  0.64173  0.93800  Biso   1.000  C
  C134     1.0000 0.24730  0.14173  0.93800  Biso   1.000  C
  C135     1.0000 0.25270  0.64173  0.56200  Biso   1.000  C
  C136     1.0000 0.75270  0.14173  0.56200  Biso   1.000  C
  H25      1.0000 0.25860  0.36060  0.03580  Biso   1.000  H
  H26      1.0000 0.75860  0.86060  0.03580  Biso   1.000  H
  H27      1.0000 0.74140  0.36060  0.46420  Biso   1.000  H
  H28      1.0000 0.24140  0.86060  0.46420  Biso   1.000  H
  H29      1.0000 0.74140  0.63940  0.96420  Biso   1.000  H
  H30      1.0000 0.24140  0.13940  0.96420  Biso   1.000  H
  H31      1.0000 0.25860  0.63940  0.53580  Biso   1.000  H
  H32      1.0000 0.75860  0.13940  0.53580  Biso   1.000  H
  C137     1.0000 0.24644  0.32754  0.07620  Biso   1.000  C
  C138     1.0000 0.74644  0.82754  0.07620  Biso   1.000  C
  C139     1.0000 0.75356  0.32754  0.42380  Biso   1.000  C
  C140     1.0000 0.25356  0.82754  0.42380  Biso   1.000  C
  C141     1.0000 0.75356  0.67246  0.92380  Biso   1.000  C
  C142     1.0000 0.25356  0.17246  0.92380  Biso   1.000  C
  C143     1.0000 0.24644  0.67246  0.57620  Biso   1.000  C
  C144     1.0000 0.74644  0.17246  0.57620  Biso   1.000  C
  C145     1.0000 0.23750  0.32398  0.11600  Biso   1.000  C
  C146     1.0000 0.73750  0.82398  0.11600  Biso   1.000  C
  C147     1.0000 0.76250  0.32398  0.38400  Biso   1.000  C
  C148     1.0000 0.26250  0.82398  0.38400  Biso   1.000  C
  C149     1.0000 0.76250  0.67602  0.88400  Biso   1.000  C
  C150     1.0000 0.26250  0.17602  0.88400  Biso   1.000  C
  C151     1.0000 0.23750  0.67602  0.61600  Biso   1.000  C
  C152     1.0000 0.73750  0.17602  0.61600  Biso   1.000  C
  H33      1.0000 0.23340  0.30370  0.12540  Biso   1.000  H
  H34      1.0000 0.73340  0.80370  0.12540  Biso   1.000  H
  H35      1.0000 0.76660  0.30370  0.37460  Biso   1.000  H
  H36      1.0000 0.26660  0.80370  0.37460  Biso   1.000  H
  H37      1.0000 0.76660  0.69630  0.87460  Biso   1.000  H
  H38      1.0000 0.26660  0.19630  0.87460  Biso   1.000  H
  H39      1.0000 0.23340  0.69630  0.62540  Biso   1.000  H
  H40      1.0000 0.73340  0.19630  0.62540  Biso   1.000  H
  C153     1.0000 0.23481  0.35116  0.14160  Biso   1.000  C
  C154     1.0000 0.73481  0.85116  0.14160  Biso   1.000  C
  C155     1.0000 0.76519  0.35116  0.35840  Biso   1.000  C
  C156     1.0000 0.26519  0.85116  0.35840  Biso   1.000  C
  C157     1.0000 0.76519  0.64884  0.85840  Biso   1.000  C
  C158     1.0000 0.26519  0.14884  0.85840  Biso   1.000  C
  C159     1.0000 0.23481  0.64884  0.64160  Biso   1.000  C
  C160     1.0000 0.73481  0.14884  0.64160  Biso   1.000  C
  H41      1.0000 0.22890  0.34880  0.16780  Biso   1.000  H
  H42      1.0000 0.72890  0.84880  0.16780  Biso   1.000  H
  H43      1.0000 0.77110  0.34880  0.33220  Biso   1.000  H
  H44      1.0000 0.27110  0.84880  0.33220  Biso   1.000  H
  H45      1.0000 0.77110  0.65120  0.83220  Biso   1.000  H
  H46      1.0000 0.27110  0.15120  0.83220  Biso   1.000  H
  H47      1.0000 0.22890  0.65120  0.66780  Biso   1.000  H
  H48      1.0000 0.72890  0.15120  0.66780  Biso   1.000  H
  C161     1.0000 0.33621  0.45965  0.37220  Biso   1.000  C
  C162     1.0000 0.83621  0.95965  0.37220  Biso   1.000  C
  C163     1.0000 0.66379  0.45965  0.12780  Biso   1.000  C
  C164     1.0000 0.16379  0.95965  0.12780  Biso   1.000  C
  C165     1.0000 0.66379  0.54035  0.62780  Biso   1.000  C
  C166     1.0000 0.16379  0.04035  0.62780  Biso   1.000  C
  C167     1.0000 0.33621  0.54035  0.87220  Biso   1.000  C
  C168     1.0000 0.83621  0.04035  0.87220  Biso   1.000  C
  C169     1.0000 0.34270  0.47872  0.41180  Biso   1.000  C
  C170     1.0000 0.84270  0.97872  0.41180  Biso   1.000  C
  C171     1.0000 0.65730  0.47872  0.08820  Biso   1.000  C
  C172     1.0000 0.15730  0.97872  0.08820  Biso   1.000  C
  C173     1.0000 0.65730  0.52128  0.58820  Biso   1.000  C
  C174     1.0000 0.15730  0.02128  0.58820  Biso   1.000  C
  C175     1.0000 0.34270  0.52128  0.91180  Biso   1.000  C
  C176     1.0000 0.84270  0.02128  0.91180  Biso   1.000  C
  H49      1.0000 0.32460  0.48580  0.42060  Biso   1.000  H
  H50      1.0000 0.82460  0.98580  0.42060  Biso   1.000  H
  H51      1.0000 0.67540  0.48580  0.07940  Biso   1.000  H
  H52      1.0000 0.17540  0.98580  0.07940  Biso   1.000  H
  H53      1.0000 0.67540  0.51420  0.57940  Biso   1.000  H
  H54      1.0000 0.17540  0.01420  0.57940  Biso   1.000  H
  H55      1.0000 0.32460  0.51420  0.92060  Biso   1.000  H
  H56      1.0000 0.82460  0.01420  0.92060  Biso   1.000  H
  C177     1.0000 0.37664  0.48711  0.43810  Biso   1.000  C
  C178     1.0000 0.87664  0.98711  0.43810  Biso   1.000  C
  C179     1.0000 0.62336  0.48711  0.06190  Biso   1.000  C
  C180     1.0000 0.12336  0.98711  0.06190  Biso   1.000  C
  C181     1.0000 0.62336  0.51289  0.56190  Biso   1.000  C
  C182     1.0000 0.12336  0.01289  0.56190  Biso   1.000  C
  C183     1.0000 0.37664  0.51289  0.93810  Biso   1.000  C
  C184     1.0000 0.87664  0.01289  0.93810  Biso   1.000  C
  H57      1.0000 0.38090  0.49970  0.46420  Biso   1.000  H
  H58      1.0000 0.88090  0.99970  0.46420  Biso   1.000  H
  H59      1.0000 0.61910  0.49970  0.03580  Biso   1.000  H
  H60      1.0000 0.11910  0.99970  0.03580  Biso   1.000  H
  H61      1.0000 0.61910  0.50030  0.53580  Biso   1.000  H
  H62      1.0000 0.11910  0.00030  0.53580  Biso   1.000  H
  H63      1.0000 0.38090  0.50030  0.96420  Biso   1.000  H
  H64      1.0000 0.88090  0.00030  0.96420  Biso   1.000  H
  C185     1.0000 0.40410  0.47644  0.42470  Biso   1.000  C
  C186     1.0000 0.90410  0.97644  0.42470  Biso   1.000  C
  C187     1.0000 0.59590  0.47644  0.07530  Biso   1.000  C
  C188     1.0000 0.09590  0.97644  0.07530  Biso   1.000  C
  C189     1.0000 0.59590  0.52356  0.57530  Biso   1.000  C
  C190     1.0000 0.09590  0.02356  0.57530  Biso   1.000  C
  C191     1.0000 0.40410  0.52356  0.92470  Biso   1.000  C
  C192     1.0000 0.90410  0.02356  0.92470  Biso   1.000  C
  C193     1.0000 0.39761  0.45738  0.38510  Biso   1.000  C
  C194     1.0000 0.89761  0.95738  0.38510  Biso   1.000  C
  C195     1.0000 0.60239  0.45738  0.11490  Biso   1.000  C
  C196     1.0000 0.10239  0.95738  0.11490  Biso   1.000  C
  C197     1.0000 0.60239  0.54262  0.61490  Biso   1.000  C
  C198     1.0000 0.10239  0.04262  0.61490  Biso   1.000  C
  C199     1.0000 0.39761  0.54262  0.88510  Biso   1.000  C
  C200     1.0000 0.89761  0.04262  0.88510  Biso   1.000  C
  H65      1.0000 0.41570  0.45030  0.37630  Biso   1.000  H
  H66      1.0000 0.91570  0.95030  0.37630  Biso   1.000  H
  H67      1.0000 0.58430  0.45030  0.12370  Biso   1.000  H
  H68      1.0000 0.08430  0.95030  0.12370  Biso   1.000  H
  H69      1.0000 0.58430  0.54970  0.62370  Biso   1.000  H
  H70      1.0000 0.08430  0.04970  0.62370  Biso   1.000  H
  H71      1.0000 0.41570  0.54970  0.87630  Biso   1.000  H
  H72      1.0000 0.91570  0.04970  0.87630  Biso   1.000  H
  C201     1.0000 0.36366  0.44899  0.35880  Biso   1.000  C
  C202     1.0000 0.86366  0.94899  0.35880  Biso   1.000  C
  C203     1.0000 0.63634  0.44899  0.14120  Biso   1.000  C
  C204     1.0000 0.13634  0.94899  0.14120  Biso   1.000  C
  C205     1.0000 0.63634  0.55101  0.64120  Biso   1.000  C
  C206     1.0000 0.13634  0.05101  0.64120  Biso   1.000  C
  C207     1.0000 0.36366  0.55101  0.85880  Biso   1.000  C
  C208     1.0000 0.86366  0.05101  0.85880  Biso   1.000  C
  H73      1.0000 0.35940  0.43640  0.33270  Biso   1.000  H
  H74      1.0000 0.85940  0.93640  0.33270  Biso   1.000  H
  H75      1.0000 0.64060  0.43640  0.16730  Biso   1.000  H
  H76      1.0000 0.14060  0.93640  0.16730  Biso   1.000  H
  H77      1.0000 0.64060  0.56360  0.66730  Biso   1.000  H
  H78      1.0000 0.14060  0.06360  0.66730  Biso   1.000  H
  H79      1.0000 0.35940  0.56360  0.83270  Biso   1.000  H
  H80      1.0000 0.85940  0.06360  0.83270  Biso   1.000  H
  C209     1.0000 0.22603  0.41496  0.37400  Biso   1.000  C
  C210     1.0000 0.72603  0.91496  0.37400  Biso   1.000  C
  C211     1.0000 0.77397  0.41496  0.12600  Biso   1.000  C
  C212     1.0000 0.27397  0.91496  0.12600  Biso   1.000  C
  C213     1.0000 0.77397  0.58504  0.62600  Biso   1.000  C
  C214     1.0000 0.27397  0.08504  0.62600  Biso   1.000  C
  C215     1.0000 0.22603  0.58504  0.87400  Biso   1.000  C
  C216     1.0000 0.72603  0.08504  0.87400  Biso   1.000  C
  C217     1.0000 0.19140  0.42460  0.35872  Biso   1.000  C
  C218     1.0000 0.69140  0.92460  0.35872  Biso   1.000  C
  C219     1.0000 0.80860  0.42460  0.14128  Biso   1.000  C
  C220     1.0000 0.30860  0.92460  0.14128  Biso   1.000  C
  C221     1.0000 0.80860  0.57540  0.64128  Biso   1.000  C
  C222     1.0000 0.30860  0.07540  0.64128  Biso   1.000  C
  C223     1.0000 0.19140  0.57540  0.85872  Biso   1.000  C
  C224     1.0000 0.69140  0.07540  0.85872  Biso   1.000  C
  H81      1.0000 0.18250  0.43640  0.33180  Biso   1.000  H
  H82      1.0000 0.68250  0.93640  0.33180  Biso   1.000  H
  H83      1.0000 0.81750  0.43640  0.16820  Biso   1.000  H
  H84      1.0000 0.31750  0.93640  0.16820  Biso   1.000  H
  H85      1.0000 0.81750  0.56360  0.66820  Biso   1.000  H
  H86      1.0000 0.31750  0.06360  0.66820  Biso   1.000  H
  H87      1.0000 0.18250  0.56360  0.83180  Biso   1.000  H
  H88      1.0000 0.68250  0.06360  0.83180  Biso   1.000  H
  C225     1.0000 0.17019  0.41627  0.38420  Biso   1.000  C
  C226     1.0000 0.67019  0.91627  0.38420  Biso   1.000  C
  C227     1.0000 0.82981  0.41627  0.11580  Biso   1.000  C
  C228     1.0000 0.32981  0.91627  0.11580  Biso   1.000  C
  C229     1.0000 0.82981  0.58373  0.61580  Biso   1.000  C
  C230     1.0000 0.32981  0.08373  0.61580  Biso   1.000  C
  C231     1.0000 0.17019  0.58373  0.88420  Biso   1.000  C
  C232     1.0000 0.67019  0.08373  0.88420  Biso   1.000  C
  H89      1.0000 0.14730  0.42260  0.37410  Biso   1.000  H
  H90      1.0000 0.64730  0.92260  0.37410  Biso   1.000  H
  H91      1.0000 0.85270  0.42260  0.12590  Biso   1.000  H
  H92      1.0000 0.35270  0.92260  0.12590  Biso   1.000  H
  H93      1.0000 0.85270  0.57740  0.62590  Biso   1.000  H
  H94      1.0000 0.35270  0.07740  0.62590  Biso   1.000  H
  H95      1.0000 0.14730  0.57740  0.87410  Biso   1.000  H
  H96      1.0000 0.64730  0.07740  0.87410  Biso   1.000  H
  C233     1.0000 0.18362  0.39831  0.42490  Biso   1.000  C
  C234     1.0000 0.68362  0.89831  0.42490  Biso   1.000  C
  C235     1.0000 0.81638  0.39831  0.07510  Biso   1.000  C
  C236     1.0000 0.31638  0.89831  0.07510  Biso   1.000  C
  C237     1.0000 0.81638  0.60169  0.57510  Biso   1.000  C
  C238     1.0000 0.31638  0.10169  0.57510  Biso   1.000  C
  C239     1.0000 0.18362  0.60169  0.92490  Biso   1.000  C
  C240     1.0000 0.68362  0.10169  0.92490  Biso   1.000  C
  C241     1.0000 0.21826  0.38867  0.44020  Biso   1.000  C
  C242     1.0000 0.71826  0.88867  0.44020  Biso   1.000  C
  C243     1.0000 0.78174  0.38867  0.05980  Biso   1.000  C
  C244     1.0000 0.28174  0.88867  0.05980  Biso   1.000  C
  C245     1.0000 0.78174  0.61133  0.55980  Biso   1.000  C
  C246     1.0000 0.28174  0.11133  0.55980  Biso   1.000  C
  C247     1.0000 0.21826  0.61133  0.94020  Biso   1.000  C
  C248     1.0000 0.71826  0.11133  0.94020  Biso   1.000  C
  H97      1.0000 0.22710  0.37680  0.46710  Biso   1.000  H
  H98      1.0000 0.72710  0.87680  0.46710  Biso   1.000  H
  H99      1.0000 0.77290  0.37680  0.03290  Biso   1.000  H
  H100     1.0000 0.27290  0.87680  0.03290  Biso   1.000  H
  H101     1.0000 0.77290  0.62320  0.53290  Biso   1.000  H
  H102     1.0000 0.27290  0.12320  0.53290  Biso   1.000  H
  H103     1.0000 0.22710  0.62320  0.96710  Biso   1.000  H
  H104     1.0000 0.72710  0.12320  0.96710  Biso   1.000  H
  C249     1.0000 0.23947  0.39699  0.41480  Biso   1.000  C
  C250     1.0000 0.73947  0.89699  0.41480  Biso   1.000  C
  C251     1.0000 0.76053  0.39699  0.08520  Biso   1.000  C
  C252     1.0000 0.26053  0.89699  0.08520  Biso   1.000  C
  C253     1.0000 0.76053  0.60301  0.58520  Biso   1.000  C
  C254     1.0000 0.26053  0.10301  0.58520  Biso   1.000  C
  C255     1.0000 0.23947  0.60301  0.91480  Biso   1.000  C
  C256     1.0000 0.73947  0.10301  0.91480  Biso   1.000  C
  H105     1.0000 0.26230  0.39060  0.42490  Biso   1.000  H
  H106     1.0000 0.76230  0.89060  0.42490  Biso   1.000  H
  H107     1.0000 0.73770  0.39060  0.07510  Biso   1.000  H
  H108     1.0000 0.23770  0.89060  0.07510  Biso   1.000  H
  H109     1.0000 0.73770  0.60940  0.57510  Biso   1.000  H
  H110     1.0000 0.23770  0.10940  0.57510  Biso   1.000  H
  H111     1.0000 0.26230  0.60940  0.92490  Biso   1.000  H
  H112     1.0000 0.76230  0.10940  0.92490  Biso   1.000  H
  C257     1.0000 0.05361  0.24214  0.37470  Biso   1.000  C
  C258     1.0000 0.55361  0.74214  0.37470  Biso   1.000  C
  C259     1.0000 0.94639  0.24214  0.12530  Biso   1.000  C
  C260     1.0000 0.44639  0.74214  0.12530  Biso   1.000  C
  C261     1.0000 0.94639  0.75786  0.62530  Biso   1.000  C
  C262     1.0000 0.44639  0.25786  0.62530  Biso   1.000  C
  C263     1.0000 0.05361  0.75786  0.87470  Biso   1.000  C
  C264     1.0000 0.55361  0.25786  0.87470  Biso   1.000  C
  C265     1.0000 0.08272  0.23887  0.41460  Biso   1.000  C
  C266     1.0000 0.58272  0.73887  0.41460  Biso   1.000  C
  C267     1.0000 0.91728  0.23887  0.08540  Biso   1.000  C
  C268     1.0000 0.41728  0.73887  0.08540  Biso   1.000  C
  C269     1.0000 0.91728  0.76113  0.58540  Biso   1.000  C
  C270     1.0000 0.41728  0.26113  0.58540  Biso   1.000  C
  C271     1.0000 0.08272  0.76113  0.91460  Biso   1.000  C
  C272     1.0000 0.58272  0.26113  0.91460  Biso   1.000  C
  H113     1.0000 0.09170  0.21870  0.42430  Biso   1.000  H
  H114     1.0000 0.59170  0.71870  0.42430  Biso   1.000  H
  H115     1.0000 0.90830  0.21870  0.07570  Biso   1.000  H
  H116     1.0000 0.40830  0.71870  0.07570  Biso   1.000  H
  H117     1.0000 0.90830  0.78130  0.57570  Biso   1.000  H
  H118     1.0000 0.40830  0.28130  0.57570  Biso   1.000  H
  H119     1.0000 0.09170  0.78130  0.92430  Biso   1.000  H
  H120     1.0000 0.59170  0.28130  0.92430  Biso   1.000  H
  C273     1.0000 0.09820  0.26620  0.43990  Biso   1.000  C
  C274     1.0000 0.59820  0.76620  0.43990  Biso   1.000  C
  C275     1.0000 0.90180  0.26620  0.06010  Biso   1.000  C
  C276     1.0000 0.40180  0.76620  0.06010  Biso   1.000  C
  C277     1.0000 0.90180  0.73380  0.56010  Biso   1.000  C
  C278     1.0000 0.40180  0.23380  0.56010  Biso   1.000  C
  C279     1.0000 0.09820  0.73380  0.93990  Biso   1.000  C
  C280     1.0000 0.59820  0.23380  0.93990  Biso   1.000  C
  H121     1.0000 0.11740  0.26410  0.46620  Biso   1.000  H
  H122     1.0000 0.61740  0.76410  0.46620  Biso   1.000  H
  H123     1.0000 0.88260  0.26410  0.03380  Biso   1.000  H
  H124     1.0000 0.38260  0.76410  0.03380  Biso   1.000  H
  H125     1.0000 0.88260  0.73590  0.53380  Biso   1.000  H
  H126     1.0000 0.38260  0.23590  0.53380  Biso   1.000  H
  H127     1.0000 0.11740  0.73590  0.96620  Biso   1.000  H
  H128     1.0000 0.61740  0.23590  0.96620  Biso   1.000  H
  C281     1.0000 0.08456  0.29684  0.42520  Biso   1.000  C
  C282     1.0000 0.58456  0.79684  0.42520  Biso   1.000  C
  C283     1.0000 0.91544  0.29684  0.07480  Biso   1.000  C
  C284     1.0000 0.41544  0.79684  0.07480  Biso   1.000  C
  C285     1.0000 0.91544  0.70316  0.57480  Biso   1.000  C
  C286     1.0000 0.41544  0.20316  0.57480  Biso   1.000  C
  C287     1.0000 0.08456  0.70316  0.92520  Biso   1.000  C
  C288     1.0000 0.58456  0.20316  0.92520  Biso   1.000  C
  C289     1.0000 0.05545  0.30011  0.38530  Biso   1.000  C
  C290     1.0000 0.55545  0.80011  0.38530  Biso   1.000  C
  C291     1.0000 0.94455  0.30011  0.11470  Biso   1.000  C
  C292     1.0000 0.44455  0.80011  0.11470  Biso   1.000  C
  C293     1.0000 0.94455  0.69989  0.61470  Biso   1.000  C
  C294     1.0000 0.44455  0.19989  0.61470  Biso   1.000  C
  C295     1.0000 0.05545  0.69989  0.88530  Biso   1.000  C
  C296     1.0000 0.55545  0.19989  0.88530  Biso   1.000  C
  H129     1.0000 0.04650  0.32030  0.37570  Biso   1.000  H
  H130     1.0000 0.54650  0.82030  0.37570  Biso   1.000  H
  H131     1.0000 0.95350  0.32030  0.12430  Biso   1.000  H
  H132     1.0000 0.45350  0.82030  0.12430  Biso   1.000  H
  H133     1.0000 0.95350  0.67970  0.62430  Biso   1.000  H
  H134     1.0000 0.45350  0.17970  0.62430  Biso   1.000  H
  H135     1.0000 0.04650  0.67970  0.87570  Biso   1.000  H
  H136     1.0000 0.54650  0.17970  0.87570  Biso   1.000  H
  C297     1.0000 0.03997  0.27276  0.36010  Biso   1.000  C
  C298     1.0000 0.53997  0.77276  0.36010  Biso   1.000  C
  C299     1.0000 0.96003  0.27276  0.13990  Biso   1.000  C
  C300     1.0000 0.46003  0.77276  0.13990  Biso   1.000  C
  C301     1.0000 0.96003  0.72724  0.63990  Biso   1.000  C
  C302     1.0000 0.46003  0.22724  0.63990  Biso   1.000  C
  C303     1.0000 0.03997  0.72724  0.86010  Biso   1.000  C
  C304     1.0000 0.53997  0.22724  0.86010  Biso   1.000  C
  H137     1.0000 0.02080  0.27490  0.33380  Biso   1.000  H
  H138     1.0000 0.52080  0.77490  0.33380  Biso   1.000  H
  H139     1.0000 0.97920  0.27490  0.16620  Biso   1.000  H
  H140     1.0000 0.47920  0.77490  0.16620  Biso   1.000  H
  H141     1.0000 0.97920  0.72510  0.66620  Biso   1.000  H
  H142     1.0000 0.47920  0.22510  0.66620  Biso   1.000  H
  H143     1.0000 0.02080  0.72510  0.83380  Biso   1.000  H
  H144     1.0000 0.52080  0.22510  0.83380  Biso   1.000  H
  C305     1.0000 0.01182  0.16138  0.34870  Biso   1.000  C
  C306     1.0000 0.51182  0.66138  0.34870  Biso   1.000  C
  C307     1.0000 0.98818  0.16138  0.15130  Biso   1.000  C
  C308     1.0000 0.48818  0.66138  0.15130  Biso   1.000  C
  C309     1.0000 0.98818  0.83862  0.65130  Biso   1.000  C
  C310     1.0000 0.48818  0.33862  0.65130  Biso   1.000  C
  C311     1.0000 0.01182  0.83862  0.84870  Biso   1.000  C
  C312     1.0000 0.51182  0.33862  0.84870  Biso   1.000  C
  C313     1.0000 0.03059  0.18758  0.37347  Biso   1.000  C
  C314     1.0000 0.53059  0.68758  0.37347  Biso   1.000  C
  C315     1.0000 0.96941  0.18758  0.12653  Biso   1.000  C
  C316     1.0000 0.46941  0.68758  0.12653  Biso   1.000  C
  C317     1.0000 0.96941  0.81242  0.62653  Biso   1.000  C
  C318     1.0000 0.46941  0.31242  0.62653  Biso   1.000  C
  C319     1.0000 0.03059  0.81242  0.87347  Biso   1.000  C
  C320     1.0000 0.53059  0.31242  0.87347  Biso   1.000  C
  H145     1.0000 0.03840  0.18740  0.40540  Biso   1.000  H
  H146     1.0000 0.53840  0.68740  0.40540  Biso   1.000  H
  H147     1.0000 0.96160  0.18740  0.09460  Biso   1.000  H
  H148     1.0000 0.46160  0.68740  0.09460  Biso   1.000  H
  H149     1.0000 0.96160  0.81260  0.59460  Biso   1.000  H
  H150     1.0000 0.46160  0.31260  0.59460  Biso   1.000  H
  H151     1.0000 0.03840  0.81260  0.90540  Biso   1.000  H
  H152     1.0000 0.53840  0.31260  0.90540  Biso   1.000  H
  C321     1.0000 0.03750  0.21412  0.34990  Biso   1.000  C
  C322     1.0000 0.53750  0.71412  0.34990  Biso   1.000  C
  C323     1.0000 0.96250  0.21412  0.15010  Biso   1.000  C
  C324     1.0000 0.46250  0.71412  0.15010  Biso   1.000  C
  C325     1.0000 0.96250  0.78588  0.65010  Biso   1.000  C
  C326     1.0000 0.46250  0.28588  0.65010  Biso   1.000  C
  C327     1.0000 0.03750  0.78588  0.84990  Biso   1.000  C
  C328     1.0000 0.53750  0.28588  0.84990  Biso   1.000  C
  C329     1.0000 0.02563  0.21446  0.30150  Biso   1.000  C
  C330     1.0000 0.52563  0.71446  0.30150  Biso   1.000  C
  C331     1.0000 0.97437  0.21446  0.19850  Biso   1.000  C
  C332     1.0000 0.47437  0.71446  0.19850  Biso   1.000  C
  C333     1.0000 0.97437  0.78554  0.69850  Biso   1.000  C
  C334     1.0000 0.47437  0.28554  0.69850  Biso   1.000  C
  C335     1.0000 0.02563  0.78554  0.80150  Biso   1.000  C
  C336     1.0000 0.52563  0.28554  0.80150  Biso   1.000  C
  C337     1.0000 0.00686  0.18826  0.27664  Biso   1.000  C
  C338     1.0000 0.50686  0.68826  0.27664  Biso   1.000  C
  C339     1.0000 0.99314  0.18826  0.22336  Biso   1.000  C
  C340     1.0000 0.49314  0.68826  0.22336  Biso   1.000  C
  C341     1.0000 0.99314  0.81174  0.72336  Biso   1.000  C
  C342     1.0000 0.49314  0.31174  0.72336  Biso   1.000  C
  C343     1.0000 0.00686  0.81174  0.77664  Biso   1.000  C
  C344     1.0000 0.50686  0.31174  0.77664  Biso   1.000  C
  C345     1.0000 0.99995  0.16172  0.30020  Biso   1.000  C
  C346     1.0000 0.49995  0.66172  0.30020  Biso   1.000  C
  C347     1.0000 0.00005  0.16172  0.19980  Biso   1.000  C
  C348     1.0000 0.50005  0.66172  0.19980  Biso   1.000  C
  C349     1.0000 0.00005  0.83828  0.69980  Biso   1.000  C
  C350     1.0000 0.50005  0.33828  0.69980  Biso   1.000  C
  C351     1.0000 0.99995  0.83828  0.80020  Biso   1.000  C
  C352     1.0000 0.49995  0.33828  0.80020  Biso   1.000  C
  C353     1.0000 0.91383  0.28944  0.62670  Biso   1.000  C
  C354     1.0000 0.41383  0.78944  0.62670  Biso   1.000  C
  C355     1.0000 0.08617  0.28944  0.87330  Biso   1.000  C
  C356     1.0000 0.58617  0.78944  0.87330  Biso   1.000  C
  C357     1.0000 0.08617  0.71056  0.37330  Biso   1.000  C
  C358     1.0000 0.58617  0.21056  0.37330  Biso   1.000  C
  C359     1.0000 0.91383  0.71056  0.12670  Biso   1.000  C
  C360     1.0000 0.41383  0.21056  0.12670  Biso   1.000  C
  C361     1.0000 0.90741  0.27046  0.58700  Biso   1.000  C
  C362     1.0000 0.40741  0.77046  0.58700  Biso   1.000  C
  C363     1.0000 0.09259  0.27046  0.91300  Biso   1.000  C
  C364     1.0000 0.59259  0.77046  0.91300  Biso   1.000  C
  C365     1.0000 0.09259  0.72954  0.41300  Biso   1.000  C
  C366     1.0000 0.59259  0.22954  0.41300  Biso   1.000  C
  C367     1.0000 0.90741  0.72954  0.08700  Biso   1.000  C
  C368     1.0000 0.40741  0.22954  0.08700  Biso   1.000  C
  H153     1.0000 0.92550  0.26400  0.57770  Biso   1.000  H
  H154     1.0000 0.42550  0.76400  0.57770  Biso   1.000  H
  H155     1.0000 0.07450  0.26400  0.92230  Biso   1.000  H
  H156     1.0000 0.57450  0.76400  0.92230  Biso   1.000  H
  H157     1.0000 0.07450  0.73600  0.42230  Biso   1.000  H
  H158     1.0000 0.57450  0.23600  0.42230  Biso   1.000  H
  H159     1.0000 0.92550  0.73600  0.07770  Biso   1.000  H
  H160     1.0000 0.42550  0.23600  0.07770  Biso   1.000  H
  C369     1.0000 0.87360  0.26130  0.56130  Biso   1.000  C
  C370     1.0000 0.37360  0.76130  0.56130  Biso   1.000  C
  C371     1.0000 0.12640  0.26130  0.93870  Biso   1.000  C
  C372     1.0000 0.62640  0.76130  0.93870  Biso   1.000  C
  C373     1.0000 0.12640  0.73870  0.43870  Biso   1.000  C
  C374     1.0000 0.62640  0.23870  0.43870  Biso   1.000  C
  C375     1.0000 0.87360  0.73870  0.06130  Biso   1.000  C
  C376     1.0000 0.37360  0.23870  0.06130  Biso   1.000  C
  H161     1.0000 0.86930  0.24880  0.53520  Biso   1.000  H
  H162     1.0000 0.36930  0.74880  0.53520  Biso   1.000  H
  H163     1.0000 0.13070  0.24880  0.96480  Biso   1.000  H
  H164     1.0000 0.63070  0.74880  0.96480  Biso   1.000  H
  H165     1.0000 0.13070  0.75120  0.46480  Biso   1.000  H
  H166     1.0000 0.63070  0.25120  0.46480  Biso   1.000  H
  H167     1.0000 0.86930  0.75120  0.03520  Biso   1.000  H
  H168     1.0000 0.36930  0.25120  0.03520  Biso   1.000  H
  C377     1.0000 0.84617  0.27112  0.57540  Biso   1.000  C
  C378     1.0000 0.34617  0.77112  0.57540  Biso   1.000  C
  C379     1.0000 0.15383  0.27112  0.92460  Biso   1.000  C
  C380     1.0000 0.65383  0.77112  0.92460  Biso   1.000  C
  C381     1.0000 0.15383  0.72888  0.42460  Biso   1.000  C
  C382     1.0000 0.65383  0.22888  0.42460  Biso   1.000  C
  C383     1.0000 0.84617  0.72888  0.07540  Biso   1.000  C
  C384     1.0000 0.34617  0.22888  0.07540  Biso   1.000  C
  C385     1.0000 0.85259  0.29010  0.61510  Biso   1.000  C
  C386     1.0000 0.35259  0.79010  0.61510  Biso   1.000  C
  C387     1.0000 0.14741  0.29010  0.88490  Biso   1.000  C
  C388     1.0000 0.64741  0.79010  0.88490  Biso   1.000  C
  C389     1.0000 0.14741  0.70990  0.38490  Biso   1.000  C
  C390     1.0000 0.64741  0.20990  0.38490  Biso   1.000  C
  C391     1.0000 0.85259  0.70990  0.11510  Biso   1.000  C
  C392     1.0000 0.35259  0.20990  0.11510  Biso   1.000  C
  H169     1.0000 0.83450  0.29660  0.62440  Biso   1.000  H
  H170     1.0000 0.33450  0.79660  0.62440  Biso   1.000  H
  H171     1.0000 0.16550  0.29660  0.87560  Biso   1.000  H
  H172     1.0000 0.66550  0.79660  0.87560  Biso   1.000  H
  H173     1.0000 0.16550  0.70340  0.37560  Biso   1.000  H
  H174     1.0000 0.66550  0.20340  0.37560  Biso   1.000  H
  H175     1.0000 0.83450  0.70340  0.12440  Biso   1.000  H
  H176     1.0000 0.33450  0.20340  0.12440  Biso   1.000  H
  C393     1.0000 0.88642  0.29926  0.64070  Biso   1.000  C
  C394     1.0000 0.38642  0.79926  0.64070  Biso   1.000  C
  C395     1.0000 0.11358  0.29926  0.85930  Biso   1.000  C
  C396     1.0000 0.61358  0.79926  0.85930  Biso   1.000  C
  C397     1.0000 0.11358  0.70074  0.35930  Biso   1.000  C
  C398     1.0000 0.61358  0.20074  0.35930  Biso   1.000  C
  C399     1.0000 0.88642  0.70074  0.14070  Biso   1.000  C
  C400     1.0000 0.38642  0.20074  0.14070  Biso   1.000  C
  H177     1.0000 0.89070  0.31180  0.66690  Biso   1.000  H
  H178     1.0000 0.39070  0.81180  0.66690  Biso   1.000  H
  H179     1.0000 0.10930  0.31180  0.83310  Biso   1.000  H
  H180     1.0000 0.60930  0.81180  0.83310  Biso   1.000  H
  H181     1.0000 0.10930  0.68820  0.33310  Biso   1.000  H
  H182     1.0000 0.60930  0.18820  0.33310  Biso   1.000  H
  H183     1.0000 0.89070  0.68820  0.16690  Biso   1.000  H
  H184     1.0000 0.39070  0.18820  0.16690  Biso   1.000  H
  C401     1.0000 0.99270  0.31150  0.72330  Biso   1.000  C
  C402     1.0000 0.49270  0.81150  0.72330  Biso   1.000  C
  C403     1.0000 0.00730  0.31150  0.77670  Biso   1.000  C
  C404     1.0000 0.50730  0.81150  0.77670  Biso   1.000  C
  C405     1.0000 0.00730  0.68850  0.27670  Biso   1.000  C
  C406     1.0000 0.50730  0.18850  0.27670  Biso   1.000  C
  C407     1.0000 0.99270  0.68850  0.22330  Biso   1.000  C
  C408     1.0000 0.49270  0.18850  0.22330  Biso   1.000  C
  C409     1.0000 0.01344  0.32525  0.70040  Biso   1.000  C
  C410     1.0000 0.51344  0.82525  0.70040  Biso   1.000  C
  C411     1.0000 0.98656  0.32525  0.79960  Biso   1.000  C
  C412     1.0000 0.48656  0.82525  0.79960  Biso   1.000  C
  C413     1.0000 0.98656  0.67475  0.29960  Biso   1.000  C
  C414     1.0000 0.48656  0.17475  0.29960  Biso   1.000  C
  C415     1.0000 0.01344  0.67475  0.20040  Biso   1.000  C
  C416     1.0000 0.51344  0.17475  0.20040  Biso   1.000  C
  C417     1.0000 0.00186  0.32617  0.65200  Biso   1.000  C
  C418     1.0000 0.50186  0.82617  0.65200  Biso   1.000  C
  C419     1.0000 0.99814  0.32617  0.84800  Biso   1.000  C
  C420     1.0000 0.49814  0.82617  0.84800  Biso   1.000  C
  C421     1.0000 0.99814  0.67383  0.34800  Biso   1.000  C
  C422     1.0000 0.49814  0.17383  0.34800  Biso   1.000  C
  C423     1.0000 0.00186  0.67383  0.15200  Biso   1.000  C
  C424     1.0000 0.50186  0.17383  0.15200  Biso   1.000  C
  C425     1.0000 0.96955  0.31330  0.62650  Biso   1.000  C
  C426     1.0000 0.46955  0.81330  0.62650  Biso   1.000  C
  C427     1.0000 0.03045  0.31330  0.87350  Biso   1.000  C
  C428     1.0000 0.53045  0.81330  0.87350  Biso   1.000  C
  C429     1.0000 0.03045  0.68670  0.37350  Biso   1.000  C
  C430     1.0000 0.53045  0.18670  0.37350  Biso   1.000  C
  C431     1.0000 0.96955  0.68670  0.12650  Biso   1.000  C
  C432     1.0000 0.46955  0.18670  0.12650  Biso   1.000  C
  H185     1.0000 0.96190  0.31390  0.59460  Biso   1.000  H
  H186     1.0000 0.46190  0.81390  0.59460  Biso   1.000  H
  H187     1.0000 0.03810  0.31390  0.90540  Biso   1.000  H
  H188     1.0000 0.53810  0.81390  0.90540  Biso   1.000  H
  H189     1.0000 0.03810  0.68610  0.40540  Biso   1.000  H
  H190     1.0000 0.53810  0.18610  0.40540  Biso   1.000  H
  H191     1.0000 0.96190  0.68610  0.09460  Biso   1.000  H
  H192     1.0000 0.46190  0.18610  0.09460  Biso   1.000  H
  C433     1.0000 0.94884  0.29952  0.64940  Biso   1.000  C
  C434     1.0000 0.44884  0.79952  0.64940  Biso   1.000  C
  C435     1.0000 0.05116  0.29952  0.85060  Biso   1.000  C
  C436     1.0000 0.55116  0.79952  0.85060  Biso   1.000  C
  C437     1.0000 0.05116  0.70048  0.35060  Biso   1.000  C
  C438     1.0000 0.55116  0.20048  0.35060  Biso   1.000  C
  C439     1.0000 0.94884  0.70048  0.14940  Biso   1.000  C
  C440     1.0000 0.44884  0.20048  0.14940  Biso   1.000  C
  C441     1.0000 0.96042  0.29859  0.69780  Biso   1.000  C
  C442     1.0000 0.46042  0.79859  0.69780  Biso   1.000  C
  C443     1.0000 0.03958  0.29859  0.80220  Biso   1.000  C
  C444     1.0000 0.53958  0.79859  0.80220  Biso   1.000  C
  C445     1.0000 0.03958  0.70141  0.30220  Biso   1.000  C
  C446     1.0000 0.53958  0.20141  0.30220  Biso   1.000  C
  C447     1.0000 0.96042  0.70141  0.19780  Biso   1.000  C
  C448     1.0000 0.46042  0.20141  0.19780  Biso   1.000  C
  C449     1.0000 0.02488  0.33480  0.62730  Biso   1.000  C
  C450     1.0000 0.52488  0.83480  0.62730  Biso   1.000  C
  C451     1.0000 0.97512  0.33480  0.87270  Biso   1.000  C
  C452     1.0000 0.47512  0.83480  0.87270  Biso   1.000  C
  C453     1.0000 0.97512  0.66520  0.37270  Biso   1.000  C
  C454     1.0000 0.47512  0.16520  0.37270  Biso   1.000  C
  C455     1.0000 0.02488  0.66520  0.12730  Biso   1.000  C
  C456     1.0000 0.52488  0.16520  0.12730  Biso   1.000  C
  C457     1.0000 0.01088  0.35261  0.58650  Biso   1.000  C
  C458     1.0000 0.51088  0.85261  0.58650  Biso   1.000  C
  C459     1.0000 0.98912  0.35261  0.91350  Biso   1.000  C
  C460     1.0000 0.48912  0.85261  0.91350  Biso   1.000  C
  C461     1.0000 0.98912  0.64739  0.41350  Biso   1.000  C
  C462     1.0000 0.48912  0.14739  0.41350  Biso   1.000  C
  C463     1.0000 0.01088  0.64739  0.08650  Biso   1.000  C
  C464     1.0000 0.51088  0.14739  0.08650  Biso   1.000  C
  H193     1.0000 0.98790  0.35870  0.57660  Biso   1.000  H
  H194     1.0000 0.48790  0.85870  0.57660  Biso   1.000  H
  H195     1.0000 0.01210  0.35870  0.92340  Biso   1.000  H
  H196     1.0000 0.51210  0.85870  0.92340  Biso   1.000  H
  H197     1.0000 0.01210  0.64130  0.42340  Biso   1.000  H
  H198     1.0000 0.51210  0.14130  0.42340  Biso   1.000  H
  H199     1.0000 0.98790  0.64130  0.07660  Biso   1.000  H
  H200     1.0000 0.48790  0.14130  0.07660  Biso   1.000  H
  C465     1.0000 0.03166  0.36124  0.56050  Biso   1.000  C
  C466     1.0000 0.53166  0.86124  0.56050  Biso   1.000  C
  C467     1.0000 0.96834  0.36124  0.93950  Biso   1.000  C
  C468     1.0000 0.46834  0.86124  0.93950  Biso   1.000  C
  C469     1.0000 0.96834  0.63876  0.43950  Biso   1.000  C
  C470     1.0000 0.46834  0.13876  0.43950  Biso   1.000  C
  C471     1.0000 0.03166  0.63876  0.06050  Biso   1.000  C
  C472     1.0000 0.53166  0.13876  0.06050  Biso   1.000  C
  H201     1.0000 0.02240  0.37300  0.53360  Biso   1.000  H
  H202     1.0000 0.52240  0.87300  0.53360  Biso   1.000  H
  H203     1.0000 0.97760  0.37300  0.96640  Biso   1.000  H
  H204     1.0000 0.47760  0.87300  0.96640  Biso   1.000  H
  H205     1.0000 0.97760  0.62700  0.46640  Biso   1.000  H
  H206     1.0000 0.47760  0.12700  0.46640  Biso   1.000  H
  H207     1.0000 0.02240  0.62700  0.03360  Biso   1.000  H
  H208     1.0000 0.52240  0.12700  0.03360  Biso   1.000  H
  C473     1.0000 0.06644  0.35207  0.57540  Biso   1.000  C
  C474     1.0000 0.56644  0.85207  0.57540  Biso   1.000  C
  C475     1.0000 0.93356  0.35207  0.92460  Biso   1.000  C
  C476     1.0000 0.43356  0.85207  0.92460  Biso   1.000  C
  C477     1.0000 0.93356  0.64793  0.42460  Biso   1.000  C
  C478     1.0000 0.43356  0.14793  0.42460  Biso   1.000  C
  C479     1.0000 0.06644  0.64793  0.07540  Biso   1.000  C
  C480     1.0000 0.56644  0.14793  0.07540  Biso   1.000  C
  C481     1.0000 0.08044  0.33427  0.61620  Biso   1.000  C
  C482     1.0000 0.58044  0.83427  0.61620  Biso   1.000  C
  C483     1.0000 0.91956  0.33427  0.88380  Biso   1.000  C
  C484     1.0000 0.41956  0.83427  0.88380  Biso   1.000  C
  C485     1.0000 0.91956  0.66573  0.38380  Biso   1.000  C
  C486     1.0000 0.41956  0.16573  0.38380  Biso   1.000  C
  C487     1.0000 0.08044  0.66573  0.11620  Biso   1.000  C
  C488     1.0000 0.58044  0.16573  0.11620  Biso   1.000  C
  H209     1.0000 0.10340  0.32820  0.62610  Biso   1.000  H
  H210     1.0000 0.60340  0.82820  0.62610  Biso   1.000  H
  H211     1.0000 0.89660  0.32820  0.87390  Biso   1.000  H
  H212     1.0000 0.39660  0.82820  0.87390  Biso   1.000  H
  H213     1.0000 0.89660  0.67180  0.37390  Biso   1.000  H
  H214     1.0000 0.39660  0.17180  0.37390  Biso   1.000  H
  H215     1.0000 0.10340  0.67180  0.12610  Biso   1.000  H
  H216     1.0000 0.60340  0.17180  0.12610  Biso   1.000  H
  C489     1.0000 0.05965  0.32563  0.64220  Biso   1.000  C
  C490     1.0000 0.55965  0.82563  0.64220  Biso   1.000  C
  C491     1.0000 0.94035  0.32563  0.85780  Biso   1.000  C
  C492     1.0000 0.44035  0.82563  0.85780  Biso   1.000  C
  C493     1.0000 0.94035  0.67437  0.35780  Biso   1.000  C
  C494     1.0000 0.44035  0.17437  0.35780  Biso   1.000  C
  C495     1.0000 0.05965  0.67437  0.14220  Biso   1.000  C
  C496     1.0000 0.55965  0.17437  0.14220  Biso   1.000  C
  H217     1.0000 0.06890  0.31390  0.66910  Biso   1.000  H
  H218     1.0000 0.56890  0.81390  0.66910  Biso   1.000  H
  H219     1.0000 0.93110  0.31390  0.83090  Biso   1.000  H
  H220     1.0000 0.43110  0.81390  0.83090  Biso   1.000  H
  H221     1.0000 0.93110  0.68610  0.33090  Biso   1.000  H
  H222     1.0000 0.43110  0.18610  0.33090  Biso   1.000  H
  H223     1.0000 0.06890  0.68610  0.16910  Biso   1.000  H
  H224     1.0000 0.56890  0.18610  0.16910  Biso   1.000  H
  C497     1.0000 0.19857  0.49348  0.12700  Biso   1.000  C
  C498     1.0000 0.69857  0.99348  0.12700  Biso   1.000  C
  C499     1.0000 0.80143  0.49348  0.37300  Biso   1.000  C
  C500     1.0000 0.30143  0.99348  0.37300  Biso   1.000  C
  C501     1.0000 0.80143  0.50652  0.87300  Biso   1.000  C
  C502     1.0000 0.30143  0.00652  0.87300  Biso   1.000  C
  C503     1.0000 0.19857  0.50652  0.62700  Biso   1.000  C
  C504     1.0000 0.69857  0.00652  0.62700  Biso   1.000  C
  C505     1.0000 0.21193  0.52420  0.14160  Biso   1.000  C
  C506     1.0000 0.71193  0.02420  0.14160  Biso   1.000  C
  C507     1.0000 0.78807  0.52420  0.35840  Biso   1.000  C
  C508     1.0000 0.28807  0.02420  0.35840  Biso   1.000  C
  C509     1.0000 0.78807  0.47580  0.85840  Biso   1.000  C
  C510     1.0000 0.28807  0.97580  0.85840  Biso   1.000  C
  C511     1.0000 0.21193  0.47580  0.64160  Biso   1.000  C
  C512     1.0000 0.71193  0.97580  0.64160  Biso   1.000  C
  H225     1.0000 0.23110  0.52650  0.16790  Biso   1.000  H
  H226     1.0000 0.73110  0.02650  0.16790  Biso   1.000  H
  H227     1.0000 0.76890  0.52650  0.33210  Biso   1.000  H
  H228     1.0000 0.26890  0.02650  0.33210  Biso   1.000  H
  H229     1.0000 0.76890  0.47350  0.83210  Biso   1.000  H
  H230     1.0000 0.26890  0.97350  0.83210  Biso   1.000  H
  H231     1.0000 0.23110  0.47350  0.66790  Biso   1.000  H
  H232     1.0000 0.73110  0.97350  0.66790  Biso   1.000  H
  C513     1.0000 0.19618  0.55144  0.11630  Biso   1.000  C
  C514     1.0000 0.69618  0.05144  0.11630  Biso   1.000  C
  C515     1.0000 0.80382  0.55144  0.38370  Biso   1.000  C
  C516     1.0000 0.30382  0.05144  0.38370  Biso   1.000  C
  C517     1.0000 0.80382  0.44856  0.88370  Biso   1.000  C
  C518     1.0000 0.30382  0.94856  0.88370  Biso   1.000  C
  C519     1.0000 0.19618  0.44856  0.61630  Biso   1.000  C
  C520     1.0000 0.69618  0.94856  0.61630  Biso   1.000  C
  H233     1.0000 0.20500  0.57170  0.12590  Biso   1.000  H
  H234     1.0000 0.70500  0.07170  0.12590  Biso   1.000  H
  H235     1.0000 0.79500  0.57170  0.37410  Biso   1.000  H
  H236     1.0000 0.29500  0.07170  0.37410  Biso   1.000  H
  H237     1.0000 0.79500  0.42830  0.87410  Biso   1.000  H
  H238     1.0000 0.29500  0.92830  0.87410  Biso   1.000  H
  H239     1.0000 0.20500  0.42830  0.62590  Biso   1.000  H
  H240     1.0000 0.70500  0.92830  0.62590  Biso   1.000  H
  C521     1.0000 0.16706  0.54796  0.07640  Biso   1.000  C
  C522     1.0000 0.66706  0.04796  0.07640  Biso   1.000  C
  C523     1.0000 0.83294  0.54796  0.42360  Biso   1.000  C
  C524     1.0000 0.33294  0.04796  0.42360  Biso   1.000  C
  C525     1.0000 0.83294  0.45204  0.92360  Biso   1.000  C
  C526     1.0000 0.33294  0.95204  0.92360  Biso   1.000  C
  C527     1.0000 0.16706  0.45204  0.57640  Biso   1.000  C
  C528     1.0000 0.66706  0.95204  0.57640  Biso   1.000  C
  C529     1.0000 0.15370  0.51724  0.06190  Biso   1.000  C
  C530     1.0000 0.65370  0.01724  0.06190  Biso   1.000  C
  C531     1.0000 0.84630  0.51724  0.43810  Biso   1.000  C
  C532     1.0000 0.34630  0.01724  0.43810  Biso   1.000  C
  C533     1.0000 0.84630  0.48276  0.93810  Biso   1.000  C
  C534     1.0000 0.34630  0.98276  0.93810  Biso   1.000  C
  C535     1.0000 0.15370  0.48276  0.56190  Biso   1.000  C
  C536     1.0000 0.65370  0.98276  0.56190  Biso   1.000  C
  H241     1.0000 0.13450  0.51490  0.03560  Biso   1.000  H
  H242     1.0000 0.63450  0.01490  0.03560  Biso   1.000  H
  H243     1.0000 0.86550  0.51490  0.46440  Biso   1.000  H
  H244     1.0000 0.36550  0.01490  0.46440  Biso   1.000  H
  H245     1.0000 0.86550  0.48510  0.96440  Biso   1.000  H
  H246     1.0000 0.36550  0.98510  0.96440  Biso   1.000  H
  H247     1.0000 0.13450  0.48510  0.53560  Biso   1.000  H
  H248     1.0000 0.63450  0.98510  0.53560  Biso   1.000  H
  C537     1.0000 0.16945  0.49000  0.08720  Biso   1.000  C
  C538     1.0000 0.66945  0.99000  0.08720  Biso   1.000  C
  C539     1.0000 0.83055  0.49000  0.41280  Biso   1.000  C
  C540     1.0000 0.33055  0.99000  0.41280  Biso   1.000  C
  C541     1.0000 0.83055  0.51000  0.91280  Biso   1.000  C
  C542     1.0000 0.33055  0.01000  0.91280  Biso   1.000  C
  C543     1.0000 0.16945  0.51000  0.58720  Biso   1.000  C
  C544     1.0000 0.66945  0.01000  0.58720  Biso   1.000  C
  H249     1.0000 0.16060  0.46970  0.07760  Biso   1.000  H
  H250     1.0000 0.66060  0.96970  0.07760  Biso   1.000  H
  H251     1.0000 0.83940  0.46970  0.42240  Biso   1.000  H
  H252     1.0000 0.33940  0.96970  0.42240  Biso   1.000  H
  H253     1.0000 0.83940  0.53030  0.92240  Biso   1.000  H
  H254     1.0000 0.33940  0.03030  0.92240  Biso   1.000  H
  H255     1.0000 0.16060  0.53030  0.57760  Biso   1.000  H
  H256     1.0000 0.66060  0.03030  0.57760  Biso   1.000  H
  C545     1.0000 0.00900  0.13095  0.37350  Biso   1.000  C
  C546     1.0000 0.50900  0.63095  0.37350  Biso   1.000  C
  C547     1.0000 0.99100  0.13095  0.12650  Biso   1.000  C
  C548     1.0000 0.49100  0.63095  0.12650  Biso   1.000  C
  C549     1.0000 0.99100  0.86905  0.62650  Biso   1.000  C
  C550     1.0000 0.49100  0.36905  0.62650  Biso   1.000  C
  C551     1.0000 0.00900  0.86905  0.87350  Biso   1.000  C
  C552     1.0000 0.50900  0.36905  0.87350  Biso   1.000  C
  C553     1.0000 0.00032  0.13476  0.41350  Biso   1.000  C
  C554     1.0000 0.50032  0.63476  0.41350  Biso   1.000  C
  C555     1.0000 0.99968  0.13476  0.08650  Biso   1.000  C
  C556     1.0000 0.49968  0.63476  0.08650  Biso   1.000  C
  C557     1.0000 0.99968  0.86524  0.58650  Biso   1.000  C
  C558     1.0000 0.49968  0.36524  0.58650  Biso   1.000  C
  C559     1.0000 0.00032  0.86524  0.91350  Biso   1.000  C
  C560     1.0000 0.50032  0.36524  0.91350  Biso   1.000  C
  H257     1.0000 0.99640  0.15510  0.42280  Biso   1.000  H
  H258     1.0000 0.49640  0.65510  0.42280  Biso   1.000  H
  H259     1.0000 0.00360  0.15510  0.07720  Biso   1.000  H
  H260     1.0000 0.50360  0.65510  0.07720  Biso   1.000  H
  H261     1.0000 0.00360  0.84490  0.57720  Biso   1.000  H
  H262     1.0000 0.50360  0.34490  0.57720  Biso   1.000  H
  H263     1.0000 0.99640  0.84490  0.92280  Biso   1.000  H
  H264     1.0000 0.49640  0.34490  0.92280  Biso   1.000  H
  C561     1.0000 0.99759  0.10772  0.43930  Biso   1.000  C
  C562     1.0000 0.49759  0.60772  0.43930  Biso   1.000  C
  C563     1.0000 0.00241  0.10772  0.06070  Biso   1.000  C
  C564     1.0000 0.50241  0.60772  0.06070  Biso   1.000  C
  C565     1.0000 0.00241  0.89228  0.56070  Biso   1.000  C
  C566     1.0000 0.50241  0.39228  0.56070  Biso   1.000  C
  C567     1.0000 0.99759  0.89228  0.93930  Biso   1.000  C
  C568     1.0000 0.49759  0.39228  0.93930  Biso   1.000  C
  H265     1.0000 0.99190  0.11020  0.46560  Biso   1.000  H
  H266     1.0000 0.49190  0.61020  0.46560  Biso   1.000  H
  H267     1.0000 0.00810  0.11020  0.03440  Biso   1.000  H
  H268     1.0000 0.50810  0.61020  0.03440  Biso   1.000  H
  H269     1.0000 0.00810  0.88980  0.53440  Biso   1.000  H
  H270     1.0000 0.50810  0.38980  0.53440  Biso   1.000  H
  H271     1.0000 0.99190  0.88980  0.96560  Biso   1.000  H
  H272     1.0000 0.49190  0.38980  0.96560  Biso   1.000  H
  C569     1.0000 0.00354  0.07687  0.42510  Biso   1.000  C
  C570     1.0000 0.50354  0.57687  0.42510  Biso   1.000  C
  C571     1.0000 0.99646  0.07687  0.07490  Biso   1.000  C
  C572     1.0000 0.49646  0.57687  0.07490  Biso   1.000  C
  C573     1.0000 0.99646  0.92313  0.57490  Biso   1.000  C
  C574     1.0000 0.49646  0.42313  0.57490  Biso   1.000  C
  C575     1.0000 0.00354  0.92313  0.92510  Biso   1.000  C
  C576     1.0000 0.50354  0.42313  0.92510  Biso   1.000  C
  C577     1.0000 0.01223  0.07307  0.38520  Biso   1.000  C
  C578     1.0000 0.51223  0.57307  0.38520  Biso   1.000  C
  C579     1.0000 0.98777  0.07307  0.11480  Biso   1.000  C
  C580     1.0000 0.48777  0.57307  0.11480  Biso   1.000  C
  C581     1.0000 0.98777  0.92693  0.61480  Biso   1.000  C
  C582     1.0000 0.48777  0.42693  0.61480  Biso   1.000  C
  C583     1.0000 0.01223  0.92693  0.88520  Biso   1.000  C
  C584     1.0000 0.51223  0.42693  0.88520  Biso   1.000  C
  H273     1.0000 0.01620  0.05270  0.37580  Biso   1.000  H
  H274     1.0000 0.51620  0.55270  0.37580  Biso   1.000  H
  H275     1.0000 0.98380  0.05270  0.12420  Biso   1.000  H
  H276     1.0000 0.48380  0.55270  0.12420  Biso   1.000  H
  H277     1.0000 0.98380  0.94730  0.62420  Biso   1.000  H
  H278     1.0000 0.48380  0.44730  0.62420  Biso   1.000  H
  H279     1.0000 0.01620  0.94730  0.87580  Biso   1.000  H
  H280     1.0000 0.51620  0.44730  0.87580  Biso   1.000  H
  C585     1.0000 0.01496  0.10010  0.35940  Biso   1.000  C
  C586     1.0000 0.51496  0.60010  0.35940  Biso   1.000  C
  C587     1.0000 0.98504  0.10010  0.14060  Biso   1.000  C
  C588     1.0000 0.48504  0.60010  0.14060  Biso   1.000  C
  C589     1.0000 0.98504  0.89990  0.64060  Biso   1.000  C
  C590     1.0000 0.48504  0.39990  0.64060  Biso   1.000  C
  C591     1.0000 0.01496  0.89990  0.85940  Biso   1.000  C
  C592     1.0000 0.51496  0.39990  0.85940  Biso   1.000  C
  H281     1.0000 0.02070  0.09760  0.33300  Biso   1.000  H
  H282     1.0000 0.52070  0.59760  0.33300  Biso   1.000  H
  H283     1.0000 0.97930  0.09760  0.16700  Biso   1.000  H
  H284     1.0000 0.47930  0.59760  0.16700  Biso   1.000  H
  H285     1.0000 0.97930  0.90240  0.66700  Biso   1.000  H
  H286     1.0000 0.47930  0.40240  0.66700  Biso   1.000  H
  H287     1.0000 0.02070  0.90240  0.83300  Biso   1.000  H
  H288     1.0000 0.52070  0.40240  0.83300  Biso   1.000  H
  C593     1.0000 0.44120  0.48730  0.45400  Biso   1.000  C
  C594     1.0000 0.94120  0.98730  0.45400  Biso   1.000  C
  C595     1.0000 0.55880  0.48730  0.04600  Biso   1.000  C
  C596     1.0000 0.05880  0.98730  0.04600  Biso   1.000  C
  C597     1.0000 0.55880  0.51270  0.54600  Biso   1.000  C
  C598     1.0000 0.05880  0.01270  0.54600  Biso   1.000  C
  C599     1.0000 0.44120  0.51270  0.95400  Biso   1.000  C
  C600     1.0000 0.94120  0.01270  0.95400  Biso   1.000  C
  C601     1.0000 0.16320  0.38760  0.45390  Biso   1.000  C
  C602     1.0000 0.66320  0.88760  0.45390  Biso   1.000  C
  C603     1.0000 0.83680  0.38760  0.04610  Biso   1.000  C
  C604     1.0000 0.33680  0.88760  0.04610  Biso   1.000  C
  C605     1.0000 0.83680  0.61240  0.54610  Biso   1.000  C
  C606     1.0000 0.33680  0.11240  0.54610  Biso   1.000  C
  C607     1.0000 0.16320  0.61240  0.95390  Biso   1.000  C
  C608     1.0000 0.66320  0.11240  0.95390  Biso   1.000  C
  O33      1.0000 0.23948  0.27071  0.06010  Biso   1.000  O
  O34      1.0000 0.73948  0.77071  0.06010  Biso   1.000  O
  O35      1.0000 0.76052  0.27071  0.43990  Biso   1.000  O
  O36      1.0000 0.26052  0.77071  0.43990  Biso   1.000  O
  O37      1.0000 0.76052  0.72929  0.93990  Biso   1.000  O
  O38      1.0000 0.26052  0.22929  0.93990  Biso   1.000  O
  O39      1.0000 0.23948  0.72929  0.56010  Biso   1.000  O
  O40      1.0000 0.73948  0.22929  0.56010  Biso   1.000  O
  C609     1.0000 0.10090  0.32480  0.45190  Biso   1.000  C
  C610     1.0000 0.60090  0.82480  0.45190  Biso   1.000  C
  C611     1.0000 0.89910  0.32480  0.04810  Biso   1.000  C
  C612     1.0000 0.39910  0.82480  0.04810  Biso   1.000  C
  C613     1.0000 0.89910  0.67520  0.54810  Biso   1.000  C
  C614     1.0000 0.39910  0.17520  0.54810  Biso   1.000  C
  C615     1.0000 0.10090  0.67520  0.95190  Biso   1.000  C
  C616     1.0000 0.60090  0.17520  0.95190  Biso   1.000  C
  C617     1.0000 0.09170  0.35930  0.54990  Biso   1.000  C
  C618     1.0000 0.59170  0.85930  0.54990  Biso   1.000  C
  C619     1.0000 0.90830  0.35930  0.95010  Biso   1.000  C
  C620     1.0000 0.40830  0.85930  0.95010  Biso   1.000  C
  C621     1.0000 0.90830  0.64070  0.45010  Biso   1.000  C
  C622     1.0000 0.40830  0.14070  0.45010  Biso   1.000  C
  C623     1.0000 0.09170  0.64070  0.04990  Biso   1.000  C
  C624     1.0000 0.59170  0.14070  0.04990  Biso   1.000  C
  C625     1.0000 0.15090  0.57730  0.04770  Biso   1.000  C
  C626     1.0000 0.65090  0.07730  0.04770  Biso   1.000  C
  C627     1.0000 0.84910  0.57730  0.45230  Biso   1.000  C
  C628     1.0000 0.34910  0.07730  0.45230  Biso   1.000  C
  C629     1.0000 0.84910  0.42270  0.95230  Biso   1.000  C
  C630     1.0000 0.34910  0.92270  0.95230  Biso   1.000  C
  C631     1.0000 0.15090  0.42270  0.54770  Biso   1.000  C
  C632     1.0000 0.65090  0.92270  0.54770  Biso   1.000  C
  O41      1.0000 0.08505  0.35242  0.44000  Biso   1.000  O
  O42      1.0000 0.58505  0.85242  0.44000  Biso   1.000  O
  O43      1.0000 0.91495  0.35242  0.06000  Biso   1.000  O
  O44      1.0000 0.41495  0.85242  0.06000  Biso   1.000  O
  O45      1.0000 0.91495  0.64758  0.56000  Biso   1.000  O
  O46      1.0000 0.41495  0.14758  0.56000  Biso   1.000  O
  O47      1.0000 0.08505  0.64758  0.94000  Biso   1.000  O
  O48      1.0000 0.58505  0.14758  0.94000  Biso   1.000  O
  O49      1.0000 0.12674  0.32276  0.48540  Biso   1.000  O
  O50      1.0000 0.62674  0.82276  0.48540  Biso   1.000  O
  O51      1.0000 0.87326  0.32276  0.01460  Biso   1.000  O
  O52      1.0000 0.37326  0.82276  0.01460  Biso   1.000  O
  O53      1.0000 0.87326  0.67724  0.51460  Biso   1.000  O
  O54      1.0000 0.37326  0.17724  0.51460  Biso   1.000  O
  O55      1.0000 0.12674  0.67724  0.98540  Biso   1.000  O
  O56      1.0000 0.62674  0.17724  0.98540  Biso   1.000  O
  O57      1.0000 0.17400  0.36907  0.48400  Biso   1.000  O
  O58      1.0000 0.67400  0.86907  0.48400  Biso   1.000  O
  O59      1.0000 0.82600  0.36907  0.01600  Biso   1.000  O
  O60      1.0000 0.32600  0.86907  0.01600  Biso   1.000  O
  O61      1.0000 0.82600  0.63093  0.51600  Biso   1.000  O
  O62      1.0000 0.32600  0.13093  0.51600  Biso   1.000  O
  O63      1.0000 0.17400  0.63093  0.98400  Biso   1.000  O
  O64      1.0000 0.67400  0.13093  0.98400  Biso   1.000  O
  O65      1.0000 0.13224  0.40037  0.43860  Biso   1.000  O
  O66      1.0000 0.63224  0.90037  0.43860  Biso   1.000  O
  O67      1.0000 0.86776  0.40037  0.06140  Biso   1.000  O
  O68      1.0000 0.36776  0.90037  0.06140  Biso   1.000  O
  O69      1.0000 0.86776  0.59963  0.56140  Biso   1.000  O
  O70      1.0000 0.36776  0.09963  0.56140  Biso   1.000  O
  O71      1.0000 0.13224  0.59963  0.93860  Biso   1.000  O
  O72      1.0000 0.63224  0.09963  0.93860  Biso   1.000  O
  O73      1.0000 0.12290  0.57337  0.01410  Biso   1.000  O
  O74      1.0000 0.62290  0.07337  0.01410  Biso   1.000  O
  O75      1.0000 0.87710  0.57337  0.48590  Biso   1.000  O
  O76      1.0000 0.37710  0.07337  0.48590  Biso   1.000  O
  O77      1.0000 0.87710  0.42663  0.98590  Biso   1.000  O
  O78      1.0000 0.37710  0.92663  0.98590  Biso   1.000  O
  O79      1.0000 0.12290  0.42663  0.51410  Biso   1.000  O
  O80      1.0000 0.62290  0.92663  0.51410  Biso   1.000  O
  O81      1.0000 0.16551  0.60431  0.05930  Biso   1.000  O
  O82      1.0000 0.66551  0.10431  0.05930  Biso   1.000  O
  O83      1.0000 0.83449  0.60431  0.44070  Biso   1.000  O
  O84      1.0000 0.33449  0.10431  0.44070  Biso   1.000  O
  O85      1.0000 0.83449  0.39569  0.94070  Biso   1.000  O
  O86      1.0000 0.33449  0.89569  0.94070  Biso   1.000  O
  O87      1.0000 0.16551  0.39569  0.55930  Biso   1.000  O
  O88      1.0000 0.66551  0.89569  0.55930  Biso   1.000  O
  O89      1.0000 0.11932  0.34946  0.56060  Biso   1.000  O
  O90      1.0000 0.61932  0.84946  0.56060  Biso   1.000  O
  O91      1.0000 0.88068  0.34946  0.93940  Biso   1.000  O
  O92      1.0000 0.38068  0.84946  0.93940  Biso   1.000  O
  O93      1.0000 0.88068  0.65054  0.43940  Biso   1.000  O
  O94      1.0000 0.38068  0.15054  0.43940  Biso   1.000  O
  O95      1.0000 0.11932  0.65054  0.06060  Biso   1.000  O
  O96      1.0000 0.61932  0.15054  0.06060  Biso   1.000  O
  O97      1.0000 0.07629  0.37953  0.51660  Biso   1.000  O
  O98      1.0000 0.57629  0.87953  0.51660  Biso   1.000  O
  O99      1.0000 0.92371  0.37953  0.98340  Biso   1.000  O
  O100     1.0000 0.42371  0.87953  0.98340  Biso   1.000  O
  O101     1.0000 0.92371  0.62047  0.48340  Biso   1.000  O
  O102     1.0000 0.42371  0.12047  0.48340  Biso   1.000  O
  O103     1.0000 0.07629  0.62047  0.01660  Biso   1.000  O
  O104     1.0000 0.57629  0.12047  0.01660  Biso   1.000  O
  O105     1.0000 0.25957  0.30236  0.01480  Biso   1.000  O
  O106     1.0000 0.75957  0.80236  0.01480  Biso   1.000  O
  O107     1.0000 0.74043  0.30236  0.48520  Biso   1.000  O
  O108     1.0000 0.24043  0.80236  0.48520  Biso   1.000  O
  O109     1.0000 0.74043  0.69764  0.98520  Biso   1.000  O
  O110     1.0000 0.24043  0.19764  0.98520  Biso   1.000  O
  O111     1.0000 0.25957  0.69764  0.51480  Biso   1.000  O
  O112     1.0000 0.75957  0.19764  0.51480  Biso   1.000  O
  O113     1.0000 0.44319  0.50579  0.48460  Biso   1.000  O
  O114     1.0000 0.94319  0.00579  0.48460  Biso   1.000  O
  O115     1.0000 0.55681  0.50579  0.01540  Biso   1.000  O
  O116     1.0000 0.05681  0.00579  0.01540  Biso   1.000  O
  O117     1.0000 0.55681  0.49421  0.51540  Biso   1.000  O
  O118     1.0000 0.05681  0.99421  0.51540  Biso   1.000  O
  O119     1.0000 0.44319  0.49421  0.98460  Biso   1.000  O
  O120     1.0000 0.94319  0.99421  0.98460  Biso   1.000  O
  O121     1.0000 0.19147  0.32733  0.57020  Biso   1.000  O
  O122     1.0000 0.69147  0.82733  0.57020  Biso   1.000  O
  O123     1.0000 0.80853  0.32733  0.92980  Biso   1.000  O
  O124     1.0000 0.30853  0.82733  0.92980  Biso   1.000  O
  O125     1.0000 0.80853  0.67267  0.42980  Biso   1.000  O
  O126     1.0000 0.30853  0.17267  0.42980  Biso   1.000  O
  O127     1.0000 0.19147  0.67267  0.07020  Biso   1.000  O
  O128     1.0000 0.69147  0.17267  0.07020  Biso   1.000  O
  O129     1.0000 0.05983  0.42243  0.43020  Biso   1.000  O
  O130     1.0000 0.55983  0.92243  0.43020  Biso   1.000  O
  O131     1.0000 0.94017  0.42243  0.06980  Biso   1.000  O
  O132     1.0000 0.44017  0.92243  0.06980  Biso   1.000  O
  O133     1.0000 0.94017  0.57757  0.56980  Biso   1.000  O
  O134     1.0000 0.44017  0.07757  0.56980  Biso   1.000  O
  O135     1.0000 0.05983  0.57757  0.93020  Biso   1.000  O
  O136     1.0000 0.55983  0.07757  0.93020  Biso   1.000  O
  O137     1.0000 0.46328  0.47439  0.43850  Biso   1.000  O
  O138     1.0000 0.96328  0.97439  0.43850  Biso   1.000  O
  O139     1.0000 0.53672  0.47439  0.06150  Biso   1.000  O
  O140     1.0000 0.03672  0.97439  0.06150  Biso   1.000  O
  O141     1.0000 0.53672  0.52561  0.56150  Biso   1.000  O
  O142     1.0000 0.03672  0.02561  0.56150  Biso   1.000  O
  O143     1.0000 0.46328  0.52561  0.93850  Biso   1.000  O
  O144     1.0000 0.96328  0.02561  0.93850  Biso   1.000  O
  C633     1.0000 0.24870  0.29750  0.04840  Biso   1.000  C
  C634     1.0000 0.74870  0.79750  0.04840  Biso   1.000  C
  C635     1.0000 0.75130  0.29750  0.45160  Biso   1.000  C
  C636     1.0000 0.25130  0.79750  0.45160  Biso   1.000  C
  C637     1.0000 0.75130  0.70250  0.95160  Biso   1.000  C
  C638     1.0000 0.25130  0.20250  0.95160  Biso   1.000  C
  C639     1.0000 0.24870  0.70250  0.54840  Biso   1.000  C
  C640     1.0000 0.74870  0.20250  0.54840  Biso   1.000  C
  O145     1.0000 0.21782  0.79990  0.56890  Biso   1.000  O
  O146     1.0000 0.71782  0.29990  0.56890  Biso   1.000  O
  O147     1.0000 0.78218  0.79990  0.93110  Biso   1.000  O
  O148     1.0000 0.28218  0.29990  0.93110  Biso   1.000  O
  O149     1.0000 0.78218  0.20010  0.43110  Biso   1.000  O
  O150     1.0000 0.28218  0.70010  0.43110  Biso   1.000  O
  O151     1.0000 0.21782  0.20010  0.06890  Biso   1.000  O
  O152     1.0000 0.71782  0.70010  0.06890  Biso   1.000  O
  O153     1.0000 0.96880  0.04868  0.57070  Biso   1.000  O
  O154     1.0000 0.46880  0.54868  0.57070  Biso   1.000  O
  O155     1.0000 0.03120  0.04868  0.92930  Biso   1.000  O
  O156     1.0000 0.53120  0.54868  0.92930  Biso   1.000  O
  O157     1.0000 0.03120  0.95132  0.42930  Biso   1.000  O
  O158     1.0000 0.53120  0.45132  0.42930  Biso   1.000  O
  O159     1.0000 0.96880  0.95132  0.07070  Biso   1.000  O
  O160     1.0000 0.46880  0.45132  0.07070  Biso   1.000  O
  O161     1.0000 0.98270  0.13590  0.27810  Biso   1.000  O
  O162     1.0000 0.48270  0.63590  0.27810  Biso   1.000  O
  O163     1.0000 0.01730  0.13590  0.22190  Biso   1.000  O
  O164     1.0000 0.51730  0.63590  0.22190  Biso   1.000  O
  O165     1.0000 0.01730  0.86410  0.72190  Biso   1.000  O
  O166     1.0000 0.51730  0.36410  0.72190  Biso   1.000  O
  O167     1.0000 0.98270  0.86410  0.77810  Biso   1.000  O
  O168     1.0000 0.48270  0.36410  0.77810  Biso   1.000  O
  C641     1.0000 0.94550  0.13570  0.27280  Biso   1.000  C
  C642     1.0000 0.44550  0.63570  0.27280  Biso   1.000  C
  C643     1.0000 0.05450  0.13570  0.22720  Biso   1.000  C
  C644     1.0000 0.55450  0.63570  0.22720  Biso   1.000  C
  C645     1.0000 0.05450  0.86430  0.72720  Biso   1.000  C
  C646     1.0000 0.55450  0.36430  0.72720  Biso   1.000  C
  C647     1.0000 0.94550  0.86430  0.77280  Biso   1.000  C
  C648     1.0000 0.44550  0.36430  0.77280  Biso   1.000  C
  C649     1.0000 0.93330  0.10000  0.25760  Biso   1.000  C
  C650     1.0000 0.43330  0.60000  0.25760  Biso   1.000  C
  C651     1.0000 0.06670  0.10000  0.24240  Biso   1.000  C
  C652     1.0000 0.56670  0.60000  0.24240  Biso   1.000  C
  C653     1.0000 0.06670  0.90000  0.74240  Biso   1.000  C
  C654     1.0000 0.56670  0.40000  0.74240  Biso   1.000  C
  C655     1.0000 0.93330  0.90000  0.75760  Biso   1.000  C
  C656     1.0000 0.43330  0.40000  0.75760  Biso   1.000  C
  O169     1.0000 0.94120  0.28720  0.72360  Biso   1.000  O
  O170     1.0000 0.44120  0.78720  0.72360  Biso   1.000  O
  O171     1.0000 0.05880  0.28720  0.77640  Biso   1.000  O
  O172     1.0000 0.55880  0.78720  0.77640  Biso   1.000  O
  O173     1.0000 0.05880  0.71280  0.27640  Biso   1.000  O
  O174     1.0000 0.55880  0.21280  0.27640  Biso   1.000  O
  O175     1.0000 0.94120  0.71280  0.22360  Biso   1.000  O
  O176     1.0000 0.44120  0.21280  0.22360  Biso   1.000  O
  C657     1.0000 0.94340  0.25270  0.72620  Biso   1.000  C
  C658     1.0000 0.44340  0.75270  0.72620  Biso   1.000  C
  C659     1.0000 0.05660  0.25270  0.77380  Biso   1.000  C
  C660     1.0000 0.55660  0.75270  0.77380  Biso   1.000  C
  C661     1.0000 0.05660  0.74730  0.27380  Biso   1.000  C
  C662     1.0000 0.55660  0.24730  0.27380  Biso   1.000  C
  C663     1.0000 0.94340  0.74730  0.22620  Biso   1.000  C
  C664     1.0000 0.44340  0.24730  0.22620  Biso   1.000  C
  C665     1.0000 0.92830  0.23860  0.76190  Biso   1.000  C
  C666     1.0000 0.42830  0.73860  0.76190  Biso   1.000  C
  C667     1.0000 0.07170  0.23860  0.73810  Biso   1.000  C
  C668     1.0000 0.57170  0.73860  0.73810  Biso   1.000  C
  C669     1.0000 0.07170  0.76140  0.23810  Biso   1.000  C
  C670     1.0000 0.57170  0.26140  0.23810  Biso   1.000  C
  C671     1.0000 0.92830  0.76140  0.26190  Biso   1.000  C
  C672     1.0000 0.42830  0.26140  0.26190  Biso   1.000  C
  O177     1.0000 0.20370  0.41540  0.27400  Biso   1.000  O
  O178     1.0000 0.70370  0.91540  0.27400  Biso   1.000  O
  O179     1.0000 0.79630  0.41540  0.22600  Biso   1.000  O
  O180     1.0000 0.29630  0.91540  0.22600  Biso   1.000  O
  O181     1.0000 0.79630  0.58460  0.72600  Biso   1.000  O
  O182     1.0000 0.29630  0.08460  0.72600  Biso   1.000  O
  O183     1.0000 0.20370  0.58460  0.77400  Biso   1.000  O
  O184     1.0000 0.70370  0.08460  0.77400  Biso   1.000  O
  C673     1.0000 0.20630  0.38170  0.26540  Biso   1.000  C
  C674     1.0000 0.70630  0.88170  0.26540  Biso   1.000  C
  C675     1.0000 0.79370  0.38170  0.23460  Biso   1.000  C
  C676     1.0000 0.29370  0.88170  0.23460  Biso   1.000  C
  C677     1.0000 0.79370  0.61830  0.73460  Biso   1.000  C
  C678     1.0000 0.29370  0.11830  0.73460  Biso   1.000  C
  C679     1.0000 0.20630  0.61830  0.76540  Biso   1.000  C
  C680     1.0000 0.70630  0.11830  0.76540  Biso   1.000  C
  C681     1.0000 0.17230  0.36870  0.22850  Biso   1.000  C
  C682     1.0000 0.67230  0.86870  0.22850  Biso   1.000  C
  C683     1.0000 0.82770  0.36870  0.27150  Biso   1.000  C
  C684     1.0000 0.32770  0.86870  0.27150  Biso   1.000  C
  C685     1.0000 0.82770  0.63130  0.77150  Biso   1.000  C
  C686     1.0000 0.32770  0.13130  0.77150  Biso   1.000  C
  C687     1.0000 0.17230  0.63130  0.72850  Biso   1.000  C
  C688     1.0000 0.67230  0.13130  0.72850  Biso   1.000  C
  O185     1.0000 0.26640  0.38360  0.22550  Biso   1.000  O
  O186     1.0000 0.76640  0.88360  0.22550  Biso   1.000  O
  O187     1.0000 0.73360  0.38360  0.27450  Biso   1.000  O
  O188     1.0000 0.23360  0.88360  0.27450  Biso   1.000  O
  O189     1.0000 0.73360  0.61640  0.77450  Biso   1.000  O
  O190     1.0000 0.23360  0.11640  0.77450  Biso   1.000  O
  O191     1.0000 0.26640  0.61640  0.72550  Biso   1.000  O
  O192     1.0000 0.76640  0.11640  0.72550  Biso   1.000  O
  C689     1.0000 0.30270  0.38680  0.23550  Biso   1.000  C
  C690     1.0000 0.80270  0.88680  0.23550  Biso   1.000  C
  C691     1.0000 0.69730  0.38680  0.26450  Biso   1.000  C
  C692     1.0000 0.19730  0.88680  0.26450  Biso   1.000  C
  C693     1.0000 0.69730  0.61320  0.76450  Biso   1.000  C
  C694     1.0000 0.19730  0.11320  0.76450  Biso   1.000  C
  C695     1.0000 0.30270  0.61320  0.73550  Biso   1.000  C
  C696     1.0000 0.80270  0.11320  0.73550  Biso   1.000  C
  C697     1.0000 0.32080  0.36290  0.27530  Biso   1.000  C
  C698     1.0000 0.82080  0.86290  0.27530  Biso   1.000  C
  C699     1.0000 0.67920  0.36290  0.22470  Biso   1.000  C
  C700     1.0000 0.17920  0.86290  0.22470  Biso   1.000  C
  C701     1.0000 0.67920  0.63710  0.72470  Biso   1.000  C
  C702     1.0000 0.17920  0.13710  0.72470  Biso   1.000  C
  C703     1.0000 0.32080  0.63710  0.77530  Biso   1.000  C
  C704     1.0000 0.82080  0.13710  0.77530  Biso   1.000  C
  Cu1      1.0000 0.14991  0.35693  0.52704  Biso   1.000  Cu
  Cu2      1.0000 0.64991  0.85693  0.52704  Biso   1.000  Cu
  Cu3      1.0000 0.85009  0.35693  0.97296  Biso   1.000  Cu
  Cu4      1.0000 0.35009  0.85693  0.97296  Biso   1.000  Cu
  Cu5      1.0000 0.85009  0.64307  0.47296  Biso   1.000  Cu
  Cu6      1.0000 0.35009  0.14307  0.47296  Biso   1.000  Cu
  Cu7      1.0000 0.14991  0.64307  0.02704  Biso   1.000  Cu
  Cu8      1.0000 0.64991  0.14307  0.02704  Biso   1.000  Cu
  Cu9      1.0000 0.98860  0.01802  0.52669  Biso   1.000  Cu
  Cu10     1.0000 0.48860  0.51802  0.52669  Biso   1.000  Cu
  Cu11     1.0000 0.01140  0.01802  0.97331  Biso   1.000  Cu
  Cu12     1.0000 0.51140  0.51802  0.97331  Biso   1.000  Cu
  Cu13     1.0000 0.01140  0.98198  0.47331  Biso   1.000  Cu
  Cu14     1.0000 0.51140  0.48198  0.47331  Biso   1.000  Cu
  Cu15     1.0000 0.98860  0.98198  0.02669  Biso   1.000  Cu
  Cu16     1.0000 0.48860  0.48198  0.02669  Biso   1.000  Cu
  Cu17     1.0000 0.10031  0.39303  0.47343  Biso   1.000  Cu
  Cu18     1.0000 0.60031  0.89303  0.47343  Biso   1.000  Cu
  Cu19     1.0000 0.89969  0.39303  0.02657  Biso   1.000  Cu
  Cu20     1.0000 0.39969  0.89303  0.02657  Biso   1.000  Cu
  Cu21     1.0000 0.89969  0.60697  0.52657  Biso   1.000  Cu
  Cu22     1.0000 0.39969  0.10697  0.52657  Biso   1.000  Cu
  Cu23     1.0000 0.10031  0.60697  0.97343  Biso   1.000  Cu
  Cu24     1.0000 0.60031  0.10697  0.97343  Biso   1.000  Cu
  Cu25     1.0000 0.23855  0.76799  0.52647  Biso   1.000  Cu
  Cu26     1.0000 0.73855  0.26799  0.52647  Biso   1.000  Cu
  Cu27     1.0000 0.76145  0.76799  0.97353  Biso   1.000  Cu
  Cu28     1.0000 0.26145  0.26799  0.97353  Biso   1.000  Cu
  Cu29     1.0000 0.76145  0.23201  0.47353  Biso   1.000  Cu
  Cu30     1.0000 0.26145  0.73201  0.47353  Biso   1.000  Cu
  Cu31     1.0000 0.23855  0.23201  0.02647  Biso   1.000  Cu
  Cu32     1.0000 0.73855  0.73201  0.02647  Biso   1.000  Cu
  O193     1.0000 0.03030  0.24090  0.27650  Biso   1.000  O
  O194     1.0000 0.53030  0.74090  0.27650  Biso   1.000  O
  O195     1.0000 0.96970  0.24090  0.22350  Biso   1.000  O
  O196     1.0000 0.46970  0.74090  0.22350  Biso   1.000  O
  O197     1.0000 0.96970  0.75910  0.72350  Biso   1.000  O
  O198     1.0000 0.46970  0.25910  0.72350  Biso   1.000  O
  O199     1.0000 0.03030  0.75910  0.77650  Biso   1.000  O
  O200     1.0000 0.53030  0.25910  0.77650  Biso   1.000  O
  C705     1.0000 0.06430  0.23800  0.27280  Biso   1.000  C
  C706     1.0000 0.56430  0.73800  0.27280  Biso   1.000  C
  C707     1.0000 0.93570  0.23800  0.22720  Biso   1.000  C
  C708     1.0000 0.43570  0.73800  0.22720  Biso   1.000  C
  C709     1.0000 0.93570  0.76200  0.72720  Biso   1.000  C
  C710     1.0000 0.43570  0.26200  0.72720  Biso   1.000  C
  C711     1.0000 0.06430  0.76200  0.77280  Biso   1.000  C
  C712     1.0000 0.56430  0.26200  0.77280  Biso   1.000  C
  C713     1.0000 0.06940  0.26180  0.23700  Biso   1.000  C
  C714     1.0000 0.56940  0.76180  0.23700  Biso   1.000  C
  C715     1.0000 0.93060  0.26180  0.26300  Biso   1.000  C
  C716     1.0000 0.43060  0.76180  0.26300  Biso   1.000  C
  C717     1.0000 0.93060  0.73820  0.76300  Biso   1.000  C
  C718     1.0000 0.43060  0.23820  0.76300  Biso   1.000  C
  C719     1.0000 0.06940  0.73820  0.73700  Biso   1.000  C
  C720     1.0000 0.56940  0.23820  0.73700  Biso   1.000  C
  O201     1.0000 0.04540  0.33580  0.72450  Biso   1.000  O
  O202     1.0000 0.54540  0.83580  0.72450  Biso   1.000  O
  O203     1.0000 0.95460  0.33580  0.77550  Biso   1.000  O
  O204     1.0000 0.45460  0.83580  0.77550  Biso   1.000  O
  O205     1.0000 0.95460  0.66420  0.27550  Biso   1.000  O
  O206     1.0000 0.45460  0.16420  0.27550  Biso   1.000  O
  O207     1.0000 0.04540  0.66420  0.22450  Biso   1.000  O
  O208     1.0000 0.54540  0.16420  0.22450  Biso   1.000  O
  C721     1.0000 0.04740  0.37040  0.72700  Biso   1.000  C
  C722     1.0000 0.54740  0.87040  0.72700  Biso   1.000  C
  C723     1.0000 0.95260  0.37040  0.77300  Biso   1.000  C
  C724     1.0000 0.45260  0.87040  0.77300  Biso   1.000  C
  C725     1.0000 0.95260  0.62960  0.27300  Biso   1.000  C
  C726     1.0000 0.45260  0.12960  0.27300  Biso   1.000  C
  C727     1.0000 0.04740  0.62960  0.22700  Biso   1.000  C
  C728     1.0000 0.54740  0.12960  0.22700  Biso   1.000  C
  C729     1.0000 0.08640  0.37780  0.75360  Biso   1.000  C
  C730     1.0000 0.58640  0.87780  0.75360  Biso   1.000  C
  C731     1.0000 0.91360  0.37780  0.74640  Biso   1.000  C
  C732     1.0000 0.41360  0.87780  0.74640  Biso   1.000  C
  C733     1.0000 0.91360  0.62220  0.24640  Biso   1.000  C
  C734     1.0000 0.41360  0.12220  0.24640  Biso   1.000  C
  C735     1.0000 0.08640  0.62220  0.25360  Biso   1.000  C
  C736     1.0000 0.58640  0.12220  0.25360  Biso   1.000  C
  O209     1.0000 0.30860  0.45820  0.27480  Biso   1.000  O
  O210     1.0000 0.80860  0.95820  0.27480  Biso   1.000  O
  O211     1.0000 0.69140  0.45820  0.22520  Biso   1.000  O
  O212     1.0000 0.19140  0.95820  0.22520  Biso   1.000  O
  O213     1.0000 0.69140  0.54180  0.72520  Biso   1.000  O
  O214     1.0000 0.19140  0.04180  0.72520  Biso   1.000  O
  O215     1.0000 0.30860  0.54180  0.77480  Biso   1.000  O
  O216     1.0000 0.80860  0.04180  0.77480  Biso   1.000  O
  C737     1.0000 0.30500  0.49170  0.26840  Biso   1.000  C
  C738     1.0000 0.80500  0.99170  0.26840  Biso   1.000  C
  C739     1.0000 0.69500  0.49170  0.23160  Biso   1.000  C
  C740     1.0000 0.19500  0.99170  0.23160  Biso   1.000  C
  C741     1.0000 0.69500  0.50830  0.73160  Biso   1.000  C
  C742     1.0000 0.19500  0.00830  0.73160  Biso   1.000  C
  C743     1.0000 0.30500  0.50830  0.76840  Biso   1.000  C
  C744     1.0000 0.80500  0.00830  0.76840  Biso   1.000  C
  C745     1.0000 0.33660  0.50130  0.25300  Biso   1.000  C
  C746     1.0000 0.83660  0.00130  0.25300  Biso   1.000  C
  C747     1.0000 0.66340  0.50130  0.24700  Biso   1.000  C
  C748     1.0000 0.16340  0.00130  0.24700  Biso   1.000  C
  C749     1.0000 0.66340  0.49870  0.74700  Biso   1.000  C
  C750     1.0000 0.16340  0.99870  0.74700  Biso   1.000  C
  C751     1.0000 0.33660  0.49870  0.75300  Biso   1.000  C
  C752     1.0000 0.83660  0.99870  0.75300  Biso   1.000  C
  O217     1.0000 0.22460  0.48940  0.22710  Biso   1.000  O
  O218     1.0000 0.72460  0.98940  0.22710  Biso   1.000  O
  O219     1.0000 0.77540  0.48940  0.27290  Biso   1.000  O
  O220     1.0000 0.27540  0.98940  0.27290  Biso   1.000  O
  O221     1.0000 0.77540  0.51060  0.77290  Biso   1.000  O
  O222     1.0000 0.27540  0.01060  0.77290  Biso   1.000  O
  O223     1.0000 0.22460  0.51060  0.72710  Biso   1.000  O
  O224     1.0000 0.72460  0.01060  0.72710  Biso   1.000  O
  C753     1.0000 0.19310  0.49040  0.23410  Biso   1.000  C
  C754     1.0000 0.69310  0.99040  0.23410  Biso   1.000  C
  C755     1.0000 0.80690  0.49040  0.26590  Biso   1.000  C
  C756     1.0000 0.30690  0.99040  0.26590  Biso   1.000  C
  C757     1.0000 0.80690  0.50960  0.76590  Biso   1.000  C
  C758     1.0000 0.30690  0.00960  0.76590  Biso   1.000  C
  C759     1.0000 0.19310  0.50960  0.73410  Biso   1.000  C
  C760     1.0000 0.69310  0.00960  0.73410  Biso   1.000  C
  C761     1.0000 0.19400  0.52330  0.26560  Biso   1.000  C
  C762     1.0000 0.69400  0.02330  0.26560  Biso   1.000  C
  C763     1.0000 0.80600  0.52330  0.23440  Biso   1.000  C
  C764     1.0000 0.30600  0.02330  0.23440  Biso   1.000  C
  C765     1.0000 0.80600  0.47670  0.73440  Biso   1.000  C
  C766     1.0000 0.30600  0.97670  0.73440  Biso   1.000  C
  C767     1.0000 0.19400  0.47670  0.76560  Biso   1.000  C
  C768     1.0000 0.69400  0.97670  0.76560  Biso   1.000  C
