data_image0
_cell_length_a       15.847
_cell_length_b       22.2874
_cell_length_c       22.5446
_cell_angle_alpha    90
_cell_angle_beta     90
_cell_angle_gamma    90

_symmetry_space_group_name_H-M    "P 1"
_symmetry_int_tables_number       1

loop_
  _symmetry_equiv_pos_as_xyz
  'x, y, z'

loop_
  _atom_site_label
  _atom_site_occupancy
  _atom_site_fract_x
  _atom_site_fract_y
  _atom_site_fract_z
  _atom_site_thermal_displace_type
  _atom_site_B_iso_or_equiv
  _atom_site_type_symbol
  Cu1      1.0000 0.25000  0.25000  0.28210  Biso   1.000  Cu
  Cu2      1.0000 0.75000  0.75000  0.21790  Biso   1.000  Cu
  Cu3      1.0000 0.75000  0.75000  0.71790  Biso   1.000  Cu
  Cu4      1.0000 0.25000  0.25000  0.78210  Biso   1.000  Cu
  Cu5      1.0000 0.25000  0.75000  0.28688  Biso   1.000  Cu
  Cu6      1.0000 0.75000  0.25000  0.21312  Biso   1.000  Cu
  Cu7      1.0000 0.75000  0.25000  0.71312  Biso   1.000  Cu
  Cu8      1.0000 0.25000  0.75000  0.78688  Biso   1.000  Cu
  O1       1.0000 0.10168  0.24724  0.28069  Biso   1.000  O
  O2       1.0000 0.39832  0.25276  0.28069  Biso   1.000  O
  O3       1.0000 0.60168  0.75276  0.21931  Biso   1.000  O
  O4       1.0000 0.89832  0.74724  0.21931  Biso   1.000  O
  O5       1.0000 0.89832  0.75276  0.71931  Biso   1.000  O
  O6       1.0000 0.60168  0.74724  0.71931  Biso   1.000  O
  O7       1.0000 0.39832  0.24724  0.78069  Biso   1.000  O
  O8       1.0000 0.10168  0.25276  0.78069  Biso   1.000  O
  H1       1.0000 0.07760  0.27590  0.26250  Biso   1.000  H
  H2       1.0000 0.42240  0.22410  0.26250  Biso   1.000  H
  H3       1.0000 0.57760  0.72410  0.23750  Biso   1.000  H
  H4       1.0000 0.92240  0.77590  0.23750  Biso   1.000  H
  H5       1.0000 0.92240  0.72410  0.73750  Biso   1.000  H
  H6       1.0000 0.57760  0.77590  0.73750  Biso   1.000  H
  H7       1.0000 0.42240  0.27590  0.76250  Biso   1.000  H
  H8       1.0000 0.07760  0.22410  0.76250  Biso   1.000  H
  H9       1.0000 0.06980  0.24790  0.31100  Biso   1.000  H
  H10      1.0000 0.43020  0.25210  0.31100  Biso   1.000  H
  H11      1.0000 0.56980  0.75210  0.18900  Biso   1.000  H
  H12      1.0000 0.93020  0.74790  0.18900  Biso   1.000  H
  H13      1.0000 0.93020  0.75210  0.68900  Biso   1.000  H
  H14      1.0000 0.56980  0.74790  0.68900  Biso   1.000  H
  H15      1.0000 0.43020  0.24790  0.81100  Biso   1.000  H
  H16      1.0000 0.06980  0.25210  0.81100  Biso   1.000  H
  O9       1.0000 0.39958  0.75946  0.28730  Biso   1.000  O
  O10      1.0000 0.10042  0.74054  0.28730  Biso   1.000  O
  O11      1.0000 0.89958  0.24054  0.21270  Biso   1.000  O
  O12      1.0000 0.60042  0.25946  0.21270  Biso   1.000  O
  O13      1.0000 0.60042  0.24054  0.71270  Biso   1.000  O
  O14      1.0000 0.89958  0.25946  0.71270  Biso   1.000  O
  O15      1.0000 0.10042  0.75946  0.78730  Biso   1.000  O
  O16      1.0000 0.39958  0.74054  0.78730  Biso   1.000  O
  H17      1.0000 0.42720  0.79050  0.27710  Biso   1.000  H
  H18      1.0000 0.07280  0.70950  0.27710  Biso   1.000  H
  H19      1.0000 0.92720  0.20950  0.22290  Biso   1.000  H
  H20      1.0000 0.57280  0.29050  0.22290  Biso   1.000  H
  H21      1.0000 0.57280  0.20950  0.72290  Biso   1.000  H
  H22      1.0000 0.92720  0.29050  0.72290  Biso   1.000  H
  H23      1.0000 0.07280  0.79050  0.77710  Biso   1.000  H
  H24      1.0000 0.42720  0.70950  0.77710  Biso   1.000  H
  H25      1.0000 0.43940  0.73420  0.28340  Biso   1.000  H
  H26      1.0000 0.06060  0.76580  0.28340  Biso   1.000  H
  H27      1.0000 0.93940  0.26580  0.21660  Biso   1.000  H
  H28      1.0000 0.56060  0.23420  0.21660  Biso   1.000  H
  H29      1.0000 0.56060  0.26580  0.71660  Biso   1.000  H
  H30      1.0000 0.93940  0.23420  0.71660  Biso   1.000  H
  H31      1.0000 0.06060  0.73420  0.78340  Biso   1.000  H
  H32      1.0000 0.43940  0.76580  0.78340  Biso   1.000  H
  N1       1.0000 0.24911  0.15919  0.28191  Biso   1.000  N
  N2       1.0000 0.25089  0.34081  0.28191  Biso   1.000  N
  N3       1.0000 0.74911  0.84081  0.21809  Biso   1.000  N
  N4       1.0000 0.75089  0.65919  0.21809  Biso   1.000  N
  N5       1.0000 0.75089  0.84081  0.71809  Biso   1.000  N
  N6       1.0000 0.74911  0.65919  0.71809  Biso   1.000  N
  N7       1.0000 0.25089  0.15919  0.78191  Biso   1.000  N
  N8       1.0000 0.24911  0.34081  0.78191  Biso   1.000  N
  C1       1.0000 0.30480  0.12751  0.31400  Biso   1.000  C
  C2       1.0000 0.19520  0.37249  0.31400  Biso   1.000  C
  C3       1.0000 0.80480  0.87249  0.18600  Biso   1.000  C
  C4       1.0000 0.69520  0.62751  0.18600  Biso   1.000  C
  C5       1.0000 0.69520  0.87249  0.68600  Biso   1.000  C
  C6       1.0000 0.80480  0.62751  0.68600  Biso   1.000  C
  C7       1.0000 0.19520  0.12751  0.81400  Biso   1.000  C
  C8       1.0000 0.30480  0.37249  0.81400  Biso   1.000  C
  H33      1.0000 0.34680  0.14860  0.33570  Biso   1.000  H
  H34      1.0000 0.15320  0.35140  0.33570  Biso   1.000  H
  H35      1.0000 0.84680  0.85140  0.16430  Biso   1.000  H
  H36      1.0000 0.65320  0.64860  0.16430  Biso   1.000  H
  H37      1.0000 0.65320  0.85140  0.66430  Biso   1.000  H
  H38      1.0000 0.84680  0.64860  0.66430  Biso   1.000  H
  H39      1.0000 0.15320  0.14860  0.83570  Biso   1.000  H
  H40      1.0000 0.34680  0.35140  0.83570  Biso   1.000  H
  C9       1.0000 0.30370  0.06557  0.31684  Biso   1.000  C
  C10      1.0000 0.19630  0.43443  0.31684  Biso   1.000  C
  C11      1.0000 0.80370  0.93443  0.18316  Biso   1.000  C
  C12      1.0000 0.69630  0.56557  0.18316  Biso   1.000  C
  C13      1.0000 0.69630  0.93443  0.68316  Biso   1.000  C
  C14      1.0000 0.80370  0.56557  0.68316  Biso   1.000  C
  C15      1.0000 0.19630  0.06557  0.81684  Biso   1.000  C
  C16      1.0000 0.30370  0.43443  0.81684  Biso   1.000  C
  H41      1.0000 0.34370  0.04490  0.34070  Biso   1.000  H
  H42      1.0000 0.15630  0.45510  0.34070  Biso   1.000  H
  H43      1.0000 0.84370  0.95510  0.15930  Biso   1.000  H
  H44      1.0000 0.65630  0.54490  0.15930  Biso   1.000  H
  H45      1.0000 0.65630  0.95510  0.65930  Biso   1.000  H
  H46      1.0000 0.84370  0.54490  0.65930  Biso   1.000  H
  H47      1.0000 0.15630  0.04490  0.84070  Biso   1.000  H
  H48      1.0000 0.34370  0.45510  0.84070  Biso   1.000  H
  C17      1.0000 0.24390  0.03357  0.28474  Biso   1.000  C
  C18      1.0000 0.25610  0.46643  0.28474  Biso   1.000  C
  C19      1.0000 0.74390  0.96643  0.21526  Biso   1.000  C
  C20      1.0000 0.75610  0.53357  0.21526  Biso   1.000  C
  C21      1.0000 0.75610  0.96643  0.71526  Biso   1.000  C
  C22      1.0000 0.74390  0.53357  0.71526  Biso   1.000  C
  C23      1.0000 0.25610  0.03357  0.78474  Biso   1.000  C
  C24      1.0000 0.24390  0.46643  0.78474  Biso   1.000  C
  C25      1.0000 0.18600  0.06665  0.25098  Biso   1.000  C
  C26      1.0000 0.31400  0.43335  0.25098  Biso   1.000  C
  C27      1.0000 0.68600  0.93335  0.24902  Biso   1.000  C
  C28      1.0000 0.81400  0.56665  0.24902  Biso   1.000  C
  C29      1.0000 0.81400  0.93335  0.74902  Biso   1.000  C
  C30      1.0000 0.68600  0.56665  0.74902  Biso   1.000  C
  C31      1.0000 0.31400  0.06665  0.75098  Biso   1.000  C
  C32      1.0000 0.18600  0.43335  0.75098  Biso   1.000  C
  H49      1.0000 0.14390  0.04660  0.22850  Biso   1.000  H
  H50      1.0000 0.35610  0.45340  0.22850  Biso   1.000  H
  H51      1.0000 0.64390  0.95340  0.27150  Biso   1.000  H
  H52      1.0000 0.85610  0.54660  0.27150  Biso   1.000  H
  H53      1.0000 0.85610  0.95340  0.77150  Biso   1.000  H
  H54      1.0000 0.64390  0.54660  0.77150  Biso   1.000  H
  H55      1.0000 0.35610  0.04660  0.72850  Biso   1.000  H
  H56      1.0000 0.14390  0.45340  0.72850  Biso   1.000  H
  C33      1.0000 0.19040  0.12850  0.25066  Biso   1.000  C
  C34      1.0000 0.30960  0.37150  0.25066  Biso   1.000  C
  C35      1.0000 0.69040  0.87150  0.24934  Biso   1.000  C
  C36      1.0000 0.80960  0.62850  0.24934  Biso   1.000  C
  C37      1.0000 0.80960  0.87150  0.74934  Biso   1.000  C
  C38      1.0000 0.69040  0.62850  0.74934  Biso   1.000  C
  C39      1.0000 0.30960  0.12850  0.75066  Biso   1.000  C
  C40      1.0000 0.19040  0.37150  0.75066  Biso   1.000  C
  H57      1.0000 0.15080  0.15040  0.22760  Biso   1.000  H
  H58      1.0000 0.34920  0.34960  0.22760  Biso   1.000  H
  H59      1.0000 0.65080  0.84960  0.27240  Biso   1.000  H
  H60      1.0000 0.84920  0.65040  0.27240  Biso   1.000  H
  H61      1.0000 0.84920  0.84960  0.77240  Biso   1.000  H
  H62      1.0000 0.65080  0.65040  0.77240  Biso   1.000  H
  H63      1.0000 0.34920  0.15040  0.72760  Biso   1.000  H
  H64      1.0000 0.15080  0.34960  0.72760  Biso   1.000  H
  C41      1.0000 0.24180  0.96696  0.28617  Biso   1.000  C
  C42      1.0000 0.25820  0.53304  0.28617  Biso   1.000  C
  C43      1.0000 0.74180  0.03304  0.21383  Biso   1.000  C
  C44      1.0000 0.75820  0.46696  0.21383  Biso   1.000  C
  C45      1.0000 0.75820  0.03304  0.71383  Biso   1.000  C
  C46      1.0000 0.74180  0.46696  0.71383  Biso   1.000  C
  C47      1.0000 0.25820  0.96696  0.78617  Biso   1.000  C
  C48      1.0000 0.24180  0.53304  0.78617  Biso   1.000  C
  C49      1.0000 0.28800  0.93486  0.32810  Biso   1.000  C
  C50      1.0000 0.21200  0.56514  0.32810  Biso   1.000  C
  C51      1.0000 0.78800  0.06514  0.17190  Biso   1.000  C
  C52      1.0000 0.71200  0.43486  0.17190  Biso   1.000  C
  C53      1.0000 0.71200  0.06514  0.67190  Biso   1.000  C
  C54      1.0000 0.78800  0.43486  0.67190  Biso   1.000  C
  C55      1.0000 0.21200  0.93486  0.82810  Biso   1.000  C
  C56      1.0000 0.28800  0.56514  0.82810  Biso   1.000  C
  H65      1.0000 0.32030  0.95550  0.35710  Biso   1.000  H
  H66      1.0000 0.17970  0.54450  0.35710  Biso   1.000  H
  H67      1.0000 0.82030  0.04450  0.14290  Biso   1.000  H
  H68      1.0000 0.67970  0.45550  0.14290  Biso   1.000  H
  H69      1.0000 0.67970  0.04450  0.64290  Biso   1.000  H
  H70      1.0000 0.82030  0.45550  0.64290  Biso   1.000  H
  H71      1.0000 0.17970  0.95550  0.85710  Biso   1.000  H
  H72      1.0000 0.32030  0.54450  0.85710  Biso   1.000  H
  C57      1.0000 0.28650  0.87296  0.32729  Biso   1.000  C
  C58      1.0000 0.21350  0.62704  0.32729  Biso   1.000  C
  C59      1.0000 0.78650  0.12704  0.17271  Biso   1.000  C
  C60      1.0000 0.71350  0.37296  0.17271  Biso   1.000  C
  C61      1.0000 0.71350  0.12704  0.67271  Biso   1.000  C
  C62      1.0000 0.78650  0.37296  0.67271  Biso   1.000  C
  C63      1.0000 0.21350  0.87296  0.82729  Biso   1.000  C
  C64      1.0000 0.28650  0.62704  0.82729  Biso   1.000  C
  H73      1.0000 0.31830  0.85200  0.35640  Biso   1.000  H
  H74      1.0000 0.18170  0.64800  0.35640  Biso   1.000  H
  H75      1.0000 0.81830  0.14800  0.14360  Biso   1.000  H
  H76      1.0000 0.68170  0.35200  0.14360  Biso   1.000  H
  H77      1.0000 0.68170  0.14800  0.64360  Biso   1.000  H
  H78      1.0000 0.81830  0.35200  0.64360  Biso   1.000  H
  H79      1.0000 0.18170  0.85200  0.85640  Biso   1.000  H
  H80      1.0000 0.31830  0.64800  0.85640  Biso   1.000  H
  N9       1.0000 0.24241  0.84090  0.28760  Biso   1.000  N
  N10      1.0000 0.25759  0.65910  0.28760  Biso   1.000  N
  N11      1.0000 0.74241  0.15910  0.21240  Biso   1.000  N
  N12      1.0000 0.75759  0.34090  0.21240  Biso   1.000  N
  N13      1.0000 0.75759  0.15910  0.71240  Biso   1.000  N
  N14      1.0000 0.74241  0.34090  0.71240  Biso   1.000  N
  N15      1.0000 0.25759  0.84090  0.78760  Biso   1.000  N
  N16      1.0000 0.24241  0.65910  0.78760  Biso   1.000  N
  C65      1.0000 0.19560  0.87150  0.24770  Biso   1.000  C
  C66      1.0000 0.30440  0.62850  0.24770  Biso   1.000  C
  C67      1.0000 0.69560  0.12850  0.25230  Biso   1.000  C
  C68      1.0000 0.80440  0.37150  0.25230  Biso   1.000  C
  C69      1.0000 0.80440  0.12850  0.75230  Biso   1.000  C
  C70      1.0000 0.69560  0.37150  0.75230  Biso   1.000  C
  C71      1.0000 0.30440  0.87150  0.74770  Biso   1.000  C
  C72      1.0000 0.19560  0.62850  0.74770  Biso   1.000  C
  H81      1.0000 0.16240  0.84970  0.22000  Biso   1.000  H
  H82      1.0000 0.33760  0.65030  0.22000  Biso   1.000  H
  H83      1.0000 0.66240  0.15030  0.28000  Biso   1.000  H
  H84      1.0000 0.83760  0.34970  0.28000  Biso   1.000  H
  H85      1.0000 0.83760  0.15030  0.78000  Biso   1.000  H
  H86      1.0000 0.66240  0.34970  0.78000  Biso   1.000  H
  H87      1.0000 0.33760  0.84970  0.72000  Biso   1.000  H
  H88      1.0000 0.16240  0.65030  0.72000  Biso   1.000  H
  C73      1.0000 0.19430  0.93348  0.24579  Biso   1.000  C
  C74      1.0000 0.30570  0.56652  0.24579  Biso   1.000  C
  C75      1.0000 0.69430  0.06652  0.25421  Biso   1.000  C
  C76      1.0000 0.80570  0.43348  0.25421  Biso   1.000  C
  C77      1.0000 0.80570  0.06652  0.75421  Biso   1.000  C
  C78      1.0000 0.69430  0.43348  0.75421  Biso   1.000  C
  C79      1.0000 0.30570  0.93348  0.74579  Biso   1.000  C
  C80      1.0000 0.19430  0.56652  0.74579  Biso   1.000  C
  H89      1.0000 0.16090  0.95340  0.21690  Biso   1.000  H
  H90      1.0000 0.33910  0.54660  0.21690  Biso   1.000  H
  H91      1.0000 0.66090  0.04660  0.28310  Biso   1.000  H
  H92      1.0000 0.83910  0.45340  0.28310  Biso   1.000  H
  H93      1.0000 0.83910  0.04660  0.78310  Biso   1.000  H
  H94      1.0000 0.66090  0.45340  0.78310  Biso   1.000  H
  H95      1.0000 0.33910  0.95340  0.71690  Biso   1.000  H
  H96      1.0000 0.16090  0.54660  0.71690  Biso   1.000  H
  N17      1.0000 0.25000  0.25000  0.37392  Biso   1.000  N
  N18      1.0000 0.75000  0.75000  0.12608  Biso   1.000  N
  N19      1.0000 0.75000  0.75000  0.62608  Biso   1.000  N
  N20      1.0000 0.25000  0.25000  0.87392  Biso   1.000  N
  C81      1.0000 0.30220  0.28581  0.40458  Biso   1.000  C
  C82      1.0000 0.19780  0.21419  0.40458  Biso   1.000  C
  C83      1.0000 0.80220  0.71419  0.09542  Biso   1.000  C
  C84      1.0000 0.69780  0.78581  0.09542  Biso   1.000  C
  C85      1.0000 0.69780  0.71419  0.59542  Biso   1.000  C
  C86      1.0000 0.80220  0.78581  0.59542  Biso   1.000  C
  C87      1.0000 0.19780  0.28581  0.90458  Biso   1.000  C
  C88      1.0000 0.30220  0.21419  0.90458  Biso   1.000  C
  H97      1.0000 0.33910  0.31160  0.38330  Biso   1.000  H
  H98      1.0000 0.16090  0.18840  0.38330  Biso   1.000  H
  H99      1.0000 0.83910  0.68840  0.11670  Biso   1.000  H
  H100     1.0000 0.66090  0.81160  0.11670  Biso   1.000  H
  H101     1.0000 0.66090  0.68840  0.61670  Biso   1.000  H
  H102     1.0000 0.83910  0.81160  0.61670  Biso   1.000  H
  H103     1.0000 0.16090  0.31160  0.88330  Biso   1.000  H
  H104     1.0000 0.33910  0.18840  0.88330  Biso   1.000  H
  C89      1.0000 0.30450  0.28667  0.46607  Biso   1.000  C
  C90      1.0000 0.19550  0.21333  0.46607  Biso   1.000  C
  C91      1.0000 0.80450  0.71333  0.03393  Biso   1.000  C
  C92      1.0000 0.69550  0.78667  0.03393  Biso   1.000  C
  C93      1.0000 0.69550  0.71333  0.53393  Biso   1.000  C
  C94      1.0000 0.80450  0.78667  0.53393  Biso   1.000  C
  C95      1.0000 0.19550  0.28667  0.96607  Biso   1.000  C
  C96      1.0000 0.30450  0.21333  0.96607  Biso   1.000  C
  H105     1.0000 0.34310  0.31230  0.48600  Biso   1.000  H
  H106     1.0000 0.15690  0.18770  0.48600  Biso   1.000  H
  H107     1.0000 0.84310  0.68770  0.01400  Biso   1.000  H
  H108     1.0000 0.65690  0.81230  0.01400  Biso   1.000  H
  H109     1.0000 0.65690  0.68770  0.51400  Biso   1.000  H
  H110     1.0000 0.84310  0.81230  0.51400  Biso   1.000  H
  H111     1.0000 0.15690  0.31230  0.98600  Biso   1.000  H
  H112     1.0000 0.34310  0.18770  0.98600  Biso   1.000  H
  C97      1.0000 0.25000  0.25000  0.49897  Biso   1.000  C
  C98      1.0000 0.75000  0.75000  0.00103  Biso   1.000  C
  C99      1.0000 0.75000  0.75000  0.50103  Biso   1.000  C
  C100     1.0000 0.25000  0.25000  0.99897  Biso   1.000  C
  C101     1.0000 0.25000  0.25000  0.56467  Biso   1.000  C
  C102     1.0000 0.75000  0.75000  0.93533  Biso   1.000  C
  C103     1.0000 0.75000  0.75000  0.43533  Biso   1.000  C
  C104     1.0000 0.25000  0.25000  0.06467  Biso   1.000  C
  C105     1.0000 0.19400  0.21464  0.59750  Biso   1.000  C
  C106     1.0000 0.30600  0.28536  0.59750  Biso   1.000  C
  C107     1.0000 0.69400  0.78536  0.90250  Biso   1.000  C
  C108     1.0000 0.80600  0.71464  0.90250  Biso   1.000  C
  C109     1.0000 0.80600  0.78536  0.40250  Biso   1.000  C
  C110     1.0000 0.69400  0.71464  0.40250  Biso   1.000  C
  C111     1.0000 0.30600  0.21464  0.09750  Biso   1.000  C
  C112     1.0000 0.19400  0.28536  0.09750  Biso   1.000  C
  H113     1.0000 0.15420  0.18990  0.57760  Biso   1.000  H
  H114     1.0000 0.34580  0.31010  0.57760  Biso   1.000  H
  H115     1.0000 0.65420  0.81010  0.92240  Biso   1.000  H
  H116     1.0000 0.84580  0.68990  0.92240  Biso   1.000  H
  H117     1.0000 0.84580  0.81010  0.42240  Biso   1.000  H
  H118     1.0000 0.65420  0.68990  0.42240  Biso   1.000  H
  H119     1.0000 0.34580  0.18990  0.07760  Biso   1.000  H
  H120     1.0000 0.15420  0.31010  0.07760  Biso   1.000  H
  C113     1.0000 0.19630  0.21569  0.65863  Biso   1.000  C
  C114     1.0000 0.30370  0.28431  0.65863  Biso   1.000  C
  C115     1.0000 0.69630  0.78431  0.84137  Biso   1.000  C
  C116     1.0000 0.80370  0.71569  0.84137  Biso   1.000  C
  C117     1.0000 0.80370  0.78431  0.34137  Biso   1.000  C
  C118     1.0000 0.69630  0.71569  0.34137  Biso   1.000  C
  C119     1.0000 0.30370  0.21569  0.15863  Biso   1.000  C
  C120     1.0000 0.19630  0.28431  0.15863  Biso   1.000  C
  H121     1.0000 0.15800  0.19090  0.67980  Biso   1.000  H
  H122     1.0000 0.34200  0.30910  0.67980  Biso   1.000  H
  H123     1.0000 0.65800  0.80910  0.82020  Biso   1.000  H
  H124     1.0000 0.84200  0.69090  0.82020  Biso   1.000  H
  H125     1.0000 0.84200  0.80910  0.32020  Biso   1.000  H
  H126     1.0000 0.65800  0.69090  0.32020  Biso   1.000  H
  H127     1.0000 0.34200  0.19090  0.17980  Biso   1.000  H
  H128     1.0000 0.15800  0.30910  0.17980  Biso   1.000  H
  N21      1.0000 0.25000  0.25000  0.18975  Biso   1.000  N
  N22      1.0000 0.75000  0.75000  0.31025  Biso   1.000  N
  N23      1.0000 0.75000  0.75000  0.81025  Biso   1.000  N
  N24      1.0000 0.25000  0.25000  0.68975  Biso   1.000  N
  N25      1.0000 0.25000  0.75000  0.37976  Biso   1.000  N
  N26      1.0000 0.75000  0.25000  0.12024  Biso   1.000  N
  N27      1.0000 0.75000  0.25000  0.62024  Biso   1.000  N
  N28      1.0000 0.25000  0.75000  0.87976  Biso   1.000  N
  C121     1.0000 0.32110  0.73955  0.41059  Biso   1.000  C
  C122     1.0000 0.17890  0.76045  0.41059  Biso   1.000  C
  C123     1.0000 0.82110  0.26045  0.08941  Biso   1.000  C
  C124     1.0000 0.67890  0.23955  0.08941  Biso   1.000  C
  C125     1.0000 0.67890  0.26045  0.58941  Biso   1.000  C
  C126     1.0000 0.82110  0.23955  0.58941  Biso   1.000  C
  C127     1.0000 0.17890  0.73955  0.91059  Biso   1.000  C
  C128     1.0000 0.32110  0.76045  0.91059  Biso   1.000  C
  H129     1.0000 0.37160  0.73140  0.38940  Biso   1.000  H
  H130     1.0000 0.12840  0.76860  0.38940  Biso   1.000  H
  H131     1.0000 0.87160  0.26860  0.11060  Biso   1.000  H
  H132     1.0000 0.62840  0.23140  0.11060  Biso   1.000  H
  H133     1.0000 0.62840  0.26860  0.61060  Biso   1.000  H
  H134     1.0000 0.87160  0.23140  0.61060  Biso   1.000  H
  H135     1.0000 0.12840  0.73140  0.88940  Biso   1.000  H
  H136     1.0000 0.37160  0.76860  0.88940  Biso   1.000  H
  C129     1.0000 0.32370  0.74012  0.47196  Biso   1.000  C
  C130     1.0000 0.17630  0.75988  0.47196  Biso   1.000  C
  C131     1.0000 0.82370  0.25988  0.02804  Biso   1.000  C
  C132     1.0000 0.67630  0.24012  0.02804  Biso   1.000  C
  C133     1.0000 0.67630  0.25988  0.52804  Biso   1.000  C
  C134     1.0000 0.82370  0.24012  0.52804  Biso   1.000  C
  C135     1.0000 0.17630  0.74012  0.97196  Biso   1.000  C
  C136     1.0000 0.32370  0.75988  0.97196  Biso   1.000  C
  H137     1.0000 0.37570  0.73380  0.49200  Biso   1.000  H
  H138     1.0000 0.12430  0.76620  0.49200  Biso   1.000  H
  H139     1.0000 0.87570  0.26620  0.00800  Biso   1.000  H
  H140     1.0000 0.62430  0.23380  0.00800  Biso   1.000  H
  H141     1.0000 0.62430  0.26620  0.50800  Biso   1.000  H
  H142     1.0000 0.87570  0.23380  0.50800  Biso   1.000  H
  H143     1.0000 0.12430  0.73380  0.99200  Biso   1.000  H
  H144     1.0000 0.37570  0.76620  0.99200  Biso   1.000  H
  C137     1.0000 0.25000  0.75000  0.50438  Biso   1.000  C
  C138     1.0000 0.75000  0.25000  0.99562  Biso   1.000  C
  C139     1.0000 0.75000  0.25000  0.49562  Biso   1.000  C
  C140     1.0000 0.25000  0.75000  0.00438  Biso   1.000  C
  C141     1.0000 0.25000  0.75000  0.57011  Biso   1.000  C
  C142     1.0000 0.75000  0.25000  0.92989  Biso   1.000  C
  C143     1.0000 0.75000  0.25000  0.42989  Biso   1.000  C
  C144     1.0000 0.25000  0.75000  0.07011  Biso   1.000  C
  C145     1.0000 0.19720  0.78757  0.60245  Biso   1.000  C
  C146     1.0000 0.30280  0.71243  0.60245  Biso   1.000  C
  C147     1.0000 0.69720  0.21243  0.89755  Biso   1.000  C
  C148     1.0000 0.80280  0.28757  0.89755  Biso   1.000  C
  C149     1.0000 0.80280  0.21243  0.39755  Biso   1.000  C
  C150     1.0000 0.69720  0.28757  0.39755  Biso   1.000  C
  C151     1.0000 0.30280  0.78757  0.10245  Biso   1.000  C
  C152     1.0000 0.19720  0.71243  0.10245  Biso   1.000  C
  H145     1.0000 0.16010  0.81420  0.58240  Biso   1.000  H
  H146     1.0000 0.33990  0.68580  0.58240  Biso   1.000  H
  H147     1.0000 0.66010  0.18580  0.91760  Biso   1.000  H
  H148     1.0000 0.83990  0.31420  0.91760  Biso   1.000  H
  H149     1.0000 0.83990  0.18580  0.41760  Biso   1.000  H
  H150     1.0000 0.66010  0.31420  0.41760  Biso   1.000  H
  H151     1.0000 0.33990  0.81420  0.08240  Biso   1.000  H
  H152     1.0000 0.16010  0.68580  0.08240  Biso   1.000  H
  C153     1.0000 0.19860  0.78623  0.66382  Biso   1.000  C
  C154     1.0000 0.30140  0.71377  0.66382  Biso   1.000  C
  C155     1.0000 0.69860  0.21377  0.83618  Biso   1.000  C
  C156     1.0000 0.80140  0.28623  0.83618  Biso   1.000  C
  C157     1.0000 0.80140  0.21377  0.33618  Biso   1.000  C
  C158     1.0000 0.69860  0.28623  0.33618  Biso   1.000  C
  C159     1.0000 0.30140  0.78623  0.16382  Biso   1.000  C
  C160     1.0000 0.19860  0.71377  0.16382  Biso   1.000  C
  H153     1.0000 0.16170  0.81200  0.68500  Biso   1.000  H
  H154     1.0000 0.33830  0.68800  0.68500  Biso   1.000  H
  H155     1.0000 0.66170  0.18800  0.81500  Biso   1.000  H
  H156     1.0000 0.83830  0.31200  0.81500  Biso   1.000  H
  H157     1.0000 0.83830  0.18800  0.31500  Biso   1.000  H
  H158     1.0000 0.66170  0.31200  0.31500  Biso   1.000  H
  H159     1.0000 0.33830  0.81200  0.18500  Biso   1.000  H
  H160     1.0000 0.16170  0.68800  0.18500  Biso   1.000  H
  N29      1.0000 0.25000  0.75000  0.69449  Biso   1.000  N
  N30      1.0000 0.75000  0.25000  0.80551  Biso   1.000  N
  N31      1.0000 0.75000  0.25000  0.30551  Biso   1.000  N
  N32      1.0000 0.25000  0.75000  0.19449  Biso   1.000  N
  O17      1.0000 0.62440  0.99166  0.05001  Biso   1.000  O
  O18      1.0000 0.87560  0.50834  0.05001  Biso   1.000  O
  O19      1.0000 0.12440  0.00834  0.44999  Biso   1.000  O
  O20      1.0000 0.37560  0.49166  0.44999  Biso   1.000  O
  O21      1.0000 0.37560  0.00834  0.94999  Biso   1.000  O
  O22      1.0000 0.12440  0.49166  0.94999  Biso   1.000  O
  O23      1.0000 0.87560  0.99166  0.55001  Biso   1.000  O
  O24      1.0000 0.62440  0.50834  0.55001  Biso   1.000  O
  C161     1.0000 0.64420  0.99211  0.99246  Biso   1.000  C
  C162     1.0000 0.85580  0.50789  0.99246  Biso   1.000  C
  C163     1.0000 0.14420  0.00789  0.50754  Biso   1.000  C
  C164     1.0000 0.35580  0.49211  0.50754  Biso   1.000  C
  C165     1.0000 0.35580  0.00789  0.00754  Biso   1.000  C
  C166     1.0000 0.14420  0.49211  0.00754  Biso   1.000  C
  C167     1.0000 0.85580  0.99211  0.49246  Biso   1.000  C
  C168     1.0000 0.64420  0.50789  0.49246  Biso   1.000  C
  C169     1.0000 0.69510  0.94450  0.96487  Biso   1.000  C
  C170     1.0000 0.80490  0.55550  0.96487  Biso   1.000  C
  C171     1.0000 0.19510  0.05550  0.53513  Biso   1.000  C
  C172     1.0000 0.30490  0.44450  0.53513  Biso   1.000  C
  C173     1.0000 0.30490  0.05550  0.03513  Biso   1.000  C
  C174     1.0000 0.19510  0.44450  0.03513  Biso   1.000  C
  C175     1.0000 0.80490  0.94450  0.46487  Biso   1.000  C
  C176     1.0000 0.69510  0.55550  0.46487  Biso   1.000  C
  H161     1.0000 0.71780  0.91160  0.98640  Biso   1.000  H
  H162     1.0000 0.78220  0.58840  0.98640  Biso   1.000  H
  H163     1.0000 0.21780  0.08840  0.51360  Biso   1.000  H
  H164     1.0000 0.28220  0.41160  0.51360  Biso   1.000  H
  H165     1.0000 0.28220  0.08840  0.01360  Biso   1.000  H
  H166     1.0000 0.21780  0.41160  0.01360  Biso   1.000  H
  H167     1.0000 0.78220  0.91160  0.48640  Biso   1.000  H
  H168     1.0000 0.71780  0.58840  0.48640  Biso   1.000  H
  C177     1.0000 0.70650  0.95221  0.90516  Biso   1.000  C
  C178     1.0000 0.79350  0.54779  0.90516  Biso   1.000  C
  C179     1.0000 0.20650  0.04779  0.59484  Biso   1.000  C
  C180     1.0000 0.29350  0.45221  0.59484  Biso   1.000  C
  C181     1.0000 0.29350  0.04779  0.09484  Biso   1.000  C
  C182     1.0000 0.20650  0.45221  0.09484  Biso   1.000  C
  C183     1.0000 0.79350  0.95221  0.40516  Biso   1.000  C
  C184     1.0000 0.70650  0.54779  0.40516  Biso   1.000  C
  H169     1.0000 0.73900  0.92360  0.88390  Biso   1.000  H
  H170     1.0000 0.76100  0.57640  0.88390  Biso   1.000  H
  H171     1.0000 0.23900  0.07640  0.61610  Biso   1.000  H
  H172     1.0000 0.26100  0.42360  0.61610  Biso   1.000  H
  H173     1.0000 0.26100  0.07640  0.11610  Biso   1.000  H
  H174     1.0000 0.23900  0.42360  0.11610  Biso   1.000  H
  H175     1.0000 0.76100  0.92360  0.38390  Biso   1.000  H
  H176     1.0000 0.73900  0.57640  0.38390  Biso   1.000  H
  C185     1.0000 0.67130  0.00168  0.87410  Biso   1.000  C
  C186     1.0000 0.82870  0.49832  0.87410  Biso   1.000  C
  C187     1.0000 0.17130  0.99832  0.62590  Biso   1.000  C
  C188     1.0000 0.32870  0.50168  0.62590  Biso   1.000  C
  C189     1.0000 0.32870  0.99832  0.12590  Biso   1.000  C
  C190     1.0000 0.17130  0.50168  0.12590  Biso   1.000  C
  C191     1.0000 0.82870  0.00168  0.37410  Biso   1.000  C
  C192     1.0000 0.67130  0.49832  0.37410  Biso   1.000  C
  H177     1.0000 0.68090  0.00440  0.83250  Biso   1.000  H
  H178     1.0000 0.81910  0.49560  0.83250  Biso   1.000  H
  H179     1.0000 0.18090  0.99560  0.66750  Biso   1.000  H
  H180     1.0000 0.31910  0.50440  0.66750  Biso   1.000  H
  H181     1.0000 0.31910  0.99560  0.16750  Biso   1.000  H
  H182     1.0000 0.18090  0.50440  0.16750  Biso   1.000  H
  H183     1.0000 0.81910  0.00440  0.33250  Biso   1.000  H
  H184     1.0000 0.68090  0.49560  0.33250  Biso   1.000  H
  C193     1.0000 0.62460  0.04560  0.90064  Biso   1.000  C
  C194     1.0000 0.87540  0.45440  0.90064  Biso   1.000  C
  C195     1.0000 0.12460  0.95440  0.59936  Biso   1.000  C
  C196     1.0000 0.37540  0.54560  0.59936  Biso   1.000  C
  C197     1.0000 0.37540  0.95440  0.09936  Biso   1.000  C
  C198     1.0000 0.12460  0.54560  0.09936  Biso   1.000  C
  C199     1.0000 0.87540  0.04560  0.40064  Biso   1.000  C
  C200     1.0000 0.62460  0.45440  0.40064  Biso   1.000  C
  H185     1.0000 0.60150  0.07840  0.87920  Biso   1.000  H
  H186     1.0000 0.89850  0.42160  0.87920  Biso   1.000  H
  H187     1.0000 0.10150  0.92160  0.62080  Biso   1.000  H
  H188     1.0000 0.39850  0.57840  0.62080  Biso   1.000  H
  H189     1.0000 0.39850  0.92160  0.12080  Biso   1.000  H
  H190     1.0000 0.10150  0.57840  0.12080  Biso   1.000  H
  H191     1.0000 0.89850  0.07840  0.37920  Biso   1.000  H
  H192     1.0000 0.60150  0.42160  0.37920  Biso   1.000  H
  C201     1.0000 0.61340  0.03897  0.96001  Biso   1.000  C
  C202     1.0000 0.88660  0.46103  0.96001  Biso   1.000  C
  C203     1.0000 0.11340  0.96103  0.53999  Biso   1.000  C
  C204     1.0000 0.38660  0.53897  0.53999  Biso   1.000  C
  C205     1.0000 0.38660  0.96103  0.03999  Biso   1.000  C
  C206     1.0000 0.11340  0.53897  0.03999  Biso   1.000  C
  C207     1.0000 0.88660  0.03897  0.46001  Biso   1.000  C
  C208     1.0000 0.61340  0.46103  0.46001  Biso   1.000  C
  C209     1.0000 0.56670  0.07630  0.00688  Biso   1.000  C
  C210     1.0000 0.93330  0.42370  0.00688  Biso   1.000  C
  C211     1.0000 0.06670  0.92370  0.49312  Biso   1.000  C
  C212     1.0000 0.43330  0.57630  0.49312  Biso   1.000  C
  C213     1.0000 0.43330  0.92370  0.99312  Biso   1.000  C
  C214     1.0000 0.06670  0.57630  0.99312  Biso   1.000  C
  C215     1.0000 0.93330  0.07630  0.50688  Biso   1.000  C
  C216     1.0000 0.56670  0.42370  0.50688  Biso   1.000  C
  C217     1.0000 0.57910  0.04337  0.05673  Biso   1.000  C
  C218     1.0000 0.92090  0.45663  0.05673  Biso   1.000  C
  C219     1.0000 0.07910  0.95663  0.44327  Biso   1.000  C
  C220     1.0000 0.42090  0.54337  0.44327  Biso   1.000  C
  C221     1.0000 0.42090  0.95663  0.94327  Biso   1.000  C
  C222     1.0000 0.07910  0.54337  0.94327  Biso   1.000  C
  C223     1.0000 0.92090  0.04337  0.55673  Biso   1.000  C
  C224     1.0000 0.57910  0.45663  0.55673  Biso   1.000  C
  C225     1.0000 0.55040  0.05025  0.11891  Biso   1.000  C
  C226     1.0000 0.94960  0.44975  0.11891  Biso   1.000  C
  C227     1.0000 0.05040  0.94975  0.38109  Biso   1.000  C
  C228     1.0000 0.44960  0.55025  0.38109  Biso   1.000  C
  C229     1.0000 0.44960  0.94975  0.88109  Biso   1.000  C
  C230     1.0000 0.05040  0.55025  0.88109  Biso   1.000  C
  C231     1.0000 0.94960  0.05025  0.61891  Biso   1.000  C
  C232     1.0000 0.55040  0.44975  0.61891  Biso   1.000  C
  O25      1.0000 0.51280  0.09921  0.13157  Biso   1.000  O
  O26      1.0000 0.98720  0.40079  0.13157  Biso   1.000  O
  O27      1.0000 0.01280  0.90079  0.36843  Biso   1.000  O
  O28      1.0000 0.48720  0.59921  0.36843  Biso   1.000  O
  O29      1.0000 0.48720  0.90079  0.86843  Biso   1.000  O
  O30      1.0000 0.01280  0.59921  0.86843  Biso   1.000  O
  O31      1.0000 0.98720  0.09921  0.63157  Biso   1.000  O
  O32      1.0000 0.51280  0.40079  0.63157  Biso   1.000  O
  O33      1.0000 0.56300  0.01036  0.15628  Biso   1.000  O
  O34      1.0000 0.93700  0.48964  0.15628  Biso   1.000  O
  O35      1.0000 0.06300  0.98964  0.34372  Biso   1.000  O
  O36      1.0000 0.43700  0.51036  0.34372  Biso   1.000  O
  O37      1.0000 0.43700  0.98964  0.84372  Biso   1.000  O
  O38      1.0000 0.06300  0.51036  0.84372  Biso   1.000  O
  O39      1.0000 0.93700  0.01036  0.65628  Biso   1.000  O
  O40      1.0000 0.56300  0.48964  0.65628  Biso   1.000  O
  C233     1.0000 0.52260  0.13380  0.99915  Biso   1.000  C
  C234     1.0000 0.97740  0.36620  0.99915  Biso   1.000  C
  C235     1.0000 0.02260  0.86620  0.50085  Biso   1.000  C
  C236     1.0000 0.47740  0.63380  0.50085  Biso   1.000  C
  C237     1.0000 0.47740  0.86620  0.00085  Biso   1.000  C
  C238     1.0000 0.02260  0.63380  0.00085  Biso   1.000  C
  C239     1.0000 0.97740  0.13380  0.49915  Biso   1.000  C
  C240     1.0000 0.52260  0.36620  0.49915  Biso   1.000  C
  O41      1.0000 0.48989  0.16044  0.04495  Biso   1.000  O
  O42      1.0000 0.01011  0.33956  0.04495  Biso   1.000  O
  O43      1.0000 0.98989  0.83956  0.45505  Biso   1.000  O
  O44      1.0000 0.51011  0.66044  0.45505  Biso   1.000  O
  O45      1.0000 0.51011  0.83956  0.95505  Biso   1.000  O
  O46      1.0000 0.98989  0.66044  0.95505  Biso   1.000  O
  O47      1.0000 0.01011  0.16044  0.54495  Biso   1.000  O
  O48      1.0000 0.48989  0.33956  0.54495  Biso   1.000  O
  H193     1.0000 0.49440  0.14040  0.07690  Biso   1.000  H
  H194     1.0000 0.00560  0.35960  0.07690  Biso   1.000  H
  H195     1.0000 0.99440  0.85960  0.42310  Biso   1.000  H
  H196     1.0000 0.50560  0.64040  0.42310  Biso   1.000  H
  H197     1.0000 0.50560  0.85960  0.92310  Biso   1.000  H
  H198     1.0000 0.99440  0.64040  0.92310  Biso   1.000  H
  H199     1.0000 0.00560  0.14040  0.57690  Biso   1.000  H
  H200     1.0000 0.49440  0.35960  0.57690  Biso   1.000  H
  O49      1.0000 0.51959  0.15608  0.94884  Biso   1.000  O
  O50      1.0000 0.98041  0.34392  0.94884  Biso   1.000  O
  O51      1.0000 0.01959  0.84392  0.55116  Biso   1.000  O
  O52      1.0000 0.48041  0.65608  0.55116  Biso   1.000  O
  O53      1.0000 0.48041  0.84392  0.05116  Biso   1.000  O
  O54      1.0000 0.01959  0.65608  0.05116  Biso   1.000  O
  O55      1.0000 0.98041  0.15608  0.44884  Biso   1.000  O
  O56      1.0000 0.51959  0.34392  0.44884  Biso   1.000  O
  O57      1.0000 0.53586  0.97824  0.36940  Biso   1.000  O
  O58      1.0000 0.96414  0.52176  0.36940  Biso   1.000  O
  O59      1.0000 0.03586  0.02176  0.13060  Biso   1.000  O
  O60      1.0000 0.46414  0.47824  0.13060  Biso   1.000  O
  O61      1.0000 0.46414  0.02176  0.63060  Biso   1.000  O
  O62      1.0000 0.03586  0.47824  0.63060  Biso   1.000  O
  O63      1.0000 0.96414  0.97824  0.86940  Biso   1.000  O
  O64      1.0000 0.53586  0.52176  0.86940  Biso   1.000  O
  C241     1.0000 0.54430  0.92608  0.40122  Biso   1.000  C
  C242     1.0000 0.95570  0.57392  0.40122  Biso   1.000  C
  C243     1.0000 0.04430  0.07392  0.09878  Biso   1.000  C
  C244     1.0000 0.45570  0.42608  0.09878  Biso   1.000  C
  C245     1.0000 0.45570  0.07392  0.59878  Biso   1.000  C
  C246     1.0000 0.04430  0.42608  0.59878  Biso   1.000  C
  C247     1.0000 0.95570  0.92608  0.90122  Biso   1.000  C
  C248     1.0000 0.54430  0.57392  0.90122  Biso   1.000  C
  C249     1.0000 0.52360  0.86853  0.38097  Biso   1.000  C
  C250     1.0000 0.97640  0.63147  0.38097  Biso   1.000  C
  C251     1.0000 0.02360  0.13147  0.11903  Biso   1.000  C
  C252     1.0000 0.47640  0.36853  0.11903  Biso   1.000  C
  C253     1.0000 0.47640  0.13147  0.61903  Biso   1.000  C
  C254     1.0000 0.02360  0.36853  0.61903  Biso   1.000  C
  C255     1.0000 0.97640  0.86853  0.88097  Biso   1.000  C
  C256     1.0000 0.52360  0.63147  0.88097  Biso   1.000  C
  H201     1.0000 0.50350  0.86150  0.34190  Biso   1.000  H
  H202     1.0000 0.99650  0.63850  0.34190  Biso   1.000  H
  H203     1.0000 0.00350  0.13850  0.15810  Biso   1.000  H
  H204     1.0000 0.49650  0.36150  0.15810  Biso   1.000  H
  H205     1.0000 0.49650  0.13850  0.65810  Biso   1.000  H
  H206     1.0000 0.00350  0.36150  0.65810  Biso   1.000  H
  H207     1.0000 0.99650  0.86150  0.84190  Biso   1.000  H
  H208     1.0000 0.50350  0.63850  0.84190  Biso   1.000  H
  C257     1.0000 0.53410  0.82320  0.42090  Biso   1.000  C
  C258     1.0000 0.96590  0.67680  0.42090  Biso   1.000  C
  C259     1.0000 0.03410  0.17680  0.07910  Biso   1.000  C
  C260     1.0000 0.46590  0.32320  0.07910  Biso   1.000  C
  C261     1.0000 0.46590  0.17680  0.57910  Biso   1.000  C
  C262     1.0000 0.03410  0.32320  0.57910  Biso   1.000  C
  C263     1.0000 0.96590  0.82320  0.92090  Biso   1.000  C
  C264     1.0000 0.53410  0.67680  0.92090  Biso   1.000  C
  H209     1.0000 0.52200  0.78310  0.40940  Biso   1.000  H
  H210     1.0000 0.97800  0.71690  0.40940  Biso   1.000  H
  H211     1.0000 0.02200  0.21690  0.09060  Biso   1.000  H
  H212     1.0000 0.47800  0.28310  0.09060  Biso   1.000  H
  H213     1.0000 0.47800  0.21690  0.59060  Biso   1.000  H
  H214     1.0000 0.02200  0.28310  0.59060  Biso   1.000  H
  H215     1.0000 0.97800  0.78310  0.90940  Biso   1.000  H
  H216     1.0000 0.52200  0.71690  0.90940  Biso   1.000  H
  C265     1.0000 0.56210  0.83470  0.47780  Biso   1.000  C
  C266     1.0000 0.93790  0.66530  0.47780  Biso   1.000  C
  C267     1.0000 0.06210  0.16530  0.02220  Biso   1.000  C
  C268     1.0000 0.43790  0.33470  0.02220  Biso   1.000  C
  C269     1.0000 0.43790  0.16530  0.52220  Biso   1.000  C
  C270     1.0000 0.06210  0.33470  0.52220  Biso   1.000  C
  C271     1.0000 0.93790  0.83470  0.97780  Biso   1.000  C
  C272     1.0000 0.56210  0.66530  0.97780  Biso   1.000  C
  H217     1.0000 0.56460  0.80220  0.50500  Biso   1.000  H
  H218     1.0000 0.93540  0.69780  0.50500  Biso   1.000  H
  H219     1.0000 0.06460  0.19780  0.99500  Biso   1.000  H
  H220     1.0000 0.43540  0.30220  0.99500  Biso   1.000  H
  H221     1.0000 0.43540  0.19780  0.49500  Biso   1.000  H
  H222     1.0000 0.06460  0.30220  0.49500  Biso   1.000  H
  H223     1.0000 0.93540  0.80220  0.00500  Biso   1.000  H
  H224     1.0000 0.56460  0.69780  0.00500  Biso   1.000  H
  C273     1.0000 0.58630  0.89010  0.49744  Biso   1.000  C
  C274     1.0000 0.91370  0.60990  0.49744  Biso   1.000  C
  C275     1.0000 0.08630  0.10990  0.00256  Biso   1.000  C
  C276     1.0000 0.41370  0.39010  0.00256  Biso   1.000  C
  C277     1.0000 0.41370  0.10990  0.50256  Biso   1.000  C
  C278     1.0000 0.08630  0.39010  0.50256  Biso   1.000  C
  C279     1.0000 0.91370  0.89010  0.99744  Biso   1.000  C
  C280     1.0000 0.58630  0.60990  0.99744  Biso   1.000  C
  H225     1.0000 0.60890  0.89570  0.53610  Biso   1.000  H
  H226     1.0000 0.89110  0.60430  0.53610  Biso   1.000  H
  H227     1.0000 0.10890  0.10430  0.96390  Biso   1.000  H
  H228     1.0000 0.39110  0.39570  0.96390  Biso   1.000  H
  H229     1.0000 0.39110  0.10430  0.46390  Biso   1.000  H
  H230     1.0000 0.10890  0.39570  0.46390  Biso   1.000  H
  H231     1.0000 0.89110  0.89570  0.03610  Biso   1.000  H
  H232     1.0000 0.60890  0.60430  0.03610  Biso   1.000  H
  C281     1.0000 0.57620  0.93980  0.45683  Biso   1.000  C
  C282     1.0000 0.92380  0.56020  0.45683  Biso   1.000  C
  C283     1.0000 0.07620  0.06020  0.04317  Biso   1.000  C
  C284     1.0000 0.42380  0.43980  0.04317  Biso   1.000  C
  C285     1.0000 0.42380  0.06020  0.54317  Biso   1.000  C
  C286     1.0000 0.07620  0.43980  0.54317  Biso   1.000  C
  C287     1.0000 0.92380  0.93980  0.95683  Biso   1.000  C
  C288     1.0000 0.57620  0.56020  0.95683  Biso   1.000  C
  C289     1.0000 0.59010  0.00320  0.45853  Biso   1.000  C
  C290     1.0000 0.90990  0.49680  0.45853  Biso   1.000  C
  C291     1.0000 0.09010  0.99680  0.04147  Biso   1.000  C
  C292     1.0000 0.40990  0.50320  0.04147  Biso   1.000  C
  C293     1.0000 0.40990  0.99680  0.54147  Biso   1.000  C
  C294     1.0000 0.09010  0.50320  0.54147  Biso   1.000  C
  C295     1.0000 0.90990  0.00320  0.95853  Biso   1.000  C
  C296     1.0000 0.59010  0.49680  0.95853  Biso   1.000  C
  C297     1.0000 0.56400  0.02506  0.40492  Biso   1.000  C
  C298     1.0000 0.93600  0.47494  0.40492  Biso   1.000  C
  C299     1.0000 0.06400  0.97494  0.09508  Biso   1.000  C
  C300     1.0000 0.43600  0.52506  0.09508  Biso   1.000  C
  C301     1.0000 0.43600  0.97494  0.59508  Biso   1.000  C
  C302     1.0000 0.06400  0.52506  0.59508  Biso   1.000  C
  C303     1.0000 0.93600  0.02506  0.90492  Biso   1.000  C
  C304     1.0000 0.56400  0.47494  0.90492  Biso   1.000  C
  C305     1.0000 0.55390  0.08552  0.37688  Biso   1.000  C
  C306     1.0000 0.94610  0.41448  0.37688  Biso   1.000  C
  C307     1.0000 0.05390  0.91448  0.12312  Biso   1.000  C
  C308     1.0000 0.44610  0.58552  0.12312  Biso   1.000  C
  C309     1.0000 0.44610  0.91448  0.62312  Biso   1.000  C
  C310     1.0000 0.05390  0.58552  0.62312  Biso   1.000  C
  C311     1.0000 0.94610  0.08552  0.87688  Biso   1.000  C
  C312     1.0000 0.55390  0.41448  0.87688  Biso   1.000  C
  O65      1.0000 0.51315  0.08710  0.32929  Biso   1.000  O
  O66      1.0000 0.98685  0.41290  0.32929  Biso   1.000  O
  O67      1.0000 0.01315  0.91290  0.17071  Biso   1.000  O
  O68      1.0000 0.48685  0.58710  0.17071  Biso   1.000  O
  O69      1.0000 0.48685  0.91290  0.67071  Biso   1.000  O
  O70      1.0000 0.01315  0.58710  0.67071  Biso   1.000  O
  O71      1.0000 0.98685  0.08710  0.82929  Biso   1.000  O
  O72      1.0000 0.51315  0.41290  0.82929  Biso   1.000  O
  O73      1.0000 0.58640  0.12943  0.40290  Biso   1.000  O
  O74      1.0000 0.91360  0.37057  0.40290  Biso   1.000  O
  O75      1.0000 0.08640  0.87057  0.09710  Biso   1.000  O
  O76      1.0000 0.41360  0.62943  0.09710  Biso   1.000  O
  O77      1.0000 0.41360  0.87057  0.59710  Biso   1.000  O
  O78      1.0000 0.08640  0.62943  0.59710  Biso   1.000  O
  O79      1.0000 0.91360  0.12943  0.90290  Biso   1.000  O
  O80      1.0000 0.58640  0.37057  0.90290  Biso   1.000  O
  C313     1.0000 0.62390  0.03410  0.51031  Biso   1.000  C
  C314     1.0000 0.87610  0.46590  0.51031  Biso   1.000  C
  C315     1.0000 0.12390  0.96590  0.98969  Biso   1.000  C
  C316     1.0000 0.37610  0.53410  0.98969  Biso   1.000  C
  C317     1.0000 0.37610  0.96590  0.48969  Biso   1.000  C
  C318     1.0000 0.12390  0.53410  0.48969  Biso   1.000  C
  C319     1.0000 0.87610  0.03410  0.01031  Biso   1.000  C
  C320     1.0000 0.62390  0.46590  0.01031  Biso   1.000  C
  O81      1.0000 0.64190  0.09266  0.50486  Biso   1.000  O
  O82      1.0000 0.85810  0.40734  0.50486  Biso   1.000  O
  O83      1.0000 0.14190  0.90734  0.99514  Biso   1.000  O
  O84      1.0000 0.35810  0.59266  0.99514  Biso   1.000  O
  O85      1.0000 0.35810  0.90734  0.49514  Biso   1.000  O
  O86      1.0000 0.14190  0.59266  0.49514  Biso   1.000  O
  O87      1.0000 0.85810  0.09266  0.00486  Biso   1.000  O
  O88      1.0000 0.64190  0.40734  0.00486  Biso   1.000  O
  H233     1.0000 0.62360  0.10450  0.47130  Biso   1.000  H
  H234     1.0000 0.87640  0.39550  0.47130  Biso   1.000  H
  H235     1.0000 0.12360  0.89550  0.02870  Biso   1.000  H
  H236     1.0000 0.37640  0.60450  0.02870  Biso   1.000  H
  H237     1.0000 0.37640  0.89550  0.52870  Biso   1.000  H
  H238     1.0000 0.12360  0.60450  0.52870  Biso   1.000  H
  H239     1.0000 0.87640  0.10450  0.97130  Biso   1.000  H
  H240     1.0000 0.62360  0.39550  0.97130  Biso   1.000  H
  O89      1.0000 0.63740  0.00702  0.55580  Biso   1.000  O
  O90      1.0000 0.86260  0.49298  0.55580  Biso   1.000  O
  O91      1.0000 0.13740  0.99298  0.94420  Biso   1.000  O
  O92      1.0000 0.36260  0.50702  0.94420  Biso   1.000  O
  O93      1.0000 0.36260  0.99298  0.44420  Biso   1.000  O
  O94      1.0000 0.13740  0.50702  0.44420  Biso   1.000  O
  O95      1.0000 0.86260  0.00702  0.05580  Biso   1.000  O
  O96      1.0000 0.63740  0.49298  0.05580  Biso   1.000  O
  O97      1.0000 0.49322  0.16130  0.23558  Biso   1.000  O
  O98      1.0000 0.00678  0.33870  0.23558  Biso   1.000  O
  O99      1.0000 0.99322  0.83870  0.26442  Biso   1.000  O
  O100     1.0000 0.50678  0.66130  0.26442  Biso   1.000  O
  O101     1.0000 0.50678  0.83870  0.76442  Biso   1.000  O
  O102     1.0000 0.99322  0.66130  0.76442  Biso   1.000  O
  O103     1.0000 0.00678  0.16130  0.73558  Biso   1.000  O
  O104     1.0000 0.49322  0.33870  0.73558  Biso   1.000  O
  H241     1.0000 0.50030  0.13890  0.20550  Biso   1.000  H
  H242     1.0000 0.99970  0.36110  0.20550  Biso   1.000  H
  H243     1.0000 0.00030  0.86110  0.29450  Biso   1.000  H
  H244     1.0000 0.49970  0.63890  0.29450  Biso   1.000  H
  H245     1.0000 0.49970  0.86110  0.79450  Biso   1.000  H
  H246     1.0000 0.00030  0.63890  0.79450  Biso   1.000  H
  H247     1.0000 0.99970  0.13890  0.70550  Biso   1.000  H
  H248     1.0000 0.50030  0.36110  0.70550  Biso   1.000  H
  H249     1.0000 0.49640  0.13590  0.26360  Biso   1.000  H
  H250     1.0000 0.00360  0.36410  0.26360  Biso   1.000  H
  H251     1.0000 0.99640  0.86410  0.23640  Biso   1.000  H
  H252     1.0000 0.50360  0.63590  0.23640  Biso   1.000  H
  H253     1.0000 0.50360  0.86410  0.73640  Biso   1.000  H
  H254     1.0000 0.99640  0.63590  0.73640  Biso   1.000  H
  H255     1.0000 0.00360  0.13590  0.76360  Biso   1.000  H
  H256     1.0000 0.49640  0.36410  0.76360  Biso   1.000  H
  O105     1.0000 0.45224  0.86633  0.23727  Biso   1.000  O
  O106     1.0000 0.04776  0.63367  0.23727  Biso   1.000  O
  O107     1.0000 0.95224  0.13367  0.26273  Biso   1.000  O
  O108     1.0000 0.54776  0.36633  0.26273  Biso   1.000  O
  O109     1.0000 0.54776  0.13367  0.76273  Biso   1.000  O
  O110     1.0000 0.95224  0.36633  0.76273  Biso   1.000  O
  O111     1.0000 0.04776  0.86633  0.73727  Biso   1.000  O
  O112     1.0000 0.45224  0.63367  0.73727  Biso   1.000  O
  H257     1.0000 0.48940  0.86950  0.21030  Biso   1.000  H
  H258     1.0000 0.01060  0.63050  0.21030  Biso   1.000  H
  H259     1.0000 0.98940  0.13050  0.28970  Biso   1.000  H
  H260     1.0000 0.51060  0.36950  0.28970  Biso   1.000  H
  H261     1.0000 0.51060  0.13050  0.78970  Biso   1.000  H
  H262     1.0000 0.98940  0.36950  0.78970  Biso   1.000  H
  H263     1.0000 0.01060  0.86950  0.71030  Biso   1.000  H
  H264     1.0000 0.48940  0.63050  0.71030  Biso   1.000  H
  H265     1.0000 0.44910  0.90270  0.24850  Biso   1.000  H
  H266     1.0000 0.05090  0.59730  0.24850  Biso   1.000  H
  H267     1.0000 0.94910  0.09730  0.25150  Biso   1.000  H
  H268     1.0000 0.55090  0.40270  0.25150  Biso   1.000  H
  H269     1.0000 0.55090  0.09730  0.75150  Biso   1.000  H
  H270     1.0000 0.94910  0.40270  0.75150  Biso   1.000  H
  H271     1.0000 0.05090  0.90270  0.74850  Biso   1.000  H
  H272     1.0000 0.44910  0.59730  0.74850  Biso   1.000  H
  O113     1.0000 0.56775  0.88477  0.14635  Biso   1.000  O
  O114     1.0000 0.93225  0.61523  0.14635  Biso   1.000  O
  O115     1.0000 0.06775  0.11523  0.35365  Biso   1.000  O
  O116     1.0000 0.43225  0.38477  0.35365  Biso   1.000  O
  O117     1.0000 0.43225  0.11523  0.85365  Biso   1.000  O
  O118     1.0000 0.06775  0.38477  0.85365  Biso   1.000  O
  O119     1.0000 0.93225  0.88477  0.64635  Biso   1.000  O
  O120     1.0000 0.56775  0.61523  0.64635  Biso   1.000  O
  H273     1.0000 0.54060  0.87450  0.11550  Biso   1.000  H
  H274     1.0000 0.95940  0.62550  0.11550  Biso   1.000  H
  H275     1.0000 0.04060  0.12550  0.38450  Biso   1.000  H
  H276     1.0000 0.45940  0.37450  0.38450  Biso   1.000  H
  H277     1.0000 0.45940  0.12550  0.88450  Biso   1.000  H
  H278     1.0000 0.04060  0.37450  0.88450  Biso   1.000  H
  H279     1.0000 0.95940  0.87450  0.61550  Biso   1.000  H
  H280     1.0000 0.54060  0.62550  0.61550  Biso   1.000  H
  H281     1.0000 0.57640  0.92200  0.15210  Biso   1.000  H
  H282     1.0000 0.92360  0.57800  0.15210  Biso   1.000  H
  H283     1.0000 0.07640  0.07800  0.34790  Biso   1.000  H
  H284     1.0000 0.42360  0.42200  0.34790  Biso   1.000  H
  H285     1.0000 0.42360  0.07800  0.84790  Biso   1.000  H
  H286     1.0000 0.07640  0.42200  0.84790  Biso   1.000  H
  H287     1.0000 0.92360  0.92200  0.65210  Biso   1.000  H
  H288     1.0000 0.57640  0.57800  0.65210  Biso   1.000  H
  O121     1.0000 0.45200  0.99079  0.25046  Biso   1.000  O
  O122     1.0000 0.04800  0.50921  0.25046  Biso   1.000  O
  O123     1.0000 0.95200  0.00921  0.24954  Biso   1.000  O
  O124     1.0000 0.54800  0.49079  0.24954  Biso   1.000  O
  O125     1.0000 0.54800  0.00921  0.74954  Biso   1.000  O
  O126     1.0000 0.95200  0.49079  0.74954  Biso   1.000  O
  O127     1.0000 0.04800  0.99079  0.75046  Biso   1.000  O
  O128     1.0000 0.45200  0.50921  0.75046  Biso   1.000  O
  H289     1.0000 0.49060  0.99720  0.22500  Biso   1.000  H
  H290     1.0000 0.00940  0.50280  0.22500  Biso   1.000  H
  H291     1.0000 0.99060  0.00280  0.27500  Biso   1.000  H
  H292     1.0000 0.50940  0.49720  0.27500  Biso   1.000  H
  H293     1.0000 0.50940  0.00280  0.77500  Biso   1.000  H
  H294     1.0000 0.99060  0.49720  0.77500  Biso   1.000  H
  H295     1.0000 0.00940  0.99720  0.72500  Biso   1.000  H
  H296     1.0000 0.49060  0.50280  0.72500  Biso   1.000  H
  H297     1.0000 0.47280  0.01030  0.27940  Biso   1.000  H
  H298     1.0000 0.02720  0.48970  0.27940  Biso   1.000  H
  H299     1.0000 0.97280  0.98970  0.22060  Biso   1.000  H
  H300     1.0000 0.52720  0.51030  0.22060  Biso   1.000  H
  H301     1.0000 0.52720  0.98970  0.72060  Biso   1.000  H
  H302     1.0000 0.97280  0.51030  0.72060  Biso   1.000  H
  H303     1.0000 0.02720  0.01030  0.77940  Biso   1.000  H
  H304     1.0000 0.47280  0.48970  0.77940  Biso   1.000  H
  O129     1.0000 0.48782  0.23463  0.38303  Biso   1.000  O
  O130     1.0000 0.01218  0.26537  0.38303  Biso   1.000  O
  O131     1.0000 0.98782  0.76537  0.11697  Biso   1.000  O
  O132     1.0000 0.51218  0.73463  0.11697  Biso   1.000  O
  O133     1.0000 0.51218  0.76537  0.61697  Biso   1.000  O
  O134     1.0000 0.98782  0.73463  0.61697  Biso   1.000  O
  O135     1.0000 0.01218  0.23463  0.88303  Biso   1.000  O
  O136     1.0000 0.48782  0.26537  0.88303  Biso   1.000  O
  H305     1.0000 0.51880  0.20410  0.38880  Biso   1.000  H
  H306     1.0000 0.98120  0.29590  0.38880  Biso   1.000  H
  H307     1.0000 0.01880  0.79590  0.11120  Biso   1.000  H
  H308     1.0000 0.48120  0.70410  0.11120  Biso   1.000  H
  H309     1.0000 0.48120  0.79590  0.61120  Biso   1.000  H
  H310     1.0000 0.01880  0.70410  0.61120  Biso   1.000  H
  H311     1.0000 0.98120  0.20410  0.88880  Biso   1.000  H
  H312     1.0000 0.51880  0.29590  0.88880  Biso   1.000  H
  H313     1.0000 0.50040  0.26310  0.40650  Biso   1.000  H
  H314     1.0000 0.99960  0.23690  0.40650  Biso   1.000  H
  H315     1.0000 0.00040  0.73690  0.09350  Biso   1.000  H
  H316     1.0000 0.49960  0.76310  0.09350  Biso   1.000  H
  H317     1.0000 0.49960  0.73690  0.59350  Biso   1.000  H
  H318     1.0000 0.00040  0.76310  0.59350  Biso   1.000  H
  H319     1.0000 0.99960  0.26310  0.90650  Biso   1.000  H
  H320     1.0000 0.50040  0.23690  0.90650  Biso   1.000  H
