data_image0
_cell_length_a       22.604
_cell_length_b       22.604
_cell_length_c       22.964
_cell_angle_alpha    90
_cell_angle_beta     90
_cell_angle_gamma    120

_symmetry_space_group_name_H-M    "P 1"
_symmetry_int_tables_number       1

loop_
  _symmetry_equiv_pos_as_xyz
  'x, y, z'

loop_
  _atom_site_label
  _atom_site_occupancy
  _atom_site_fract_x
  _atom_site_fract_y
  _atom_site_fract_z
  _atom_site_thermal_displace_type
  _atom_site_B_iso_or_equiv
  _atom_site_type_symbol
  Cu1      1.0000 0.00000  0.50000  0.00000  Biso   1.000  Cu
  Cu2      1.0000 0.50000  0.50000  0.00000  Biso   1.000  Cu
  Cu3      1.0000 0.50000  0.00000  0.00000  Biso   1.000  Cu
  Cu4      1.0000 0.50000  0.00000  0.50000  Biso   1.000  Cu
  Cu5      1.0000 0.33333  0.83333  0.33333  Biso   1.000  Cu
  Cu6      1.0000 0.83333  0.83333  0.33333  Biso   1.000  Cu
  Cu7      1.0000 0.83333  0.33333  0.33333  Biso   1.000  Cu
  Cu8      1.0000 0.83333  0.33333  0.16667  Biso   1.000  Cu
  Cu9      1.0000 0.50000  0.50000  0.50000  Biso   1.000  Cu
  Cu10     1.0000 0.00000  0.50000  0.50000  Biso   1.000  Cu
  Cu11     1.0000 0.83333  0.83333  0.16667  Biso   1.000  Cu
  Cu12     1.0000 0.33333  0.83333  0.16667  Biso   1.000  Cu
  O1       1.0000 0.07941  0.48902  0.00893  Biso   1.000  O
  O2       1.0000 0.51098  0.59039  0.00893  Biso   1.000  O
  O3       1.0000 0.40961  0.92059  0.00893  Biso   1.000  O
  O4       1.0000 0.48902  0.07941  0.49107  Biso   1.000  O
  O5       1.0000 0.41274  0.82235  0.34226  Biso   1.000  O
  O6       1.0000 0.84431  0.92372  0.34226  Biso   1.000  O
  O7       1.0000 0.74294  0.25392  0.34226  Biso   1.000  O
  O8       1.0000 0.82235  0.41274  0.15774  Biso   1.000  O
  O9       1.0000 0.40961  0.48902  0.50893  Biso   1.000  O
  O10      1.0000 0.07941  0.59039  0.50893  Biso   1.000  O
  O11      1.0000 0.82235  0.74294  0.32440  Biso   1.000  O
  O12      1.0000 0.92372  0.41274  0.32440  Biso   1.000  O
  O13      1.0000 0.74294  0.82235  0.17560  Biso   1.000  O
  O14      1.0000 0.41274  0.92372  0.17560  Biso   1.000  O
  O15      1.0000 0.92059  0.51098  0.99107  Biso   1.000  O
  O16      1.0000 0.48902  0.40961  0.99107  Biso   1.000  O
  O17      1.0000 0.59039  0.07941  0.99107  Biso   1.000  O
  O18      1.0000 0.51098  0.92059  0.50893  Biso   1.000  O
  O19      1.0000 0.25392  0.84431  0.32440  Biso   1.000  O
  O20      1.0000 0.84431  0.25392  0.17560  Biso   1.000  O
  O21      1.0000 0.59039  0.51098  0.49107  Biso   1.000  O
  O22      1.0000 0.92059  0.40961  0.49107  Biso   1.000  O
  O23      1.0000 0.92372  0.84431  0.15774  Biso   1.000  O
  O24      1.0000 0.25392  0.74294  0.15774  Biso   1.000  O
  O25      1.0000 0.95461  0.43910  0.06441  Biso   1.000  O
  O26      1.0000 0.56090  0.51551  0.06441  Biso   1.000  O
  O27      1.0000 0.48449  0.04539  0.06441  Biso   1.000  O
  O28      1.0000 0.43910  0.95461  0.43559  Biso   1.000  O
  O29      1.0000 0.28794  0.77243  0.39774  Biso   1.000  O
  O30      1.0000 0.89423  0.84884  0.39774  Biso   1.000  O
  O31      1.0000 0.81782  0.37872  0.39774  Biso   1.000  O
  O32      1.0000 0.77243  0.28794  0.10226  Biso   1.000  O
  O33      1.0000 0.48449  0.43910  0.56441  Biso   1.000  O
  O34      1.0000 0.95461  0.51551  0.56441  Biso   1.000  O
  O35      1.0000 0.77243  0.81782  0.26892  Biso   1.000  O
  O36      1.0000 0.84884  0.28794  0.26892  Biso   1.000  O
  O37      1.0000 0.81782  0.77243  0.23108  Biso   1.000  O
  O38      1.0000 0.28794  0.84884  0.23108  Biso   1.000  O
  O39      1.0000 0.04539  0.56090  0.93559  Biso   1.000  O
  O40      1.0000 0.43910  0.48449  0.93559  Biso   1.000  O
  O41      1.0000 0.51551  0.95461  0.93559  Biso   1.000  O
  O42      1.0000 0.56090  0.04539  0.56441  Biso   1.000  O
  O43      1.0000 0.37872  0.89423  0.26892  Biso   1.000  O
  O44      1.0000 0.89423  0.37872  0.23108  Biso   1.000  O
  O45      1.0000 0.51551  0.56090  0.43559  Biso   1.000  O
  O46      1.0000 0.04539  0.48449  0.43559  Biso   1.000  O
  O47      1.0000 0.84884  0.89423  0.10226  Biso   1.000  O
  O48      1.0000 0.37872  0.81782  0.10226  Biso   1.000  O
  N1       1.0000 0.13073  0.38571  0.25417  Biso   1.000  N
  N2       1.0000 0.61429  0.74502  0.25417  Biso   1.000  N
  N3       1.0000 0.25498  0.86927  0.25417  Biso   1.000  N
  N4       1.0000 0.38571  0.13073  0.24583  Biso   1.000  N
  N5       1.0000 0.46406  0.71904  0.58750  Biso   1.000  N
  N6       1.0000 0.94762  0.07835  0.58750  Biso   1.000  N
  N7       1.0000 0.58831  0.20260  0.58750  Biso   1.000  N
  N8       1.0000 0.71904  0.46406  0.91250  Biso   1.000  N
  N9       1.0000 0.25498  0.38571  0.75417  Biso   1.000  N
  N10      1.0000 0.13073  0.74502  0.75417  Biso   1.000  N
  N11      1.0000 0.71904  0.58831  0.07916  Biso   1.000  N
  N12      1.0000 0.07835  0.46406  0.07916  Biso   1.000  N
  N13      1.0000 0.58831  0.71904  0.42084  Biso   1.000  N
  N14      1.0000 0.46406  0.07835  0.42084  Biso   1.000  N
  N15      1.0000 0.86927  0.61429  0.74583  Biso   1.000  N
  N16      1.0000 0.38571  0.25498  0.74583  Biso   1.000  N
  N17      1.0000 0.74502  0.13073  0.74583  Biso   1.000  N
  N18      1.0000 0.61429  0.86927  0.75417  Biso   1.000  N
  N19      1.0000 0.20260  0.94762  0.07916  Biso   1.000  N
  N20      1.0000 0.94762  0.20260  0.42084  Biso   1.000  N
  N21      1.0000 0.74502  0.61429  0.24583  Biso   1.000  N
  N22      1.0000 0.86927  0.25498  0.24583  Biso   1.000  N
  N23      1.0000 0.07835  0.94762  0.91250  Biso   1.000  N
  N24      1.0000 0.20260  0.58831  0.91250  Biso   1.000  N
  C1       1.0000 0.16661  0.47882  0.05496  Biso   1.000  C
  C2       1.0000 0.52118  0.68779  0.05496  Biso   1.000  C
  C3       1.0000 0.31221  0.83339  0.05496  Biso   1.000  C
  C4       1.0000 0.47882  0.16661  0.44504  Biso   1.000  C
  C5       1.0000 0.49994  0.81215  0.38829  Biso   1.000  C
  C6       1.0000 0.85451  0.02112  0.38829  Biso   1.000  C
  C7       1.0000 0.64554  0.16672  0.38829  Biso   1.000  C
  C8       1.0000 0.81215  0.49994  0.11171  Biso   1.000  C
  C9       1.0000 0.31221  0.47882  0.55496  Biso   1.000  C
  C10      1.0000 0.16661  0.68779  0.55496  Biso   1.000  C
  C11      1.0000 0.81215  0.64554  0.27837  Biso   1.000  C
  C12      1.0000 0.02112  0.49994  0.27837  Biso   1.000  C
  C13      1.0000 0.64554  0.81215  0.22163  Biso   1.000  C
  C14      1.0000 0.49994  0.02112  0.22163  Biso   1.000  C
  C15      1.0000 0.83339  0.52118  0.94504  Biso   1.000  C
  C16      1.0000 0.47882  0.31221  0.94504  Biso   1.000  C
  C17      1.0000 0.68779  0.16661  0.94504  Biso   1.000  C
  C18      1.0000 0.52118  0.83339  0.55496  Biso   1.000  C
  C19      1.0000 0.16672  0.85451  0.27837  Biso   1.000  C
  C20      1.0000 0.85451  0.16672  0.22163  Biso   1.000  C
  C21      1.0000 0.68779  0.52118  0.44504  Biso   1.000  C
  C22      1.0000 0.83339  0.31221  0.44504  Biso   1.000  C
  C23      1.0000 0.02112  0.85451  0.11171  Biso   1.000  C
  C24      1.0000 0.16672  0.64554  0.11171  Biso   1.000  C
  H1       1.0000 0.18180  0.48170  0.01460  Biso   1.000  H
  H2       1.0000 0.51830  0.70010  0.01460  Biso   1.000  H
  H3       1.0000 0.29990  0.81820  0.01460  Biso   1.000  H
  H4       1.0000 0.48170  0.18180  0.48540  Biso   1.000  H
  H5       1.0000 0.51513  0.81503  0.34793  Biso   1.000  H
  H6       1.0000 0.85163  0.03343  0.34793  Biso   1.000  H
  H7       1.0000 0.63323  0.15153  0.34793  Biso   1.000  H
  H8       1.0000 0.81503  0.51513  0.15207  Biso   1.000  H
  H9       1.0000 0.29990  0.48170  0.51460  Biso   1.000  H
  H10      1.0000 0.18180  0.70010  0.51460  Biso   1.000  H
  H11      1.0000 0.81503  0.63323  0.31873  Biso   1.000  H
  H12      1.0000 0.03343  0.51513  0.31873  Biso   1.000  H
  H13      1.0000 0.63323  0.81503  0.18127  Biso   1.000  H
  H14      1.0000 0.51513  0.03343  0.18127  Biso   1.000  H
  H15      1.0000 0.81820  0.51830  0.98540  Biso   1.000  H
  H16      1.0000 0.48170  0.29990  0.98540  Biso   1.000  H
  H17      1.0000 0.70010  0.18180  0.98540  Biso   1.000  H
  H18      1.0000 0.51830  0.81820  0.51460  Biso   1.000  H
  H19      1.0000 0.15153  0.85163  0.31873  Biso   1.000  H
  H20      1.0000 0.85163  0.15153  0.18127  Biso   1.000  H
  H21      1.0000 0.70010  0.51830  0.48540  Biso   1.000  H
  H22      1.0000 0.81820  0.29990  0.48540  Biso   1.000  H
  H23      1.0000 0.03343  0.85163  0.15207  Biso   1.000  H
  H24      1.0000 0.15153  0.63323  0.15207  Biso   1.000  H
  H25      1.0000 0.16510  0.43930  0.07400  Biso   1.000  H
  H26      1.0000 0.56070  0.72580  0.07400  Biso   1.000  H
  H27      1.0000 0.27420  0.83490  0.07400  Biso   1.000  H
  H28      1.0000 0.43930  0.16510  0.42600  Biso   1.000  H
  H29      1.0000 0.49843  0.77263  0.40733  Biso   1.000  H
  H30      1.0000 0.89403  0.05913  0.40733  Biso   1.000  H
  H31      1.0000 0.60753  0.16823  0.40733  Biso   1.000  H
  H32      1.0000 0.77263  0.49843  0.09267  Biso   1.000  H
  H33      1.0000 0.27420  0.43930  0.57400  Biso   1.000  H
  H34      1.0000 0.16510  0.72580  0.57400  Biso   1.000  H
  H35      1.0000 0.77263  0.60753  0.25933  Biso   1.000  H
  H36      1.0000 0.05913  0.49843  0.25933  Biso   1.000  H
  H37      1.0000 0.60753  0.77263  0.24067  Biso   1.000  H
  H38      1.0000 0.49843  0.05913  0.24067  Biso   1.000  H
  H39      1.0000 0.83490  0.56070  0.92600  Biso   1.000  H
  H40      1.0000 0.43930  0.27420  0.92600  Biso   1.000  H
  H41      1.0000 0.72580  0.16510  0.92600  Biso   1.000  H
  H42      1.0000 0.56070  0.83490  0.57400  Biso   1.000  H
  H43      1.0000 0.16823  0.89403  0.25933  Biso   1.000  H
  H44      1.0000 0.89403  0.16823  0.24067  Biso   1.000  H
  H45      1.0000 0.72580  0.56070  0.42600  Biso   1.000  H
  H46      1.0000 0.83490  0.27420  0.42600  Biso   1.000  H
  H47      1.0000 0.05913  0.89403  0.09267  Biso   1.000  H
  H48      1.0000 0.16823  0.60753  0.09267  Biso   1.000  H
  H49      1.0000 0.19860  0.52060  0.07580  Biso   1.000  H
  H50      1.0000 0.47940  0.67800  0.07580  Biso   1.000  H
  H51      1.0000 0.32200  0.80140  0.07580  Biso   1.000  H
  H52      1.0000 0.52060  0.19860  0.42420  Biso   1.000  H
  H53      1.0000 0.53193  0.85393  0.40913  Biso   1.000  H
  H54      1.0000 0.81273  0.01133  0.40913  Biso   1.000  H
  H55      1.0000 0.65533  0.13473  0.40913  Biso   1.000  H
  H56      1.0000 0.85393  0.53193  0.09087  Biso   1.000  H
  H57      1.0000 0.32200  0.52060  0.57580  Biso   1.000  H
  H58      1.0000 0.19860  0.67800  0.57580  Biso   1.000  H
  H59      1.0000 0.85393  0.65533  0.25753  Biso   1.000  H
  H60      1.0000 0.01133  0.53193  0.25753  Biso   1.000  H
  H61      1.0000 0.65533  0.85393  0.24247  Biso   1.000  H
  H62      1.0000 0.53193  0.01133  0.24247  Biso   1.000  H
  H63      1.0000 0.80140  0.47940  0.92420  Biso   1.000  H
  H64      1.0000 0.52060  0.32200  0.92420  Biso   1.000  H
  H65      1.0000 0.67800  0.19860  0.92420  Biso   1.000  H
  H66      1.0000 0.47940  0.80140  0.57580  Biso   1.000  H
  H67      1.0000 0.13473  0.81273  0.25753  Biso   1.000  H
  H68      1.0000 0.81273  0.13473  0.24247  Biso   1.000  H
  H69      1.0000 0.67800  0.47940  0.42420  Biso   1.000  H
  H70      1.0000 0.80140  0.32200  0.42420  Biso   1.000  H
  H71      1.0000 0.01133  0.81273  0.09087  Biso   1.000  H
  H72      1.0000 0.13473  0.65533  0.09087  Biso   1.000  H
  C25      1.0000 0.09630  0.47098  0.05573  Biso   1.000  C
  C26      1.0000 0.52902  0.62532  0.05573  Biso   1.000  C
  C27      1.0000 0.37468  0.90370  0.05573  Biso   1.000  C
  C28      1.0000 0.47098  0.09630  0.44427  Biso   1.000  C
  C29      1.0000 0.42963  0.80431  0.38906  Biso   1.000  C
  C30      1.0000 0.86235  0.95865  0.38906  Biso   1.000  C
  C31      1.0000 0.70801  0.23703  0.38906  Biso   1.000  C
  C32      1.0000 0.80431  0.42963  0.11094  Biso   1.000  C
  C33      1.0000 0.37468  0.47098  0.55573  Biso   1.000  C
  C34      1.0000 0.09630  0.62532  0.55573  Biso   1.000  C
  C35      1.0000 0.80431  0.70801  0.27760  Biso   1.000  C
  C36      1.0000 0.95865  0.42963  0.27760  Biso   1.000  C
  C37      1.0000 0.70801  0.80431  0.22240  Biso   1.000  C
  C38      1.0000 0.42963  0.95865  0.22240  Biso   1.000  C
  C39      1.0000 0.90370  0.52902  0.94427  Biso   1.000  C
  C40      1.0000 0.47098  0.37468  0.94427  Biso   1.000  C
  C41      1.0000 0.62532  0.09630  0.94427  Biso   1.000  C
  C42      1.0000 0.52902  0.90370  0.55573  Biso   1.000  C
  C43      1.0000 0.23703  0.86235  0.27760  Biso   1.000  C
  C44      1.0000 0.86235  0.23703  0.22240  Biso   1.000  C
  C45      1.0000 0.62532  0.52902  0.44427  Biso   1.000  C
  C46      1.0000 0.90370  0.37468  0.44427  Biso   1.000  C
  C47      1.0000 0.95865  0.86235  0.11094  Biso   1.000  C
  C48      1.0000 0.23703  0.70801  0.11094  Biso   1.000  C
  C49      1.0000 0.05387  0.44328  0.10517  Biso   1.000  C
  C50      1.0000 0.55672  0.61059  0.10517  Biso   1.000  C
  C51      1.0000 0.38941  0.94613  0.10517  Biso   1.000  C
  C52      1.0000 0.44328  0.05387  0.39483  Biso   1.000  C
  C53      1.0000 0.38720  0.77661  0.43850  Biso   1.000  C
  C54      1.0000 0.89005  0.94392  0.43850  Biso   1.000  C
  C55      1.0000 0.72274  0.27946  0.43850  Biso   1.000  C
  C56      1.0000 0.77661  0.38720  0.06150  Biso   1.000  C
  C57      1.0000 0.38941  0.44328  0.60517  Biso   1.000  C
  C58      1.0000 0.05387  0.61059  0.60517  Biso   1.000  C
  C59      1.0000 0.77661  0.72274  0.22816  Biso   1.000  C
  C60      1.0000 0.94392  0.38720  0.22816  Biso   1.000  C
  C61      1.0000 0.72274  0.77661  0.27184  Biso   1.000  C
  C62      1.0000 0.38720  0.94392  0.27184  Biso   1.000  C
  C63      1.0000 0.94613  0.55672  0.89483  Biso   1.000  C
  C64      1.0000 0.44328  0.38941  0.89483  Biso   1.000  C
  C65      1.0000 0.61059  0.05387  0.89483  Biso   1.000  C
  C66      1.0000 0.55672  0.94613  0.60517  Biso   1.000  C
  C67      1.0000 0.27946  0.89005  0.22816  Biso   1.000  C
  C68      1.0000 0.89005  0.27946  0.27184  Biso   1.000  C
  C69      1.0000 0.61059  0.55672  0.39483  Biso   1.000  C
  C70      1.0000 0.94613  0.38941  0.39483  Biso   1.000  C
  C71      1.0000 0.94392  0.89005  0.06150  Biso   1.000  C
  C72      1.0000 0.27946  0.72274  0.06150  Biso   1.000  C
  C73      1.0000 0.98515  0.42842  0.10625  Biso   1.000  C
  C74      1.0000 0.57158  0.55673  0.10625  Biso   1.000  C
  C75      1.0000 0.44327  0.01485  0.10625  Biso   1.000  C
  C76      1.0000 0.42842  0.98515  0.39375  Biso   1.000  C
  C77      1.0000 0.31848  0.76175  0.43958  Biso   1.000  C
  C78      1.0000 0.90491  0.89006  0.43958  Biso   1.000  C
  C79      1.0000 0.77660  0.34818  0.43958  Biso   1.000  C
  C80      1.0000 0.76175  0.31848  0.06042  Biso   1.000  C
  C81      1.0000 0.44327  0.42842  0.60625  Biso   1.000  C
  C82      1.0000 0.98515  0.55673  0.60625  Biso   1.000  C
  C83      1.0000 0.76175  0.77660  0.22708  Biso   1.000  C
  C84      1.0000 0.89006  0.31848  0.22708  Biso   1.000  C
  C85      1.0000 0.77660  0.76175  0.27292  Biso   1.000  C
  C86      1.0000 0.31848  0.89006  0.27292  Biso   1.000  C
  C87      1.0000 0.01485  0.57158  0.89375  Biso   1.000  C
  C88      1.0000 0.42842  0.44327  0.89375  Biso   1.000  C
  C89      1.0000 0.55673  0.98515  0.89375  Biso   1.000  C
  C90      1.0000 0.57158  0.01485  0.60625  Biso   1.000  C
  C91      1.0000 0.34818  0.90491  0.22708  Biso   1.000  C
  C92      1.0000 0.90491  0.34818  0.27292  Biso   1.000  C
  C93      1.0000 0.55673  0.57158  0.39375  Biso   1.000  C
  C94      1.0000 0.01485  0.44327  0.39375  Biso   1.000  C
  C95      1.0000 0.89006  0.90491  0.06042  Biso   1.000  C
  C96      1.0000 0.34818  0.77660  0.06042  Biso   1.000  C
  C97      1.0000 0.94125  0.39673  0.15937  Biso   1.000  C
  C98      1.0000 0.60327  0.54452  0.15937  Biso   1.000  C
  C99      1.0000 0.45548  0.05875  0.15937  Biso   1.000  C
  C100     1.0000 0.39673  0.94125  0.34063  Biso   1.000  C
  C101     1.0000 0.27458  0.73006  0.49270  Biso   1.000  C
  C102     1.0000 0.93660  0.87785  0.49270  Biso   1.000  C
  C103     1.0000 0.78881  0.39208  0.49270  Biso   1.000  C
  C104     1.0000 0.73006  0.27458  0.00730  Biso   1.000  C
  C105     1.0000 0.45548  0.39673  0.65937  Biso   1.000  C
  C106     1.0000 0.94125  0.54452  0.65937  Biso   1.000  C
  C107     1.0000 0.73006  0.78881  0.17396  Biso   1.000  C
  C108     1.0000 0.87785  0.27458  0.17396  Biso   1.000  C
  C109     1.0000 0.78881  0.73006  0.32604  Biso   1.000  C
  C110     1.0000 0.27458  0.87785  0.32604  Biso   1.000  C
  C111     1.0000 0.05875  0.60327  0.84063  Biso   1.000  C
  C112     1.0000 0.39673  0.45548  0.84063  Biso   1.000  C
  C113     1.0000 0.54452  0.94125  0.84063  Biso   1.000  C
  C114     1.0000 0.60327  0.05875  0.65937  Biso   1.000  C
  C115     1.0000 0.39208  0.93660  0.17396  Biso   1.000  C
  C116     1.0000 0.93660  0.39208  0.32604  Biso   1.000  C
  C117     1.0000 0.54452  0.60327  0.34063  Biso   1.000  C
  C118     1.0000 0.05875  0.45548  0.34063  Biso   1.000  C
  C119     1.0000 0.87785  0.93660  0.00730  Biso   1.000  C
  C120     1.0000 0.39208  0.78881  0.00730  Biso   1.000  C
  H73      1.0000 0.90480  0.40820  0.16030  Biso   1.000  H
  H74      1.0000 0.59180  0.49660  0.16030  Biso   1.000  H
  H75      1.0000 0.50340  0.09520  0.16030  Biso   1.000  H
  H76      1.0000 0.40820  0.90480  0.33970  Biso   1.000  H
  H77      1.0000 0.23813  0.74153  0.49363  Biso   1.000  H
  H78      1.0000 0.92513  0.82993  0.49363  Biso   1.000  H
  H79      1.0000 0.83673  0.42853  0.49363  Biso   1.000  H
  H80      1.0000 0.74153  0.23813  0.00637  Biso   1.000  H
  H81      1.0000 0.50340  0.40820  0.66030  Biso   1.000  H
  H82      1.0000 0.90480  0.49660  0.66030  Biso   1.000  H
  H83      1.0000 0.74153  0.83673  0.17303  Biso   1.000  H
  H84      1.0000 0.82993  0.23813  0.17303  Biso   1.000  H
  H85      1.0000 0.83673  0.74153  0.32697  Biso   1.000  H
  H86      1.0000 0.23813  0.82993  0.32697  Biso   1.000  H
  H87      1.0000 0.09520  0.59180  0.83970  Biso   1.000  H
  H88      1.0000 0.40820  0.50340  0.83970  Biso   1.000  H
  H89      1.0000 0.49660  0.90480  0.83970  Biso   1.000  H
  H90      1.0000 0.59180  0.09520  0.66030  Biso   1.000  H
  H91      1.0000 0.42853  0.92513  0.17303  Biso   1.000  H
  H92      1.0000 0.92513  0.42853  0.32697  Biso   1.000  H
  H93      1.0000 0.49660  0.59180  0.33970  Biso   1.000  H
  H94      1.0000 0.09520  0.50340  0.33970  Biso   1.000  H
  H95      1.0000 0.82993  0.92513  0.00637  Biso   1.000  H
  H96      1.0000 0.42853  0.83673  0.00637  Biso   1.000  H
  H97      1.0000 0.96940  0.41450  0.19450  Biso   1.000  H
  H98      1.0000 0.58550  0.55490  0.19450  Biso   1.000  H
  H99      1.0000 0.44510  0.03060  0.19450  Biso   1.000  H
  H100     1.0000 0.41450  0.96940  0.30550  Biso   1.000  H
  H101     1.0000 0.30273  0.74783  0.52783  Biso   1.000  H
  H102     1.0000 0.91883  0.88823  0.52783  Biso   1.000  H
  H103     1.0000 0.77843  0.36393  0.52783  Biso   1.000  H
  H104     1.0000 0.74783  0.30273  0.97217  Biso   1.000  H
  H105     1.0000 0.44510  0.41450  0.69450  Biso   1.000  H
  H106     1.0000 0.96940  0.55490  0.69450  Biso   1.000  H
  H107     1.0000 0.74783  0.77843  0.13883  Biso   1.000  H
  H108     1.0000 0.88823  0.30273  0.13883  Biso   1.000  H
  H109     1.0000 0.77843  0.74783  0.36117  Biso   1.000  H
  H110     1.0000 0.30273  0.88823  0.36117  Biso   1.000  H
  H111     1.0000 0.03060  0.58550  0.80550  Biso   1.000  H
  H112     1.0000 0.41450  0.44510  0.80550  Biso   1.000  H
  H113     1.0000 0.55490  0.96940  0.80550  Biso   1.000  H
  H114     1.0000 0.58550  0.03060  0.69450  Biso   1.000  H
  H115     1.0000 0.36393  0.91883  0.13883  Biso   1.000  H
  H116     1.0000 0.91883  0.36393  0.36117  Biso   1.000  H
  H117     1.0000 0.55490  0.58550  0.30550  Biso   1.000  H
  H118     1.0000 0.03060  0.44510  0.30550  Biso   1.000  H
  H119     1.0000 0.88823  0.91883  0.97217  Biso   1.000  H
  H120     1.0000 0.36393  0.77843  0.97217  Biso   1.000  H
  H121     1.0000 0.92110  0.34700  0.15780  Biso   1.000  H
  H122     1.0000 0.65300  0.57410  0.15780  Biso   1.000  H
  H123     1.0000 0.42590  0.07890  0.15780  Biso   1.000  H
  H124     1.0000 0.34700  0.92110  0.34220  Biso   1.000  H
  H125     1.0000 0.25443  0.68033  0.49113  Biso   1.000  H
  H126     1.0000 0.98633  0.90743  0.49113  Biso   1.000  H
  H127     1.0000 0.75923  0.41223  0.49113  Biso   1.000  H
  H128     1.0000 0.68033  0.25443  0.00887  Biso   1.000  H
  H129     1.0000 0.42590  0.34700  0.65780  Biso   1.000  H
  H130     1.0000 0.92110  0.57410  0.65780  Biso   1.000  H
  H131     1.0000 0.68033  0.75923  0.17553  Biso   1.000  H
  H132     1.0000 0.90743  0.25443  0.17553  Biso   1.000  H
  H133     1.0000 0.75923  0.68033  0.32447  Biso   1.000  H
  H134     1.0000 0.25443  0.90743  0.32447  Biso   1.000  H
  H135     1.0000 0.07890  0.65300  0.84220  Biso   1.000  H
  H136     1.0000 0.34700  0.42590  0.84220  Biso   1.000  H
  H137     1.0000 0.57410  0.92110  0.84220  Biso   1.000  H
  H138     1.0000 0.65300  0.07890  0.65780  Biso   1.000  H
  H139     1.0000 0.41223  0.98633  0.17553  Biso   1.000  H
  H140     1.0000 0.98633  0.41223  0.32447  Biso   1.000  H
  H141     1.0000 0.57410  0.65300  0.34220  Biso   1.000  H
  H142     1.0000 0.07890  0.42590  0.34220  Biso   1.000  H
  H143     1.0000 0.90743  0.98633  0.00887  Biso   1.000  H
  H144     1.0000 0.41223  0.75923  0.00887  Biso   1.000  H
  C121     1.0000 0.08114  0.42426  0.15685  Biso   1.000  C
  C122     1.0000 0.57574  0.65688  0.15685  Biso   1.000  C
  C123     1.0000 0.34312  0.91886  0.15685  Biso   1.000  C
  C124     1.0000 0.42426  0.08114  0.34315  Biso   1.000  C
  C125     1.0000 0.41447  0.75759  0.49018  Biso   1.000  C
  C126     1.0000 0.90907  0.99021  0.49018  Biso   1.000  C
  C127     1.0000 0.67645  0.25219  0.49018  Biso   1.000  C
  C128     1.0000 0.75759  0.41447  0.00982  Biso   1.000  C
  C129     1.0000 0.34312  0.42426  0.65685  Biso   1.000  C
  C130     1.0000 0.08114  0.65688  0.65685  Biso   1.000  C
  C131     1.0000 0.75759  0.67645  0.17648  Biso   1.000  C
  C132     1.0000 0.99021  0.41447  0.17648  Biso   1.000  C
  C133     1.0000 0.67645  0.75759  0.32352  Biso   1.000  C
  C134     1.0000 0.41447  0.99021  0.32352  Biso   1.000  C
  C135     1.0000 0.91886  0.57574  0.84315  Biso   1.000  C
  C136     1.0000 0.42426  0.34312  0.84315  Biso   1.000  C
  C137     1.0000 0.65688  0.08114  0.84315  Biso   1.000  C
  C138     1.0000 0.57574  0.91886  0.65685  Biso   1.000  C
  C139     1.0000 0.25219  0.90907  0.17648  Biso   1.000  C
  C140     1.0000 0.90907  0.25219  0.32352  Biso   1.000  C
  C141     1.0000 0.65688  0.57574  0.34315  Biso   1.000  C
  C142     1.0000 0.91886  0.34312  0.34315  Biso   1.000  C
  C143     1.0000 0.99021  0.90907  0.00982  Biso   1.000  C
  C144     1.0000 0.25219  0.67645  0.00982  Biso   1.000  C
  C145     1.0000 0.05480  0.35604  0.17235  Biso   1.000  C
  C146     1.0000 0.64396  0.69876  0.17235  Biso   1.000  C
  C147     1.0000 0.30124  0.94520  0.17235  Biso   1.000  C
  C148     1.0000 0.35604  0.05480  0.32765  Biso   1.000  C
  C149     1.0000 0.38813  0.68937  0.50568  Biso   1.000  C
  C150     1.0000 0.97729  0.03209  0.50568  Biso   1.000  C
  C151     1.0000 0.63457  0.27853  0.50568  Biso   1.000  C
  C152     1.0000 0.68937  0.38813  0.99432  Biso   1.000  C
  C153     1.0000 0.30124  0.35604  0.67235  Biso   1.000  C
  C154     1.0000 0.05480  0.69876  0.67235  Biso   1.000  C
  C155     1.0000 0.68937  0.63457  0.16098  Biso   1.000  C
  C156     1.0000 0.03209  0.38813  0.16098  Biso   1.000  C
  C157     1.0000 0.63457  0.68937  0.33902  Biso   1.000  C
  C158     1.0000 0.38813  0.03209  0.33902  Biso   1.000  C
  C159     1.0000 0.94520  0.64396  0.82765  Biso   1.000  C
  C160     1.0000 0.35604  0.30124  0.82765  Biso   1.000  C
  C161     1.0000 0.69876  0.05480  0.82765  Biso   1.000  C
  C162     1.0000 0.64396  0.94520  0.67235  Biso   1.000  C
  C163     1.0000 0.27853  0.97729  0.16098  Biso   1.000  C
  C164     1.0000 0.97729  0.27853  0.33902  Biso   1.000  C
  C165     1.0000 0.69876  0.64396  0.32765  Biso   1.000  C
  C166     1.0000 0.94520  0.30124  0.32765  Biso   1.000  C
  C167     1.0000 0.03209  0.97729  0.99432  Biso   1.000  C
  C168     1.0000 0.27853  0.63457  0.99432  Biso   1.000  C
  H145     1.0000 0.01920  0.32100  0.14990  Biso   1.000  H
  H146     1.0000 0.67900  0.69820  0.14990  Biso   1.000  H
  H147     1.0000 0.30180  0.98080  0.14990  Biso   1.000  H
  H148     1.0000 0.32100  0.01920  0.35010  Biso   1.000  H
  H149     1.0000 0.35253  0.65433  0.48323  Biso   1.000  H
  H150     1.0000 0.01233  0.03153  0.48323  Biso   1.000  H
  H151     1.0000 0.63513  0.31413  0.48323  Biso   1.000  H
  H152     1.0000 0.65433  0.35253  0.01677  Biso   1.000  H
  H153     1.0000 0.30180  0.32100  0.64990  Biso   1.000  H
  H154     1.0000 0.01920  0.69820  0.64990  Biso   1.000  H
  H155     1.0000 0.65433  0.63513  0.18343  Biso   1.000  H
  H156     1.0000 0.03153  0.35253  0.18343  Biso   1.000  H
  H157     1.0000 0.63513  0.65433  0.31657  Biso   1.000  H
  H158     1.0000 0.35253  0.03153  0.31657  Biso   1.000  H
  H159     1.0000 0.98080  0.67900  0.85010  Biso   1.000  H
  H160     1.0000 0.32100  0.30180  0.85010  Biso   1.000  H
  H161     1.0000 0.69820  0.01920  0.85010  Biso   1.000  H
  H162     1.0000 0.67900  0.98080  0.64990  Biso   1.000  H
  H163     1.0000 0.31413  0.01233  0.18343  Biso   1.000  H
  H164     1.0000 0.01233  0.31413  0.31657  Biso   1.000  H
  H165     1.0000 0.69820  0.67900  0.35010  Biso   1.000  H
  H166     1.0000 0.98080  0.30180  0.35010  Biso   1.000  H
  H167     1.0000 0.03153  0.01233  0.01677  Biso   1.000  H
  H168     1.0000 0.31413  0.63513  0.01677  Biso   1.000  H
  C169     1.0000 0.08047  0.33917  0.22054  Biso   1.000  C
  C170     1.0000 0.66083  0.74130  0.22054  Biso   1.000  C
  C171     1.0000 0.25870  0.91953  0.22054  Biso   1.000  C
  C172     1.0000 0.33917  0.08047  0.27946  Biso   1.000  C
  C173     1.0000 0.41380  0.67250  0.55387  Biso   1.000  C
  C174     1.0000 0.99416  0.07463  0.55387  Biso   1.000  C
  C175     1.0000 0.59203  0.25286  0.55387  Biso   1.000  C
  C176     1.0000 0.67250  0.41380  0.94613  Biso   1.000  C
  C177     1.0000 0.25870  0.33917  0.72054  Biso   1.000  C
  C178     1.0000 0.08047  0.74130  0.72054  Biso   1.000  C
  C179     1.0000 0.67250  0.59203  0.11279  Biso   1.000  C
  C180     1.0000 0.07463  0.41380  0.11279  Biso   1.000  C
  C181     1.0000 0.59203  0.67250  0.38721  Biso   1.000  C
  C182     1.0000 0.41380  0.07463  0.38721  Biso   1.000  C
  C183     1.0000 0.91953  0.66083  0.77946  Biso   1.000  C
  C184     1.0000 0.33917  0.25870  0.77946  Biso   1.000  C
  C185     1.0000 0.74130  0.08047  0.77946  Biso   1.000  C
  C186     1.0000 0.66083  0.91953  0.72054  Biso   1.000  C
  C187     1.0000 0.25286  0.99416  0.11279  Biso   1.000  C
  C188     1.0000 0.99416  0.25286  0.38721  Biso   1.000  C
  C189     1.0000 0.74130  0.66083  0.27946  Biso   1.000  C
  C190     1.0000 0.91953  0.25870  0.27946  Biso   1.000  C
  C191     1.0000 0.07463  0.99416  0.94613  Biso   1.000  C
  C192     1.0000 0.25286  0.59203  0.94613  Biso   1.000  C
  H169     1.0000 0.06150  0.29230  0.23020  Biso   1.000  H
  H170     1.0000 0.70770  0.76920  0.23020  Biso   1.000  H
  H171     1.0000 0.23080  0.93850  0.23020  Biso   1.000  H
  H172     1.0000 0.29230  0.06150  0.26980  Biso   1.000  H
  H173     1.0000 0.39483  0.62563  0.56353  Biso   1.000  H
  H174     1.0000 0.04103  0.10253  0.56353  Biso   1.000  H
  H175     1.0000 0.56413  0.27183  0.56353  Biso   1.000  H
  H176     1.0000 0.62563  0.39483  0.93647  Biso   1.000  H
  H177     1.0000 0.23080  0.29230  0.73020  Biso   1.000  H
  H178     1.0000 0.06150  0.76920  0.73020  Biso   1.000  H
  H179     1.0000 0.62563  0.56413  0.10313  Biso   1.000  H
  H180     1.0000 0.10253  0.39483  0.10313  Biso   1.000  H
  H181     1.0000 0.56413  0.62563  0.39687  Biso   1.000  H
  H182     1.0000 0.39483  0.10253  0.39687  Biso   1.000  H
  H183     1.0000 0.93850  0.70770  0.76980  Biso   1.000  H
  H184     1.0000 0.29230  0.23080  0.76980  Biso   1.000  H
  H185     1.0000 0.76920  0.06150  0.76980  Biso   1.000  H
  H186     1.0000 0.70770  0.93850  0.73020  Biso   1.000  H
  H187     1.0000 0.27183  0.04103  0.10313  Biso   1.000  H
  H188     1.0000 0.04103  0.27183  0.39687  Biso   1.000  H
  H189     1.0000 0.76920  0.70770  0.26980  Biso   1.000  H
  H190     1.0000 0.93850  0.23080  0.26980  Biso   1.000  H
  H191     1.0000 0.10253  0.04103  0.93647  Biso   1.000  H
  H192     1.0000 0.27183  0.56413  0.93647  Biso   1.000  H
  C193     1.0000 0.15654  0.45141  0.23910  Biso   1.000  C
  C194     1.0000 0.54859  0.70513  0.23910  Biso   1.000  C
  C195     1.0000 0.29487  0.84346  0.23910  Biso   1.000  C
  C196     1.0000 0.45141  0.15654  0.26090  Biso   1.000  C
  C197     1.0000 0.48987  0.78474  0.57243  Biso   1.000  C
  C198     1.0000 0.88192  0.03846  0.57243  Biso   1.000  C
  C199     1.0000 0.62820  0.17679  0.57243  Biso   1.000  C
  C200     1.0000 0.78474  0.48987  0.92757  Biso   1.000  C
  C201     1.0000 0.29487  0.45141  0.73910  Biso   1.000  C
  C202     1.0000 0.15654  0.70513  0.73910  Biso   1.000  C
  C203     1.0000 0.78474  0.62820  0.09423  Biso   1.000  C
  C204     1.0000 0.03846  0.48987  0.09423  Biso   1.000  C
  C205     1.0000 0.62820  0.78474  0.40577  Biso   1.000  C
  C206     1.0000 0.48987  0.03846  0.40577  Biso   1.000  C
  C207     1.0000 0.84346  0.54859  0.76090  Biso   1.000  C
  C208     1.0000 0.45141  0.29487  0.76090  Biso   1.000  C
  C209     1.0000 0.70513  0.15654  0.76090  Biso   1.000  C
  C210     1.0000 0.54859  0.84346  0.73910  Biso   1.000  C
  C211     1.0000 0.17679  0.88192  0.09423  Biso   1.000  C
  C212     1.0000 0.88192  0.17679  0.40577  Biso   1.000  C
  C213     1.0000 0.70513  0.54859  0.26090  Biso   1.000  C
  C214     1.0000 0.84346  0.29487  0.26090  Biso   1.000  C
  C215     1.0000 0.03846  0.88192  0.92757  Biso   1.000  C
  C216     1.0000 0.17679  0.62820  0.92757  Biso   1.000  C
  H193     1.0000 0.19250  0.48520  0.26210  Biso   1.000  H
  H194     1.0000 0.51480  0.70730  0.26210  Biso   1.000  H
  H195     1.0000 0.29270  0.80750  0.26210  Biso   1.000  H
  H196     1.0000 0.48520  0.19250  0.23790  Biso   1.000  H
  H197     1.0000 0.52583  0.81853  0.59543  Biso   1.000  H
  H198     1.0000 0.84813  0.04063  0.59543  Biso   1.000  H
  H199     1.0000 0.62603  0.14083  0.59543  Biso   1.000  H
  H200     1.0000 0.81853  0.52583  0.90457  Biso   1.000  H
  H201     1.0000 0.29270  0.48520  0.76210  Biso   1.000  H
  H202     1.0000 0.19250  0.70730  0.76210  Biso   1.000  H
  H203     1.0000 0.81853  0.62603  0.07123  Biso   1.000  H
  H204     1.0000 0.04063  0.52583  0.07123  Biso   1.000  H
  H205     1.0000 0.62603  0.81853  0.42877  Biso   1.000  H
  H206     1.0000 0.52583  0.04063  0.42877  Biso   1.000  H
  H207     1.0000 0.80750  0.51480  0.73790  Biso   1.000  H
  H208     1.0000 0.48520  0.29270  0.73790  Biso   1.000  H
  H209     1.0000 0.70730  0.19250  0.73790  Biso   1.000  H
  H210     1.0000 0.51480  0.80750  0.76210  Biso   1.000  H
  H211     1.0000 0.14083  0.84813  0.07123  Biso   1.000  H
  H212     1.0000 0.84813  0.14083  0.42877  Biso   1.000  H
  H213     1.0000 0.70730  0.51480  0.23790  Biso   1.000  H
  H214     1.0000 0.80750  0.29270  0.23790  Biso   1.000  H
  H215     1.0000 0.04063  0.84813  0.90457  Biso   1.000  H
  H216     1.0000 0.14083  0.62603  0.90457  Biso   1.000  H
  C217     1.0000 0.13362  0.47285  0.19170  Biso   1.000  C
  C218     1.0000 0.52715  0.66077  0.19170  Biso   1.000  C
  C219     1.0000 0.33923  0.86638  0.19170  Biso   1.000  C
  C220     1.0000 0.47285  0.13362  0.30830  Biso   1.000  C
  C221     1.0000 0.46695  0.80618  0.52503  Biso   1.000  C
  C222     1.0000 0.86048  0.99410  0.52503  Biso   1.000  C
  C223     1.0000 0.67256  0.19971  0.52503  Biso   1.000  C
  C224     1.0000 0.80618  0.46695  0.97497  Biso   1.000  C
  C225     1.0000 0.33923  0.47285  0.69170  Biso   1.000  C
  C226     1.0000 0.13362  0.66077  0.69170  Biso   1.000  C
  C227     1.0000 0.80618  0.67256  0.14163  Biso   1.000  C
  C228     1.0000 0.99410  0.46695  0.14163  Biso   1.000  C
  C229     1.0000 0.67256  0.80618  0.35837  Biso   1.000  C
  C230     1.0000 0.46695  0.99410  0.35837  Biso   1.000  C
  C231     1.0000 0.86638  0.52715  0.80830  Biso   1.000  C
  C232     1.0000 0.47285  0.33923  0.80830  Biso   1.000  C
  C233     1.0000 0.66077  0.13362  0.80830  Biso   1.000  C
  C234     1.0000 0.52715  0.86638  0.69170  Biso   1.000  C
  C235     1.0000 0.19971  0.86048  0.14163  Biso   1.000  C
  C236     1.0000 0.86048  0.19971  0.35837  Biso   1.000  C
  C237     1.0000 0.66077  0.52715  0.30830  Biso   1.000  C
  C238     1.0000 0.86638  0.33923  0.30830  Biso   1.000  C
  C239     1.0000 0.99410  0.86048  0.97497  Biso   1.000  C
  C240     1.0000 0.19971  0.67256  0.97497  Biso   1.000  C
  H217     1.0000 0.15350  0.52010  0.18310  Biso   1.000  H
  H218     1.0000 0.47990  0.63340  0.18310  Biso   1.000  H
  H219     1.0000 0.36660  0.84650  0.18310  Biso   1.000  H
  H220     1.0000 0.52010  0.15350  0.31690  Biso   1.000  H
  H221     1.0000 0.48683  0.85343  0.51643  Biso   1.000  H
  H222     1.0000 0.81323  0.96673  0.51643  Biso   1.000  H
  H223     1.0000 0.69993  0.17983  0.51643  Biso   1.000  H
  H224     1.0000 0.85343  0.48683  0.98357  Biso   1.000  H
  H225     1.0000 0.36660  0.52010  0.68310  Biso   1.000  H
  H226     1.0000 0.15350  0.63340  0.68310  Biso   1.000  H
  H227     1.0000 0.85343  0.69993  0.15023  Biso   1.000  H
  H228     1.0000 0.96673  0.48683  0.15023  Biso   1.000  H
  H229     1.0000 0.69993  0.85343  0.34977  Biso   1.000  H
  H230     1.0000 0.48683  0.96673  0.34977  Biso   1.000  H
  H231     1.0000 0.84650  0.47990  0.81690  Biso   1.000  H
  H232     1.0000 0.52010  0.36660  0.81690  Biso   1.000  H
  H233     1.0000 0.63340  0.15350  0.81690  Biso   1.000  H
  H234     1.0000 0.47990  0.84650  0.68310  Biso   1.000  H
  H235     1.0000 0.17983  0.81323  0.15023  Biso   1.000  H
  H236     1.0000 0.81323  0.17983  0.34977  Biso   1.000  H
  H237     1.0000 0.63340  0.47990  0.31690  Biso   1.000  H
  H238     1.0000 0.84650  0.36660  0.31690  Biso   1.000  H
  H239     1.0000 0.96673  0.81323  0.98357  Biso   1.000  H
  H240     1.0000 0.17983  0.69993  0.98357  Biso   1.000  H
  O49      1.0000 0.19190  0.57470  0.92540  Biso   1.000  O
  O50      1.0000 0.42530  0.61720  0.92540  Biso   1.000  O
  O51      1.0000 0.38280  0.80810  0.92540  Biso   1.000  O
  O52      1.0000 0.57470  0.19190  0.57460  Biso   1.000  O
  O53      1.0000 0.52523  0.90803  0.25873  Biso   1.000  O
  O54      1.0000 0.75863  0.95053  0.25873  Biso   1.000  O
  O55      1.0000 0.71613  0.14143  0.25873  Biso   1.000  O
  O56      1.0000 0.90803  0.52523  0.24127  Biso   1.000  O
  O57      1.0000 0.38280  0.57470  0.42540  Biso   1.000  O
  O58      1.0000 0.19190  0.61720  0.42540  Biso   1.000  O
  O59      1.0000 0.90803  0.71613  0.40793  Biso   1.000  O
  O60      1.0000 0.95053  0.52523  0.40793  Biso   1.000  O
  O61      1.0000 0.71613  0.90803  0.09207  Biso   1.000  O
  O62      1.0000 0.52523  0.95053  0.09207  Biso   1.000  O
  O63      1.0000 0.80810  0.42530  0.07460  Biso   1.000  O
  O64      1.0000 0.57470  0.38280  0.07460  Biso   1.000  O
  O65      1.0000 0.61720  0.19190  0.07460  Biso   1.000  O
  O66      1.0000 0.42530  0.80810  0.42540  Biso   1.000  O
  O67      1.0000 0.14143  0.75863  0.40793  Biso   1.000  O
  O68      1.0000 0.75863  0.14143  0.09207  Biso   1.000  O
  O69      1.0000 0.61720  0.42530  0.57460  Biso   1.000  O
  O70      1.0000 0.80810  0.38280  0.57460  Biso   1.000  O
  O71      1.0000 0.95053  0.75863  0.24127  Biso   1.000  O
  O72      1.0000 0.14143  0.71613  0.24127  Biso   1.000  O
  C241     1.0000 0.20670  0.61170  0.97440  Biso   1.000  C
  C242     1.0000 0.38830  0.59500  0.97440  Biso   1.000  C
  C243     1.0000 0.40500  0.79330  0.97440  Biso   1.000  C
  C244     1.0000 0.61170  0.20670  0.52560  Biso   1.000  C
  C245     1.0000 0.54003  0.94503  0.30773  Biso   1.000  C
  C246     1.0000 0.72163  0.92833  0.30773  Biso   1.000  C
  C247     1.0000 0.73833  0.12663  0.30773  Biso   1.000  C
  C248     1.0000 0.94503  0.54003  0.19227  Biso   1.000  C
  C249     1.0000 0.40500  0.61170  0.47440  Biso   1.000  C
  C250     1.0000 0.20670  0.59500  0.47440  Biso   1.000  C
  C251     1.0000 0.94503  0.73833  0.35893  Biso   1.000  C
  C252     1.0000 0.92833  0.54003  0.35893  Biso   1.000  C
  C253     1.0000 0.73833  0.94503  0.14107  Biso   1.000  C
  C254     1.0000 0.54003  0.92833  0.14107  Biso   1.000  C
  C255     1.0000 0.79330  0.38830  0.02560  Biso   1.000  C
  C256     1.0000 0.61170  0.40500  0.02560  Biso   1.000  C
  C257     1.0000 0.59500  0.20670  0.02560  Biso   1.000  C
  C258     1.0000 0.38830  0.79330  0.47440  Biso   1.000  C
  C259     1.0000 0.12663  0.72163  0.35893  Biso   1.000  C
  C260     1.0000 0.72163  0.12663  0.14107  Biso   1.000  C
  C261     1.0000 0.59500  0.38830  0.52560  Biso   1.000  C
  C262     1.0000 0.79330  0.40500  0.52560  Biso   1.000  C
  C263     1.0000 0.92833  0.72163  0.19227  Biso   1.000  C
  C264     1.0000 0.12663  0.73833  0.19227  Biso   1.000  C
  C265     1.0000 0.25160  0.67370  0.00160  Biso   1.000  C
  C266     1.0000 0.32630  0.57790  0.00160  Biso   1.000  C
  C267     1.0000 0.42210  0.74840  0.00160  Biso   1.000  C
  C268     1.0000 0.67370  0.25160  0.49840  Biso   1.000  C
  C269     1.0000 0.58493  0.00703  0.33493  Biso   1.000  C
  C270     1.0000 0.65963  0.91123  0.33493  Biso   1.000  C
  C271     1.0000 0.75543  0.08173  0.33493  Biso   1.000  C
  C272     1.0000 0.00703  0.58493  0.16507  Biso   1.000  C
  C273     1.0000 0.42210  0.67370  0.50160  Biso   1.000  C
  C274     1.0000 0.25160  0.57790  0.50160  Biso   1.000  C
  C275     1.0000 0.00703  0.75543  0.33173  Biso   1.000  C
  C276     1.0000 0.91123  0.58493  0.33173  Biso   1.000  C
  C277     1.0000 0.75543  0.00703  0.16827  Biso   1.000  C
  C278     1.0000 0.58493  0.91123  0.16827  Biso   1.000  C
  C279     1.0000 0.74840  0.32630  0.99840  Biso   1.000  C
  C280     1.0000 0.67370  0.42210  0.99840  Biso   1.000  C
  C281     1.0000 0.57790  0.25160  0.99840  Biso   1.000  C
  C282     1.0000 0.32630  0.74840  0.50160  Biso   1.000  C
  C283     1.0000 0.08173  0.65963  0.33173  Biso   1.000  C
  C284     1.0000 0.65963  0.08173  0.16827  Biso   1.000  C
  C285     1.0000 0.57790  0.32630  0.49840  Biso   1.000  C
  C286     1.0000 0.74840  0.42210  0.49840  Biso   1.000  C
  C287     1.0000 0.91123  0.65963  0.16507  Biso   1.000  C
  C288     1.0000 0.08173  0.75543  0.16507  Biso   1.000  C
  O73      1.0000 0.19190  0.61280  0.93500  Biso   1.000  O
  O74      1.0000 0.38720  0.57910  0.93500  Biso   1.000  O
  O75      1.0000 0.42090  0.80810  0.93500  Biso   1.000  O
  O76      1.0000 0.61280  0.19190  0.56500  Biso   1.000  O
  O77      1.0000 0.52523  0.94613  0.26833  Biso   1.000  O
  O78      1.0000 0.72053  0.91243  0.26833  Biso   1.000  O
  O79      1.0000 0.75423  0.14143  0.26833  Biso   1.000  O
  O80      1.0000 0.94613  0.52523  0.23167  Biso   1.000  O
  O81      1.0000 0.42090  0.61280  0.43500  Biso   1.000  O
  O82      1.0000 0.19190  0.57910  0.43500  Biso   1.000  O
  O83      1.0000 0.94613  0.75423  0.39833  Biso   1.000  O
  O84      1.0000 0.91243  0.52523  0.39833  Biso   1.000  O
  O85      1.0000 0.75423  0.94613  0.10167  Biso   1.000  O
  O86      1.0000 0.52523  0.91243  0.10167  Biso   1.000  O
  O87      1.0000 0.80810  0.38720  0.06500  Biso   1.000  O
  O88      1.0000 0.61280  0.42090  0.06500  Biso   1.000  O
  O89      1.0000 0.57910  0.19190  0.06500  Biso   1.000  O
  O90      1.0000 0.38720  0.80810  0.43500  Biso   1.000  O
  O91      1.0000 0.14143  0.72053  0.39833  Biso   1.000  O
  O92      1.0000 0.72053  0.14143  0.10167  Biso   1.000  O
  O93      1.0000 0.57910  0.38720  0.56500  Biso   1.000  O
  O94      1.0000 0.80810  0.42090  0.56500  Biso   1.000  O
  O95      1.0000 0.91243  0.72053  0.23167  Biso   1.000  O
  O96      1.0000 0.14143  0.75423  0.23167  Biso   1.000  O
  O97      1.0000 0.29330  0.67850  0.01780  Biso   1.000  O
  O98      1.0000 0.32150  0.61480  0.01780  Biso   1.000  O
  O99      1.0000 0.38520  0.70670  0.01780  Biso   1.000  O
  O100     1.0000 0.67850  0.29330  0.48220  Biso   1.000  O
  O101     1.0000 0.62663  0.01183  0.35113  Biso   1.000  O
  O102     1.0000 0.65483  0.94813  0.35113  Biso   1.000  O
  O103     1.0000 0.71853  0.04003  0.35113  Biso   1.000  O
  O104     1.0000 0.01183  0.62663  0.14887  Biso   1.000  O
  O105     1.0000 0.38520  0.67850  0.51780  Biso   1.000  O
  O106     1.0000 0.29330  0.61480  0.51780  Biso   1.000  O
  O107     1.0000 0.01183  0.71853  0.31553  Biso   1.000  O
  O108     1.0000 0.94813  0.62663  0.31553  Biso   1.000  O
  O109     1.0000 0.71853  0.01183  0.18447  Biso   1.000  O
  O110     1.0000 0.62663  0.94813  0.18447  Biso   1.000  O
  O111     1.0000 0.70670  0.32150  0.98220  Biso   1.000  O
  O112     1.0000 0.67850  0.38520  0.98220  Biso   1.000  O
  O113     1.0000 0.61480  0.29330  0.98220  Biso   1.000  O
  O114     1.0000 0.32150  0.70670  0.51780  Biso   1.000  O
  O115     1.0000 0.04003  0.65483  0.31553  Biso   1.000  O
  O116     1.0000 0.65483  0.04003  0.18447  Biso   1.000  O
  O117     1.0000 0.61480  0.32150  0.48220  Biso   1.000  O
  O118     1.0000 0.70670  0.38520  0.48220  Biso   1.000  O
  O119     1.0000 0.94813  0.65483  0.14887  Biso   1.000  O
  O120     1.0000 0.04003  0.71853  0.14887  Biso   1.000  O
  O121     1.0000 0.00000  0.00000  0.00000  Biso   1.000  O
  O122     1.0000 0.00000  0.00000  0.50000  Biso   1.000  O
  O123     1.0000 0.33333  0.33333  0.33333  Biso   1.000  O
  O124     1.0000 0.33333  0.33333  0.16667  Biso   1.000  O
  O125     1.0000 0.15569  0.74294  0.32440  Biso   1.000  O
  O126     1.0000 0.25706  0.41274  0.32440  Biso   1.000  O
  O127     1.0000 0.58726  0.84431  0.32440  Biso   1.000  O
  O128     1.0000 0.74294  0.15569  0.17560  Biso   1.000  O
  O129     1.0000 0.48902  0.07628  0.65774  Biso   1.000  O
  O130     1.0000 0.59039  0.74608  0.65774  Biso   1.000  O
  O131     1.0000 0.92059  0.17765  0.65774  Biso   1.000  O
  O132     1.0000 0.07628  0.48902  0.84226  Biso   1.000  O
  O133     1.0000 0.58726  0.74294  0.82440  Biso   1.000  O
  O134     1.0000 0.15569  0.41274  0.82440  Biso   1.000  O
  O135     1.0000 0.07628  0.92059  0.00893  Biso   1.000  O
  O136     1.0000 0.74608  0.48902  0.00893  Biso   1.000  O
  O137     1.0000 0.92059  0.07628  0.49107  Biso   1.000  O
  O138     1.0000 0.48902  0.74608  0.49107  Biso   1.000  O
  O139     1.0000 0.84431  0.25706  0.67560  Biso   1.000  O
  O140     1.0000 0.74294  0.58726  0.67560  Biso   1.000  O
  O141     1.0000 0.41274  0.15569  0.67560  Biso   1.000  O
  O142     1.0000 0.25706  0.84431  0.82440  Biso   1.000  O
  O143     1.0000 0.17765  0.59039  0.00893  Biso   1.000  O
  O144     1.0000 0.59039  0.17765  0.49107  Biso   1.000  O
  O145     1.0000 0.41274  0.25706  0.17560  Biso   1.000  O
  O146     1.0000 0.84431  0.58726  0.17560  Biso   1.000  O
  O147     1.0000 0.74608  0.59039  0.84226  Biso   1.000  O
  O148     1.0000 0.17765  0.92059  0.84226  Biso   1.000  O
  O149     1.0000 0.10577  0.81782  0.26892  Biso   1.000  O
  O150     1.0000 0.18218  0.28794  0.26892  Biso   1.000  O
  O151     1.0000 0.71206  0.89423  0.26892  Biso   1.000  O
  O152     1.0000 0.81782  0.10577  0.23108  Biso   1.000  O
  O153     1.0000 0.43910  0.15116  0.60226  Biso   1.000  O
  O154     1.0000 0.51551  0.62128  0.60226  Biso   1.000  O
  O155     1.0000 0.04539  0.22757  0.60226  Biso   1.000  O
  O156     1.0000 0.15116  0.43910  0.89774  Biso   1.000  O
  O157     1.0000 0.71206  0.81782  0.76892  Biso   1.000  O
  O158     1.0000 0.10577  0.28794  0.76892  Biso   1.000  O
  O159     1.0000 0.15116  0.04539  0.06441  Biso   1.000  O
  O160     1.0000 0.62128  0.43910  0.06441  Biso   1.000  O
  O161     1.0000 0.04539  0.15116  0.43559  Biso   1.000  O
  O162     1.0000 0.43910  0.62128  0.43559  Biso   1.000  O
  O163     1.0000 0.89423  0.18218  0.73108  Biso   1.000  O
  O164     1.0000 0.81782  0.71206  0.73108  Biso   1.000  O
  O165     1.0000 0.28794  0.10577  0.73108  Biso   1.000  O
  O166     1.0000 0.18218  0.89423  0.76892  Biso   1.000  O
  O167     1.0000 0.22757  0.51551  0.06441  Biso   1.000  O
  O168     1.0000 0.51551  0.22757  0.43559  Biso   1.000  O
  O169     1.0000 0.28794  0.18218  0.23108  Biso   1.000  O
  O170     1.0000 0.89423  0.71206  0.23108  Biso   1.000  O
  O171     1.0000 0.62128  0.51551  0.89774  Biso   1.000  O
  O172     1.0000 0.22757  0.04539  0.89774  Biso   1.000  O
  N25      1.0000 0.05238  0.58831  0.07916  Biso   1.000  N
  N26      1.0000 0.41169  0.46406  0.07916  Biso   1.000  N
  N27      1.0000 0.53594  0.94762  0.07916  Biso   1.000  N
  N28      1.0000 0.58831  0.05238  0.42084  Biso   1.000  N
  N29      1.0000 0.38571  0.92165  0.41250  Biso   1.000  N
  N30      1.0000 0.74502  0.79740  0.41250  Biso   1.000  N
  N31      1.0000 0.86927  0.28096  0.41250  Biso   1.000  N
  N32      1.0000 0.92165  0.38571  0.08750  Biso   1.000  N
  N33      1.0000 0.53594  0.58831  0.57916  Biso   1.000  N
  N34      1.0000 0.05238  0.46406  0.57916  Biso   1.000  N
  N35      1.0000 0.92165  0.86927  0.25417  Biso   1.000  N
  N36      1.0000 0.79740  0.38571  0.25417  Biso   1.000  N
  N37      1.0000 0.86927  0.92165  0.24583  Biso   1.000  N
  N38      1.0000 0.38571  0.79740  0.24583  Biso   1.000  N
  N39      1.0000 0.94762  0.41169  0.92084  Biso   1.000  N
  N40      1.0000 0.58831  0.53594  0.92084  Biso   1.000  N
  N41      1.0000 0.46406  0.05238  0.92084  Biso   1.000  N
  N42      1.0000 0.41169  0.94762  0.57916  Biso   1.000  N
  N43      1.0000 0.28096  0.74502  0.25417  Biso   1.000  N
  N44      1.0000 0.74502  0.28096  0.24583  Biso   1.000  N
  N45      1.0000 0.46406  0.41169  0.42084  Biso   1.000  N
  N46      1.0000 0.94762  0.53594  0.42084  Biso   1.000  N
  N47      1.0000 0.79740  0.74502  0.08750  Biso   1.000  N
  N48      1.0000 0.28096  0.86927  0.08750  Biso   1.000  N
  C289     1.0000 0.14549  0.64554  0.27837  Biso   1.000  C
  C290     1.0000 0.35446  0.49994  0.27837  Biso   1.000  C
  C291     1.0000 0.50006  0.85451  0.27837  Biso   1.000  C
  C292     1.0000 0.64554  0.14549  0.22163  Biso   1.000  C
  C293     1.0000 0.47882  0.97888  0.61171  Biso   1.000  C
  C294     1.0000 0.68779  0.83328  0.61171  Biso   1.000  C
  C295     1.0000 0.83339  0.18785  0.61171  Biso   1.000  C
  C296     1.0000 0.97888  0.47882  0.88829  Biso   1.000  C
  C297     1.0000 0.50006  0.64554  0.77837  Biso   1.000  C
  C298     1.0000 0.14549  0.49994  0.77837  Biso   1.000  C
  C299     1.0000 0.97888  0.83339  0.05496  Biso   1.000  C
  C300     1.0000 0.83328  0.47882  0.05496  Biso   1.000  C
  C301     1.0000 0.83339  0.97888  0.44504  Biso   1.000  C
  C302     1.0000 0.47882  0.83328  0.44504  Biso   1.000  C
  C303     1.0000 0.85451  0.35446  0.72163  Biso   1.000  C
  C304     1.0000 0.64554  0.50006  0.72163  Biso   1.000  C
  C305     1.0000 0.49994  0.14549  0.72163  Biso   1.000  C
  C306     1.0000 0.35446  0.85451  0.77837  Biso   1.000  C
  C307     1.0000 0.18785  0.68779  0.05496  Biso   1.000  C
  C308     1.0000 0.68779  0.18785  0.44504  Biso   1.000  C
  C309     1.0000 0.49994  0.35446  0.22163  Biso   1.000  C
  C310     1.0000 0.85451  0.50006  0.22163  Biso   1.000  C
  C311     1.0000 0.83328  0.68779  0.88829  Biso   1.000  C
  C312     1.0000 0.18785  0.83339  0.88829  Biso   1.000  C
  H241     1.0000 0.14837  0.63323  0.31873  Biso   1.000  H
  H242     1.0000 0.36677  0.51514  0.31873  Biso   1.000  H
  H243     1.0000 0.48486  0.85163  0.31873  Biso   1.000  H
  H244     1.0000 0.63323  0.14837  0.18127  Biso   1.000  H
  H245     1.0000 0.48170  0.96656  0.65206  Biso   1.000  H
  H246     1.0000 0.70010  0.84847  0.65206  Biso   1.000  H
  H247     1.0000 0.81819  0.18496  0.65206  Biso   1.000  H
  H248     1.0000 0.96656  0.48170  0.84794  Biso   1.000  H
  H249     1.0000 0.48486  0.63323  0.81873  Biso   1.000  H
  H250     1.0000 0.14837  0.51514  0.81873  Biso   1.000  H
  H251     1.0000 0.96656  0.81819  0.01460  Biso   1.000  H
  H252     1.0000 0.84847  0.48170  0.01460  Biso   1.000  H
  H253     1.0000 0.81819  0.96656  0.48540  Biso   1.000  H
  H254     1.0000 0.48170  0.84847  0.48540  Biso   1.000  H
  H255     1.0000 0.85163  0.36677  0.68127  Biso   1.000  H
  H256     1.0000 0.63323  0.48486  0.68127  Biso   1.000  H
  H257     1.0000 0.51514  0.14837  0.68127  Biso   1.000  H
  H258     1.0000 0.36677  0.85163  0.81873  Biso   1.000  H
  H259     1.0000 0.18496  0.70010  0.01460  Biso   1.000  H
  H260     1.0000 0.70010  0.18496  0.48540  Biso   1.000  H
  H261     1.0000 0.51514  0.36677  0.18127  Biso   1.000  H
  H262     1.0000 0.85163  0.48486  0.18127  Biso   1.000  H
  H263     1.0000 0.84847  0.70010  0.84794  Biso   1.000  H
  H264     1.0000 0.18496  0.81819  0.84794  Biso   1.000  H
  H265     1.0000 0.10597  0.60753  0.25933  Biso   1.000  H
  H266     1.0000 0.39247  0.49844  0.25933  Biso   1.000  H
  H267     1.0000 0.50156  0.89403  0.25933  Biso   1.000  H
  H268     1.0000 0.60753  0.10597  0.24067  Biso   1.000  H
  H269     1.0000 0.43930  0.94086  0.59266  Biso   1.000  H
  H270     1.0000 0.72580  0.83177  0.59266  Biso   1.000  H
  H271     1.0000 0.83489  0.22736  0.59266  Biso   1.000  H
  H272     1.0000 0.94086  0.43930  0.90734  Biso   1.000  H
  H273     1.0000 0.50156  0.60753  0.75933  Biso   1.000  H
  H274     1.0000 0.10597  0.49844  0.75933  Biso   1.000  H
  H275     1.0000 0.94086  0.83489  0.07400  Biso   1.000  H
  H276     1.0000 0.83177  0.43930  0.07400  Biso   1.000  H
  H277     1.0000 0.83489  0.94086  0.42600  Biso   1.000  H
  H278     1.0000 0.43930  0.83177  0.42600  Biso   1.000  H
  H279     1.0000 0.89403  0.39247  0.74067  Biso   1.000  H
  H280     1.0000 0.60753  0.50156  0.74067  Biso   1.000  H
  H281     1.0000 0.49844  0.10597  0.74067  Biso   1.000  H
  H282     1.0000 0.39247  0.89403  0.75933  Biso   1.000  H
  H283     1.0000 0.22736  0.72580  0.07400  Biso   1.000  H
  H284     1.0000 0.72580  0.22736  0.42600  Biso   1.000  H
  H285     1.0000 0.49844  0.39247  0.24067  Biso   1.000  H
  H286     1.0000 0.89403  0.50156  0.24067  Biso   1.000  H
  H287     1.0000 0.83177  0.72580  0.90734  Biso   1.000  H
  H288     1.0000 0.22736  0.83489  0.90734  Biso   1.000  H
  H289     1.0000 0.18727  0.65533  0.25753  Biso   1.000  H
  H290     1.0000 0.34467  0.53194  0.25753  Biso   1.000  H
  H291     1.0000 0.46806  0.81273  0.25753  Biso   1.000  H
  H292     1.0000 0.65533  0.18727  0.24247  Biso   1.000  H
  H293     1.0000 0.52060  0.98866  0.59086  Biso   1.000  H
  H294     1.0000 0.67800  0.86527  0.59086  Biso   1.000  H
  H295     1.0000 0.80139  0.14606  0.59086  Biso   1.000  H
  H296     1.0000 0.98866  0.52060  0.90914  Biso   1.000  H
  H297     1.0000 0.46806  0.65533  0.75753  Biso   1.000  H
  H298     1.0000 0.18727  0.53194  0.75753  Biso   1.000  H
  H299     1.0000 0.98866  0.80139  0.07580  Biso   1.000  H
  H300     1.0000 0.86527  0.52060  0.07580  Biso   1.000  H
  H301     1.0000 0.80139  0.98866  0.42420  Biso   1.000  H
  H302     1.0000 0.52060  0.86527  0.42420  Biso   1.000  H
  H303     1.0000 0.81273  0.34467  0.74247  Biso   1.000  H
  H304     1.0000 0.65533  0.46806  0.74247  Biso   1.000  H
  H305     1.0000 0.53194  0.18727  0.74247  Biso   1.000  H
  H306     1.0000 0.34467  0.81273  0.75753  Biso   1.000  H
  H307     1.0000 0.14606  0.67800  0.07580  Biso   1.000  H
  H308     1.0000 0.67800  0.14606  0.42420  Biso   1.000  H
  H309     1.0000 0.53194  0.34467  0.24247  Biso   1.000  H
  H310     1.0000 0.81273  0.46806  0.24247  Biso   1.000  H
  H311     1.0000 0.86527  0.67800  0.90914  Biso   1.000  H
  H312     1.0000 0.14606  0.80139  0.90914  Biso   1.000  H
  C313     1.0000 0.13765  0.70801  0.27760  Biso   1.000  C
  C314     1.0000 0.29199  0.42963  0.27760  Biso   1.000  C
  C315     1.0000 0.57037  0.86235  0.27760  Biso   1.000  C
  C316     1.0000 0.70801  0.13765  0.22240  Biso   1.000  C
  C317     1.0000 0.47098  0.04135  0.61094  Biso   1.000  C
  C318     1.0000 0.62532  0.76297  0.61094  Biso   1.000  C
  C319     1.0000 0.90370  0.19569  0.61094  Biso   1.000  C
  C320     1.0000 0.04135  0.47098  0.88906  Biso   1.000  C
  C321     1.0000 0.57037  0.70801  0.77760  Biso   1.000  C
  C322     1.0000 0.13765  0.42963  0.77760  Biso   1.000  C
  C323     1.0000 0.04135  0.90370  0.05573  Biso   1.000  C
  C324     1.0000 0.76297  0.47098  0.05573  Biso   1.000  C
  C325     1.0000 0.90370  0.04135  0.44427  Biso   1.000  C
  C326     1.0000 0.47098  0.76297  0.44427  Biso   1.000  C
  C327     1.0000 0.86235  0.29199  0.72240  Biso   1.000  C
  C328     1.0000 0.70801  0.57037  0.72240  Biso   1.000  C
  C329     1.0000 0.42963  0.13765  0.72240  Biso   1.000  C
  C330     1.0000 0.29199  0.86235  0.77760  Biso   1.000  C
  C331     1.0000 0.19569  0.62532  0.05573  Biso   1.000  C
  C332     1.0000 0.62532  0.19569  0.44427  Biso   1.000  C
  C333     1.0000 0.42963  0.29199  0.22240  Biso   1.000  C
  C334     1.0000 0.86235  0.57037  0.22240  Biso   1.000  C
  C335     1.0000 0.76297  0.62532  0.88906  Biso   1.000  C
  C336     1.0000 0.19569  0.90370  0.88906  Biso   1.000  C
  C337     1.0000 0.10995  0.72274  0.22816  Biso   1.000  C
  C338     1.0000 0.27726  0.38720  0.22816  Biso   1.000  C
  C339     1.0000 0.61280  0.89005  0.22816  Biso   1.000  C
  C340     1.0000 0.72274  0.10995  0.27184  Biso   1.000  C
  C341     1.0000 0.44328  0.05608  0.56150  Biso   1.000  C
  C342     1.0000 0.61059  0.72054  0.56150  Biso   1.000  C
  C343     1.0000 0.94613  0.22339  0.56150  Biso   1.000  C
  C344     1.0000 0.05608  0.44328  0.93850  Biso   1.000  C
  C345     1.0000 0.61280  0.72274  0.72816  Biso   1.000  C
  C346     1.0000 0.10995  0.38720  0.72816  Biso   1.000  C
  C347     1.0000 0.05608  0.94613  0.10517  Biso   1.000  C
  C348     1.0000 0.72054  0.44328  0.10517  Biso   1.000  C
  C349     1.0000 0.94613  0.05608  0.39483  Biso   1.000  C
  C350     1.0000 0.44328  0.72054  0.39483  Biso   1.000  C
  C351     1.0000 0.89005  0.27726  0.77184  Biso   1.000  C
  C352     1.0000 0.72274  0.61280  0.77184  Biso   1.000  C
  C353     1.0000 0.38720  0.10995  0.77184  Biso   1.000  C
  C354     1.0000 0.27726  0.89005  0.72816  Biso   1.000  C
  C355     1.0000 0.22339  0.61059  0.10517  Biso   1.000  C
  C356     1.0000 0.61059  0.22339  0.39483  Biso   1.000  C
  C357     1.0000 0.38720  0.27726  0.27184  Biso   1.000  C
  C358     1.0000 0.89005  0.61280  0.27184  Biso   1.000  C
  C359     1.0000 0.72054  0.61059  0.93850  Biso   1.000  C
  C360     1.0000 0.22339  0.94613  0.93850  Biso   1.000  C
  C361     1.0000 0.09509  0.77660  0.22708  Biso   1.000  C
  C362     1.0000 0.22340  0.31848  0.22708  Biso   1.000  C
  C363     1.0000 0.68152  0.90491  0.22708  Biso   1.000  C
  C364     1.0000 0.77660  0.09509  0.27292  Biso   1.000  C
  C365     1.0000 0.42842  0.10994  0.56042  Biso   1.000  C
  C366     1.0000 0.55673  0.65182  0.56042  Biso   1.000  C
  C367     1.0000 0.01485  0.23825  0.56042  Biso   1.000  C
  C368     1.0000 0.10994  0.42842  0.93958  Biso   1.000  C
  C369     1.0000 0.68152  0.77660  0.72708  Biso   1.000  C
  C370     1.0000 0.09509  0.31848  0.72708  Biso   1.000  C
  C371     1.0000 0.10994  0.01485  0.10625  Biso   1.000  C
  C372     1.0000 0.65182  0.42842  0.10625  Biso   1.000  C
  C373     1.0000 0.01485  0.10994  0.39375  Biso   1.000  C
  C374     1.0000 0.42842  0.65182  0.39375  Biso   1.000  C
  C375     1.0000 0.90491  0.22340  0.77292  Biso   1.000  C
  C376     1.0000 0.77660  0.68152  0.77292  Biso   1.000  C
  C377     1.0000 0.31848  0.09509  0.77292  Biso   1.000  C
  C378     1.0000 0.22340  0.90491  0.72708  Biso   1.000  C
  C379     1.0000 0.23825  0.55673  0.10625  Biso   1.000  C
  C380     1.0000 0.55673  0.23825  0.39375  Biso   1.000  C
  C381     1.0000 0.31848  0.22340  0.27292  Biso   1.000  C
  C382     1.0000 0.90491  0.68152  0.27292  Biso   1.000  C
  C383     1.0000 0.65182  0.55673  0.93958  Biso   1.000  C
  C384     1.0000 0.23825  0.01485  0.93958  Biso   1.000  C
  C385     1.0000 0.06340  0.78881  0.17396  Biso   1.000  C
  C386     1.0000 0.21119  0.27458  0.17396  Biso   1.000  C
  C387     1.0000 0.72542  0.93660  0.17396  Biso   1.000  C
  C388     1.0000 0.78881  0.06340  0.32604  Biso   1.000  C
  C389     1.0000 0.39673  0.12215  0.50730  Biso   1.000  C
  C390     1.0000 0.54452  0.60792  0.50730  Biso   1.000  C
  C391     1.0000 0.05875  0.26994  0.50730  Biso   1.000  C
  C392     1.0000 0.12215  0.39673  0.99270  Biso   1.000  C
  C393     1.0000 0.72542  0.78881  0.67396  Biso   1.000  C
  C394     1.0000 0.06340  0.27458  0.67396  Biso   1.000  C
  C395     1.0000 0.12215  0.05875  0.15937  Biso   1.000  C
  C396     1.0000 0.60792  0.39673  0.15937  Biso   1.000  C
  C397     1.0000 0.05875  0.12215  0.34063  Biso   1.000  C
  C398     1.0000 0.39673  0.60792  0.34063  Biso   1.000  C
  C399     1.0000 0.93660  0.21119  0.82604  Biso   1.000  C
  C400     1.0000 0.78881  0.72542  0.82604  Biso   1.000  C
  C401     1.0000 0.27458  0.06340  0.82604  Biso   1.000  C
  C402     1.0000 0.21119  0.93660  0.67396  Biso   1.000  C
  C403     1.0000 0.26994  0.54452  0.15937  Biso   1.000  C
  C404     1.0000 0.54452  0.26994  0.34063  Biso   1.000  C
  C405     1.0000 0.27458  0.21119  0.32604  Biso   1.000  C
  C406     1.0000 0.93660  0.72542  0.32604  Biso   1.000  C
  C407     1.0000 0.60792  0.54452  0.99270  Biso   1.000  C
  C408     1.0000 0.26994  0.05875  0.99270  Biso   1.000  C
  H313     1.0000 0.07487  0.83673  0.17303  Biso   1.000  H
  H314     1.0000 0.16327  0.23814  0.17303  Biso   1.000  H
  H315     1.0000 0.76186  0.92513  0.17303  Biso   1.000  H
  H316     1.0000 0.83673  0.07487  0.32697  Biso   1.000  H
  H317     1.0000 0.40820  0.17006  0.50636  Biso   1.000  H
  H318     1.0000 0.49660  0.57147  0.50636  Biso   1.000  H
  H319     1.0000 0.09519  0.25846  0.50636  Biso   1.000  H
  H320     1.0000 0.17006  0.40820  0.99364  Biso   1.000  H
  H321     1.0000 0.76186  0.83673  0.67303  Biso   1.000  H
  H322     1.0000 0.07487  0.23814  0.67303  Biso   1.000  H
  H323     1.0000 0.17006  0.09519  0.16030  Biso   1.000  H
  H324     1.0000 0.57147  0.40820  0.16030  Biso   1.000  H
  H325     1.0000 0.09519  0.17006  0.33970  Biso   1.000  H
  H326     1.0000 0.40820  0.57147  0.33970  Biso   1.000  H
  H327     1.0000 0.92513  0.16327  0.82697  Biso   1.000  H
  H328     1.0000 0.83673  0.76186  0.82697  Biso   1.000  H
  H329     1.0000 0.23814  0.07487  0.82697  Biso   1.000  H
  H330     1.0000 0.16327  0.92513  0.67303  Biso   1.000  H
  H331     1.0000 0.25846  0.49660  0.16030  Biso   1.000  H
  H332     1.0000 0.49660  0.25846  0.33970  Biso   1.000  H
  H333     1.0000 0.23814  0.16327  0.32697  Biso   1.000  H
  H334     1.0000 0.92513  0.76186  0.32697  Biso   1.000  H
  H335     1.0000 0.57147  0.49660  0.99364  Biso   1.000  H
  H336     1.0000 0.25846  0.09519  0.99364  Biso   1.000  H
  H337     1.0000 0.08117  0.77843  0.13883  Biso   1.000  H
  H338     1.0000 0.22157  0.30274  0.13883  Biso   1.000  H
  H339     1.0000 0.69726  0.91883  0.13883  Biso   1.000  H
  H340     1.0000 0.77843  0.08117  0.36117  Biso   1.000  H
  H341     1.0000 0.41450  0.11176  0.47216  Biso   1.000  H
  H342     1.0000 0.55490  0.63607  0.47216  Biso   1.000  H
  H343     1.0000 0.03059  0.25216  0.47216  Biso   1.000  H
  H344     1.0000 0.11176  0.41450  0.02784  Biso   1.000  H
  H345     1.0000 0.69726  0.77843  0.63883  Biso   1.000  H
  H346     1.0000 0.08117  0.30274  0.63883  Biso   1.000  H
  H347     1.0000 0.11176  0.03059  0.19450  Biso   1.000  H
  H348     1.0000 0.63607  0.41450  0.19450  Biso   1.000  H
  H349     1.0000 0.03059  0.11176  0.30550  Biso   1.000  H
  H350     1.0000 0.41450  0.63607  0.30550  Biso   1.000  H
  H351     1.0000 0.91883  0.22157  0.86117  Biso   1.000  H
  H352     1.0000 0.77843  0.69726  0.86117  Biso   1.000  H
  H353     1.0000 0.30274  0.08117  0.86117  Biso   1.000  H
  H354     1.0000 0.22157  0.91883  0.63883  Biso   1.000  H
  H355     1.0000 0.25216  0.55490  0.19450  Biso   1.000  H
  H356     1.0000 0.55490  0.25216  0.30550  Biso   1.000  H
  H357     1.0000 0.30274  0.22157  0.36117  Biso   1.000  H
  H358     1.0000 0.91883  0.69726  0.36117  Biso   1.000  H
  H359     1.0000 0.63607  0.55490  0.02784  Biso   1.000  H
  H360     1.0000 0.25216  0.03059  0.02784  Biso   1.000  H
  H361     1.0000 0.01367  0.75923  0.17553  Biso   1.000  H
  H362     1.0000 0.24077  0.25444  0.17553  Biso   1.000  H
  H363     1.0000 0.74556  0.98633  0.17553  Biso   1.000  H
  H364     1.0000 0.75923  0.01367  0.32447  Biso   1.000  H
  H365     1.0000 0.34700  0.09256  0.50886  Biso   1.000  H
  H366     1.0000 0.57410  0.58777  0.50886  Biso   1.000  H
  H367     1.0000 0.07889  0.31966  0.50886  Biso   1.000  H
  H368     1.0000 0.09256  0.34700  0.99114  Biso   1.000  H
  H369     1.0000 0.74556  0.75923  0.67553  Biso   1.000  H
  H370     1.0000 0.01367  0.25444  0.67553  Biso   1.000  H
  H371     1.0000 0.09256  0.07889  0.15780  Biso   1.000  H
  H372     1.0000 0.58777  0.34700  0.15780  Biso   1.000  H
  H373     1.0000 0.07889  0.09256  0.34220  Biso   1.000  H
  H374     1.0000 0.34700  0.58777  0.34220  Biso   1.000  H
  H375     1.0000 0.98633  0.24077  0.82447  Biso   1.000  H
  H376     1.0000 0.75923  0.74556  0.82447  Biso   1.000  H
  H377     1.0000 0.25444  0.01367  0.82447  Biso   1.000  H
  H378     1.0000 0.24077  0.98633  0.67553  Biso   1.000  H
  H379     1.0000 0.31966  0.57410  0.15780  Biso   1.000  H
  H380     1.0000 0.57410  0.31966  0.34220  Biso   1.000  H
  H381     1.0000 0.25444  0.24077  0.32447  Biso   1.000  H
  H382     1.0000 0.98633  0.74556  0.32447  Biso   1.000  H
  H383     1.0000 0.58777  0.57410  0.99114  Biso   1.000  H
  H384     1.0000 0.31966  0.07889  0.99114  Biso   1.000  H
  C409     1.0000 0.09093  0.67645  0.17648  Biso   1.000  C
  C410     1.0000 0.32355  0.41447  0.17648  Biso   1.000  C
  C411     1.0000 0.58553  0.90907  0.17648  Biso   1.000  C
  C412     1.0000 0.67645  0.09093  0.32352  Biso   1.000  C
  C413     1.0000 0.42426  0.00979  0.50982  Biso   1.000  C
  C414     1.0000 0.65688  0.74781  0.50982  Biso   1.000  C
  C415     1.0000 0.91886  0.24241  0.50982  Biso   1.000  C
  C416     1.0000 0.00979  0.42426  0.99018  Biso   1.000  C
  C417     1.0000 0.58553  0.67645  0.67648  Biso   1.000  C
  C418     1.0000 0.09093  0.41447  0.67648  Biso   1.000  C
  C419     1.0000 0.00979  0.91886  0.15685  Biso   1.000  C
  C420     1.0000 0.74781  0.42426  0.15685  Biso   1.000  C
  C421     1.0000 0.91886  0.00979  0.34315  Biso   1.000  C
  C422     1.0000 0.42426  0.74781  0.34315  Biso   1.000  C
  C423     1.0000 0.90907  0.32355  0.82352  Biso   1.000  C
  C424     1.0000 0.67645  0.58553  0.82352  Biso   1.000  C
  C425     1.0000 0.41447  0.09093  0.82352  Biso   1.000  C
  C426     1.0000 0.32355  0.90907  0.67648  Biso   1.000  C
  C427     1.0000 0.24241  0.65688  0.15685  Biso   1.000  C
  C428     1.0000 0.65688  0.24241  0.34315  Biso   1.000  C
  C429     1.0000 0.41447  0.32355  0.32352  Biso   1.000  C
  C430     1.0000 0.90907  0.58553  0.32352  Biso   1.000  C
  C431     1.0000 0.74781  0.65688  0.99018  Biso   1.000  C
  C432     1.0000 0.24241  0.91886  0.99018  Biso   1.000  C
  C433     1.0000 0.02271  0.63457  0.16098  Biso   1.000  C
  C434     1.0000 0.36543  0.38813  0.16098  Biso   1.000  C
  C435     1.0000 0.61187  0.97729  0.16098  Biso   1.000  C
  C436     1.0000 0.63457  0.02271  0.33902  Biso   1.000  C
  C437     1.0000 0.35604  0.96791  0.49432  Biso   1.000  C
  C438     1.0000 0.69876  0.72147  0.49432  Biso   1.000  C
  C439     1.0000 0.94520  0.31063  0.49432  Biso   1.000  C
  C440     1.0000 0.96791  0.35604  0.00568  Biso   1.000  C
  C441     1.0000 0.61187  0.63457  0.66098  Biso   1.000  C
  C442     1.0000 0.02271  0.38813  0.66098  Biso   1.000  C
  C443     1.0000 0.96791  0.94520  0.17235  Biso   1.000  C
  C444     1.0000 0.72147  0.35604  0.17235  Biso   1.000  C
  C445     1.0000 0.94520  0.96791  0.32765  Biso   1.000  C
  C446     1.0000 0.35604  0.72147  0.32765  Biso   1.000  C
  C447     1.0000 0.97729  0.36543  0.83902  Biso   1.000  C
  C448     1.0000 0.63457  0.61187  0.83902  Biso   1.000  C
  C449     1.0000 0.38813  0.02271  0.83902  Biso   1.000  C
  C450     1.0000 0.36543  0.97729  0.66098  Biso   1.000  C
  C451     1.0000 0.31063  0.69876  0.17235  Biso   1.000  C
  C452     1.0000 0.69876  0.31063  0.32765  Biso   1.000  C
  C453     1.0000 0.38813  0.36543  0.33902  Biso   1.000  C
  C454     1.0000 0.97729  0.61187  0.33902  Biso   1.000  C
  C455     1.0000 0.72147  0.69876  0.00568  Biso   1.000  C
  C456     1.0000 0.31063  0.94520  0.00568  Biso   1.000  C
  H385     1.0000 0.98767  0.63513  0.18343  Biso   1.000  H
  H386     1.0000 0.36487  0.35254  0.18343  Biso   1.000  H
  H387     1.0000 0.64746  0.01233  0.18343  Biso   1.000  H
  H388     1.0000 0.63513  0.98767  0.31657  Biso   1.000  H
  H389     1.0000 0.32100  0.96846  0.51676  Biso   1.000  H
  H390     1.0000 0.69820  0.68587  0.51676  Biso   1.000  H
  H391     1.0000 0.98079  0.34566  0.51676  Biso   1.000  H
  H392     1.0000 0.96846  0.32100  0.98324  Biso   1.000  H
  H393     1.0000 0.64746  0.63513  0.68343  Biso   1.000  H
  H394     1.0000 0.98767  0.35254  0.68343  Biso   1.000  H
  H395     1.0000 0.96846  0.98079  0.14990  Biso   1.000  H
  H396     1.0000 0.68587  0.32100  0.14990  Biso   1.000  H
  H397     1.0000 0.98079  0.96846  0.35010  Biso   1.000  H
  H398     1.0000 0.32100  0.68587  0.35010  Biso   1.000  H
  H399     1.0000 0.01233  0.36487  0.81657  Biso   1.000  H
  H400     1.0000 0.63513  0.64746  0.81657  Biso   1.000  H
  H401     1.0000 0.35254  0.98767  0.81657  Biso   1.000  H
  H402     1.0000 0.36487  0.01233  0.68343  Biso   1.000  H
  H403     1.0000 0.34566  0.69820  0.14990  Biso   1.000  H
  H404     1.0000 0.69820  0.34566  0.35010  Biso   1.000  H
  H405     1.0000 0.35254  0.36487  0.31657  Biso   1.000  H
  H406     1.0000 0.01233  0.64746  0.31657  Biso   1.000  H
  H407     1.0000 0.68587  0.69820  0.98324  Biso   1.000  H
  H408     1.0000 0.34566  0.98079  0.98324  Biso   1.000  H
  C457     1.0000 0.00584  0.59203  0.11279  Biso   1.000  C
  C458     1.0000 0.40797  0.41380  0.11279  Biso   1.000  C
  C459     1.0000 0.58620  0.99416  0.11279  Biso   1.000  C
  C460     1.0000 0.59203  0.00584  0.38721  Biso   1.000  C
  C461     1.0000 0.33917  0.92537  0.44613  Biso   1.000  C
  C462     1.0000 0.74130  0.74714  0.44613  Biso   1.000  C
  C463     1.0000 0.91953  0.32750  0.44613  Biso   1.000  C
  C464     1.0000 0.92537  0.33917  0.05387  Biso   1.000  C
  C465     1.0000 0.58620  0.59203  0.61279  Biso   1.000  C
  C466     1.0000 0.00584  0.41380  0.61279  Biso   1.000  C
  C467     1.0000 0.92537  0.91953  0.22054  Biso   1.000  C
  C468     1.0000 0.74714  0.33917  0.22054  Biso   1.000  C
  C469     1.0000 0.91953  0.92537  0.27946  Biso   1.000  C
  C470     1.0000 0.33917  0.74714  0.27946  Biso   1.000  C
  C471     1.0000 0.99416  0.40797  0.88721  Biso   1.000  C
  C472     1.0000 0.59203  0.58620  0.88721  Biso   1.000  C
  C473     1.0000 0.41380  0.00584  0.88721  Biso   1.000  C
  C474     1.0000 0.40797  0.99416  0.61279  Biso   1.000  C
  C475     1.0000 0.32750  0.74130  0.22054  Biso   1.000  C
  C476     1.0000 0.74130  0.32750  0.27946  Biso   1.000  C
  C477     1.0000 0.41380  0.40797  0.38721  Biso   1.000  C
  C478     1.0000 0.99416  0.58620  0.38721  Biso   1.000  C
  C479     1.0000 0.74714  0.74130  0.05387  Biso   1.000  C
  C480     1.0000 0.32750  0.91953  0.05387  Biso   1.000  C
  H409     1.0000 0.95897  0.56413  0.10313  Biso   1.000  H
  H410     1.0000 0.43587  0.39484  0.10313  Biso   1.000  H
  H411     1.0000 0.60516  0.04103  0.10313  Biso   1.000  H
  H412     1.0000 0.56413  0.95897  0.39687  Biso   1.000  H
  H413     1.0000 0.29230  0.89746  0.43646  Biso   1.000  H
  H414     1.0000 0.76920  0.72817  0.43646  Biso   1.000  H
  H415     1.0000 0.93849  0.37436  0.43646  Biso   1.000  H
  H416     1.0000 0.89746  0.29230  0.06354  Biso   1.000  H
  H417     1.0000 0.60516  0.56413  0.60313  Biso   1.000  H
  H418     1.0000 0.95897  0.39484  0.60313  Biso   1.000  H
  H419     1.0000 0.89746  0.93849  0.23020  Biso   1.000  H
  H420     1.0000 0.72817  0.29230  0.23020  Biso   1.000  H
  H421     1.0000 0.93849  0.89746  0.26980  Biso   1.000  H
  H422     1.0000 0.29230  0.72817  0.26980  Biso   1.000  H
  H423     1.0000 0.04103  0.43587  0.89687  Biso   1.000  H
  H424     1.0000 0.56413  0.60516  0.89687  Biso   1.000  H
  H425     1.0000 0.39484  0.95897  0.89687  Biso   1.000  H
  H426     1.0000 0.43587  0.04103  0.60313  Biso   1.000  H
  H427     1.0000 0.37436  0.76920  0.23020  Biso   1.000  H
  H428     1.0000 0.76920  0.37436  0.26980  Biso   1.000  H
  H429     1.0000 0.39484  0.43587  0.39687  Biso   1.000  H
  H430     1.0000 0.04103  0.60516  0.39687  Biso   1.000  H
  H431     1.0000 0.72817  0.76920  0.06354  Biso   1.000  H
  H432     1.0000 0.37436  0.93849  0.06354  Biso   1.000  H
  C481     1.0000 0.11808  0.62820  0.09423  Biso   1.000  C
  C482     1.0000 0.37180  0.48987  0.09423  Biso   1.000  C
  C483     1.0000 0.51013  0.88192  0.09423  Biso   1.000  C
  C484     1.0000 0.62820  0.11808  0.40577  Biso   1.000  C
  C485     1.0000 0.45141  0.96154  0.42757  Biso   1.000  C
  C486     1.0000 0.70513  0.82321  0.42757  Biso   1.000  C
  C487     1.0000 0.84346  0.21526  0.42757  Biso   1.000  C
  C488     1.0000 0.96154  0.45141  0.07243  Biso   1.000  C
  C489     1.0000 0.51013  0.62820  0.59423  Biso   1.000  C
  C490     1.0000 0.11808  0.48987  0.59423  Biso   1.000  C
  C491     1.0000 0.96154  0.84346  0.23910  Biso   1.000  C
  C492     1.0000 0.82321  0.45141  0.23910  Biso   1.000  C
  C493     1.0000 0.84346  0.96154  0.26090  Biso   1.000  C
  C494     1.0000 0.45141  0.82321  0.26090  Biso   1.000  C
  C495     1.0000 0.88192  0.37180  0.90577  Biso   1.000  C
  C496     1.0000 0.62820  0.51013  0.90577  Biso   1.000  C
  C497     1.0000 0.48987  0.11808  0.90577  Biso   1.000  C
  C498     1.0000 0.37180  0.88192  0.59423  Biso   1.000  C
  C499     1.0000 0.21526  0.70513  0.23910  Biso   1.000  C
  C500     1.0000 0.70513  0.21526  0.26090  Biso   1.000  C
  C501     1.0000 0.48987  0.37180  0.40577  Biso   1.000  C
  C502     1.0000 0.88192  0.51013  0.40577  Biso   1.000  C
  C503     1.0000 0.82321  0.70513  0.07243  Biso   1.000  C
  C504     1.0000 0.21526  0.84346  0.07243  Biso   1.000  C
  H433     1.0000 0.15187  0.62603  0.07123  Biso   1.000  H
  H434     1.0000 0.37397  0.52584  0.07123  Biso   1.000  H
  H435     1.0000 0.47416  0.84813  0.07123  Biso   1.000  H
  H436     1.0000 0.62603  0.15187  0.42877  Biso   1.000  H
  H437     1.0000 0.48520  0.95936  0.40456  Biso   1.000  H
  H438     1.0000 0.70730  0.85917  0.40456  Biso   1.000  H
  H439     1.0000 0.80749  0.18146  0.40456  Biso   1.000  H
  H440     1.0000 0.95936  0.48520  0.09544  Biso   1.000  H
  H441     1.0000 0.47416  0.62603  0.57123  Biso   1.000  H
  H442     1.0000 0.15187  0.52584  0.57123  Biso   1.000  H
  H443     1.0000 0.95936  0.80749  0.26210  Biso   1.000  H
  H444     1.0000 0.85917  0.48520  0.26210  Biso   1.000  H
  H445     1.0000 0.80749  0.95936  0.23790  Biso   1.000  H
  H446     1.0000 0.48520  0.85917  0.23790  Biso   1.000  H
  H447     1.0000 0.84813  0.37397  0.92877  Biso   1.000  H
  H448     1.0000 0.62603  0.47416  0.92877  Biso   1.000  H
  H449     1.0000 0.52584  0.15187  0.92877  Biso   1.000  H
  H450     1.0000 0.37397  0.84813  0.57123  Biso   1.000  H
  H451     1.0000 0.18146  0.70730  0.26210  Biso   1.000  H
  H452     1.0000 0.70730  0.18146  0.23790  Biso   1.000  H
  H453     1.0000 0.52584  0.37397  0.42877  Biso   1.000  H
  H454     1.0000 0.84813  0.47416  0.42877  Biso   1.000  H
  H455     1.0000 0.85917  0.70730  0.09544  Biso   1.000  H
  H456     1.0000 0.18146  0.80749  0.09544  Biso   1.000  H
  C505     1.0000 0.13952  0.67256  0.14163  Biso   1.000  C
  C506     1.0000 0.32744  0.46695  0.14163  Biso   1.000  C
  C507     1.0000 0.53305  0.86048  0.14163  Biso   1.000  C
  C508     1.0000 0.67256  0.13952  0.35837  Biso   1.000  C
  C509     1.0000 0.47285  0.00590  0.47497  Biso   1.000  C
  C510     1.0000 0.66077  0.80029  0.47497  Biso   1.000  C
  C511     1.0000 0.86638  0.19382  0.47497  Biso   1.000  C
  C512     1.0000 0.00590  0.47285  0.02503  Biso   1.000  C
  C513     1.0000 0.53305  0.67256  0.64163  Biso   1.000  C
  C514     1.0000 0.13952  0.46695  0.64163  Biso   1.000  C
  C515     1.0000 0.00590  0.86638  0.19170  Biso   1.000  C
  C516     1.0000 0.80029  0.47285  0.19170  Biso   1.000  C
  C517     1.0000 0.86638  0.00590  0.30830  Biso   1.000  C
  C518     1.0000 0.47285  0.80029  0.30830  Biso   1.000  C
  C519     1.0000 0.86048  0.32744  0.85837  Biso   1.000  C
  C520     1.0000 0.67256  0.53305  0.85837  Biso   1.000  C
  C521     1.0000 0.46695  0.13952  0.85837  Biso   1.000  C
  C522     1.0000 0.32744  0.86048  0.64163  Biso   1.000  C
  C523     1.0000 0.19382  0.66077  0.19170  Biso   1.000  C
  C524     1.0000 0.66077  0.19382  0.30830  Biso   1.000  C
  C525     1.0000 0.46695  0.32744  0.35837  Biso   1.000  C
  C526     1.0000 0.86048  0.53305  0.35837  Biso   1.000  C
  C527     1.0000 0.80029  0.66077  0.02503  Biso   1.000  C
  C528     1.0000 0.19382  0.86638  0.02503  Biso   1.000  C
  H457     1.0000 0.18677  0.69993  0.15023  Biso   1.000  H
  H458     1.0000 0.30007  0.48684  0.15023  Biso   1.000  H
  H459     1.0000 0.51316  0.81323  0.15023  Biso   1.000  H
  H460     1.0000 0.69993  0.18677  0.34977  Biso   1.000  H
  H461     1.0000 0.52010  0.03326  0.48356  Biso   1.000  H
  H462     1.0000 0.63340  0.82017  0.48356  Biso   1.000  H
  H463     1.0000 0.84649  0.14656  0.48356  Biso   1.000  H
  H464     1.0000 0.03326  0.52010  0.01644  Biso   1.000  H
  H465     1.0000 0.51316  0.69993  0.65023  Biso   1.000  H
  H466     1.0000 0.18677  0.48684  0.65023  Biso   1.000  H
  H467     1.0000 0.03326  0.84649  0.18310  Biso   1.000  H
  H468     1.0000 0.82017  0.52010  0.18310  Biso   1.000  H
  H469     1.0000 0.84649  0.03326  0.31690  Biso   1.000  H
  H470     1.0000 0.52010  0.82017  0.31690  Biso   1.000  H
  H471     1.0000 0.81323  0.30007  0.84977  Biso   1.000  H
  H472     1.0000 0.69993  0.51316  0.84977  Biso   1.000  H
  H473     1.0000 0.48684  0.18677  0.84977  Biso   1.000  H
  H474     1.0000 0.30007  0.81323  0.65023  Biso   1.000  H
  H475     1.0000 0.14656  0.63340  0.18310  Biso   1.000  H
  H476     1.0000 0.63340  0.14656  0.31690  Biso   1.000  H
  H477     1.0000 0.48684  0.30007  0.34977  Biso   1.000  H
  H478     1.0000 0.81323  0.51316  0.34977  Biso   1.000  H
  H479     1.0000 0.82017  0.63340  0.01644  Biso   1.000  H
  H480     1.0000 0.14656  0.84649  0.01644  Biso   1.000  H
  Cu13     1.0000 0.16667  0.83333  0.33333  Biso   1.000  Cu
  Cu14     1.0000 0.16667  0.33334  0.33333  Biso   1.000  Cu
  Cu15     1.0000 0.66666  0.83333  0.33333  Biso   1.000  Cu
  Cu16     1.0000 0.83333  0.16667  0.16667  Biso   1.000  Cu
  Cu17     1.0000 0.50000  0.16666  0.66666  Biso   1.000  Cu
  Cu18     1.0000 0.50000  0.66667  0.66666  Biso   1.000  Cu
  Cu19     1.0000 0.99999  0.16666  0.66666  Biso   1.000  Cu
  Cu20     1.0000 0.16666  0.50000  0.83334  Biso   1.000  Cu
  Cu21     1.0000 0.66666  0.83333  0.83333  Biso   1.000  Cu
  Cu22     1.0000 0.16667  0.33334  0.83333  Biso   1.000  Cu
  Cu23     1.0000 0.16666  0.99999  0.00000  Biso   1.000  Cu
  Cu24     1.0000 0.66667  0.50000  0.00000  Biso   1.000  Cu
  Cu25     1.0000 0.99999  0.16666  0.50000  Biso   1.000  Cu
  Cu26     1.0000 0.50000  0.66667  0.50000  Biso   1.000  Cu
  Cu27     1.0000 0.83333  0.16667  0.66667  Biso   1.000  Cu
  Cu28     1.0000 0.83333  0.66666  0.66667  Biso   1.000  Cu
  Cu29     1.0000 0.33334  0.16667  0.66667  Biso   1.000  Cu
  Cu30     1.0000 0.16667  0.83333  0.83333  Biso   1.000  Cu
  Cu31     1.0000 0.16666  0.50000  0.00000  Biso   1.000  Cu
  Cu32     1.0000 0.50000  0.16666  0.50000  Biso   1.000  Cu
  Cu33     1.0000 0.33334  0.16667  0.16667  Biso   1.000  Cu
  Cu34     1.0000 0.83333  0.66666  0.16667  Biso   1.000  Cu
  Cu35     1.0000 0.66667  0.50000  0.83334  Biso   1.000  Cu
  Cu36     1.0000 0.16666  0.99999  0.83334  Biso   1.000  Cu
