data_image0
_cell_length_a       42.4967
_cell_length_b       10.7421
_cell_length_c       20.5617
_cell_angle_alpha    90
_cell_angle_beta     117.178
_cell_angle_gamma    90

_symmetry_space_group_name_H-M    "P 1"
_symmetry_int_tables_number       1

loop_
  _symmetry_equiv_pos_as_xyz
  'x, y, z'

loop_
  _atom_site_label
  _atom_site_occupancy
  _atom_site_fract_x
  _atom_site_fract_y
  _atom_site_fract_z
  _atom_site_thermal_displace_type
  _atom_site_B_iso_or_equiv
  _atom_site_type_symbol
  Mo1      1.0000 0.15655  0.13999  0.15937  Biso   1.000  Mo
  Mo2      1.0000 0.65655  0.63999  0.15937  Biso   1.000  Mo
  Mo3      1.0000 0.15655  0.86001  0.65937  Biso   1.000  Mo
  Mo4      1.0000 0.65655  0.36001  0.65937  Biso   1.000  Mo
  Mo5      1.0000 0.84345  0.86001  0.84063  Biso   1.000  Mo
  Mo6      1.0000 0.34345  0.36001  0.84063  Biso   1.000  Mo
  Mo7      1.0000 0.84345  0.13999  0.34063  Biso   1.000  Mo
  Mo8      1.0000 0.34345  0.63999  0.34063  Biso   1.000  Mo
  Mo9      1.0000 0.08277  0.30798  0.04500  Biso   1.000  Mo
  Mo10     1.0000 0.58277  0.80798  0.04500  Biso   1.000  Mo
  Mo11     1.0000 0.08277  0.69202  0.54500  Biso   1.000  Mo
  Mo12     1.0000 0.58277  0.19202  0.54500  Biso   1.000  Mo
  Mo13     1.0000 0.91723  0.69202  0.95500  Biso   1.000  Mo
  Mo14     1.0000 0.41723  0.19202  0.95500  Biso   1.000  Mo
  Mo15     1.0000 0.91723  0.30798  0.45500  Biso   1.000  Mo
  Mo16     1.0000 0.41723  0.80798  0.45500  Biso   1.000  Mo
  Mo17     1.0000 0.19329  0.02203  0.04077  Biso   1.000  Mo
  Mo18     1.0000 0.69329  0.52203  0.04077  Biso   1.000  Mo
  Mo19     1.0000 0.19329  0.97797  0.54077  Biso   1.000  Mo
  Mo20     1.0000 0.69329  0.47797  0.54077  Biso   1.000  Mo
  Mo21     1.0000 0.80671  0.97797  0.95923  Biso   1.000  Mo
  Mo22     1.0000 0.30671  0.47797  0.95923  Biso   1.000  Mo
  Mo23     1.0000 0.80671  0.02203  0.45923  Biso   1.000  Mo
  Mo24     1.0000 0.30672  0.52203  0.45923  Biso   1.000  Mo
  Mo25     1.0000 0.15568  0.18837  0.88592  Biso   1.000  Mo
  Mo26     1.0000 0.65568  0.68837  0.88592  Biso   1.000  Mo
  Mo27     1.0000 0.15568  0.81163  0.38592  Biso   1.000  Mo
  Mo28     1.0000 0.65568  0.31163  0.38592  Biso   1.000  Mo
  Mo29     1.0000 0.84432  0.81163  0.11408  Biso   1.000  Mo
  Mo30     1.0000 0.34432  0.31163  0.11408  Biso   1.000  Mo
  Mo31     1.0000 0.84432  0.18837  0.61408  Biso   1.000  Mo
  Mo32     1.0000 0.34432  0.68837  0.61408  Biso   1.000  Mo
  Mo33     1.0000 0.08627  0.35402  0.88599  Biso   1.000  Mo
  Mo34     1.0000 0.58627  0.85402  0.88599  Biso   1.000  Mo
  Mo35     1.0000 0.08627  0.64598  0.38599  Biso   1.000  Mo
  Mo36     1.0000 0.58627  0.14598  0.38599  Biso   1.000  Mo
  Mo37     1.0000 0.91373  0.64598  0.11401  Biso   1.000  Mo
  Mo38     1.0000 0.41373  0.14598  0.11401  Biso   1.000  Mo
  Mo39     1.0000 0.91373  0.35402  0.61401  Biso   1.000  Mo
  Mo40     1.0000 0.41373  0.85402  0.61401  Biso   1.000  Mo
  Cu1      1.0000 0.09347  0.27597  0.26050  Biso   1.000  Cu
  Cu2      1.0000 0.59347  0.77597  0.26050  Biso   1.000  Cu
  Cu3      1.0000 0.09347  0.72403  0.76050  Biso   1.000  Cu
  Cu4      1.0000 0.59347  0.22403  0.76050  Biso   1.000  Cu
  Cu5      1.0000 0.90653  0.72403  0.73950  Biso   1.000  Cu
  Cu6      1.0000 0.40653  0.22403  0.73950  Biso   1.000  Cu
  Cu7      1.0000 0.90653  0.27597  0.23950  Biso   1.000  Cu
  Cu8      1.0000 0.40653  0.77597  0.23950  Biso   1.000  Cu
  Cu9      1.0000 0.12510  0.83167  0.17388  Biso   1.000  Cu
  Cu10     1.0000 0.62510  0.33167  0.17388  Biso   1.000  Cu
  Cu11     1.0000 0.12510  0.16833  0.67388  Biso   1.000  Cu
  Cu12     1.0000 0.62510  0.66833  0.67388  Biso   1.000  Cu
  Cu13     1.0000 0.87490  0.16833  0.82612  Biso   1.000  Cu
  Cu14     1.0000 0.37490  0.66833  0.82612  Biso   1.000  Cu
  Cu15     1.0000 0.87490  0.83167  0.32612  Biso   1.000  Cu
  Cu16     1.0000 0.37490  0.33167  0.32612  Biso   1.000  Cu
  P1       1.0000 0.10206  0.05324  0.96372  Biso   1.000  P
  P2       1.0000 0.60206  0.55324  0.96372  Biso   1.000  P
  P3       1.0000 0.10206  0.94676  0.46372  Biso   1.000  P
  P4       1.0000 0.60206  0.44676  0.46372  Biso   1.000  P
  P5       1.0000 0.89794  0.94676  0.03628  Biso   1.000  P
  P6       1.0000 0.39794  0.44676  0.03628  Biso   1.000  P
  P7       1.0000 0.89794  0.05324  0.53628  Biso   1.000  P
  P8       1.0000 0.39794  0.55324  0.53628  Biso   1.000  P
  P9       1.0000 0.16529  0.32776  0.04455  Biso   1.000  P
  P10      1.0000 0.66529  0.82776  0.04455  Biso   1.000  P
  P11      1.0000 0.16529  0.67224  0.54455  Biso   1.000  P
  P12      1.0000 0.66529  0.17224  0.54455  Biso   1.000  P
  P13      1.0000 0.83471  0.67224  0.95545  Biso   1.000  P
  P14      1.0000 0.33471  0.17224  0.95545  Biso   1.000  P
  P15      1.0000 0.83471  0.32776  0.45545  Biso   1.000  P
  P16      1.0000 0.33471  0.82776  0.45545  Biso   1.000  P
  O1       1.0000 0.13584  0.00590  0.17102  Biso   1.000  O
  O2       1.0000 0.63584  0.50590  0.17102  Biso   1.000  O
  O3       1.0000 0.13584  0.99410  0.67102  Biso   1.000  O
  O4       1.0000 0.63584  0.49410  0.67102  Biso   1.000  O
  O5       1.0000 0.86416  0.99410  0.82898  Biso   1.000  O
  O6       1.0000 0.36416  0.49410  0.82898  Biso   1.000  O
  O7       1.0000 0.86416  0.00590  0.32898  Biso   1.000  O
  O8       1.0000 0.36416  0.50590  0.32898  Biso   1.000  O
  O9       1.0000 0.06798  0.99240  0.93235  Biso   1.000  O
  O10      1.0000 0.56798  0.49240  0.93235  Biso   1.000  O
  O11      1.0000 0.06798  0.00760  0.43235  Biso   1.000  O
  O12      1.0000 0.56798  0.50760  0.43235  Biso   1.000  O
  O13      1.0000 0.93202  0.00760  0.06765  Biso   1.000  O
  O14      1.0000 0.43202  0.50760  0.06765  Biso   1.000  O
  O15      1.0000 0.93202  0.99240  0.56765  Biso   1.000  O
  O16      1.0000 0.43202  0.49240  0.56765  Biso   1.000  O
  H1       1.0000 0.05980  0.98950  0.88670  Biso   1.000  H
  H2       1.0000 0.55980  0.48950  0.88670  Biso   1.000  H
  H3       1.0000 0.05980  0.01050  0.38670  Biso   1.000  H
  H4       1.0000 0.55980  0.51050  0.38670  Biso   1.000  H
  H5       1.0000 0.94020  0.01050  0.11330  Biso   1.000  H
  H6       1.0000 0.44020  0.51050  0.11330  Biso   1.000  H
  H7       1.0000 0.94020  0.98950  0.61330  Biso   1.000  H
  H8       1.0000 0.44020  0.48950  0.61330  Biso   1.000  H
  O17      1.0000 0.10452  0.14000  0.91001  Biso   1.000  O
  O18      1.0000 0.60452  0.64000  0.91001  Biso   1.000  O
  O19      1.0000 0.10452  0.86000  0.41001  Biso   1.000  O
  O20      1.0000 0.60452  0.36000  0.41001  Biso   1.000  O
  O21      1.0000 0.89548  0.86000  0.08999  Biso   1.000  O
  O22      1.0000 0.39548  0.36000  0.08999  Biso   1.000  O
  O23      1.0000 0.89548  0.14000  0.58999  Biso   1.000  O
  O24      1.0000 0.39548  0.64000  0.58999  Biso   1.000  O
  O25      1.0000 0.12619  0.36440  0.00774  Biso   1.000  O
  O26      1.0000 0.62619  0.86440  0.00774  Biso   1.000  O
  O27      1.0000 0.12619  0.63560  0.50774  Biso   1.000  O
  O28      1.0000 0.62619  0.13560  0.50774  Biso   1.000  O
  O29      1.0000 0.87381  0.63560  0.99226  Biso   1.000  O
  O30      1.0000 0.37381  0.13560  0.99226  Biso   1.000  O
  O31      1.0000 0.87381  0.36440  0.49226  Biso   1.000  O
  O32      1.0000 0.37381  0.86440  0.49226  Biso   1.000  O
  O33      1.0000 0.18182  0.05470  0.11816  Biso   1.000  O
  O34      1.0000 0.68182  0.55470  0.11816  Biso   1.000  O
  O35      1.0000 0.18182  0.94530  0.61816  Biso   1.000  O
  O36      1.0000 0.68182  0.44530  0.61816  Biso   1.000  O
  O37      1.0000 0.81818  0.94530  0.88184  Biso   1.000  O
  O38      1.0000 0.31818  0.44530  0.88184  Biso   1.000  O
  O39      1.0000 0.81818  0.05470  0.38184  Biso   1.000  O
  O40      1.0000 0.31818  0.55470  0.38184  Biso   1.000  O
  O41      1.0000 0.17732  0.04030  0.93786  Biso   1.000  O
  O42      1.0000 0.67732  0.54030  0.93786  Biso   1.000  O
  O43      1.0000 0.17732  0.95970  0.43786  Biso   1.000  O
  O44      1.0000 0.67732  0.45970  0.43786  Biso   1.000  O
  O45      1.0000 0.82268  0.95970  0.06214  Biso   1.000  O
  O46      1.0000 0.32268  0.45970  0.06214  Biso   1.000  O
  O47      1.0000 0.82268  0.04030  0.56214  Biso   1.000  O
  O48      1.0000 0.32268  0.54030  0.56214  Biso   1.000  O
  O49      1.0000 0.12900  0.33680  0.87785  Biso   1.000  O
  O50      1.0000 0.62900  0.83680  0.87785  Biso   1.000  O
  O51      1.0000 0.12900  0.66320  0.37785  Biso   1.000  O
  O52      1.0000 0.62900  0.16320  0.37785  Biso   1.000  O
  O53      1.0000 0.87100  0.66320  0.12215  Biso   1.000  O
  O54      1.0000 0.37100  0.16320  0.12215  Biso   1.000  O
  O55      1.0000 0.87100  0.33680  0.62215  Biso   1.000  O
  O56      1.0000 0.37100  0.83680  0.62215  Biso   1.000  O
  O57      1.0000 0.06179  0.30880  0.94057  Biso   1.000  O
  O58      1.0000 0.56179  0.80880  0.94057  Biso   1.000  O
  O59      1.0000 0.06179  0.69120  0.44057  Biso   1.000  O
  O60      1.0000 0.56179  0.19120  0.44057  Biso   1.000  O
  O61      1.0000 0.93821  0.69120  0.05943  Biso   1.000  O
  O62      1.0000 0.43821  0.19120  0.05943  Biso   1.000  O
  O63      1.0000 0.93821  0.30880  0.55943  Biso   1.000  O
  O64      1.0000 0.43821  0.80880  0.55943  Biso   1.000  O
  O65      1.0000 0.12103  0.25860  0.13965  Biso   1.000  O
  O66      1.0000 0.62103  0.75860  0.13965  Biso   1.000  O
  O67      1.0000 0.12103  0.74140  0.63965  Biso   1.000  O
  O68      1.0000 0.62103  0.24140  0.63965  Biso   1.000  O
  O69      1.0000 0.87897  0.74140  0.86035  Biso   1.000  O
  O70      1.0000 0.37897  0.24140  0.86035  Biso   1.000  O
  O71      1.0000 0.87897  0.25860  0.36035  Biso   1.000  O
  O72      1.0000 0.37897  0.75860  0.36035  Biso   1.000  O
  O73      1.0000 0.19864  0.86410  0.04848  Biso   1.000  O
  O74      1.0000 0.69864  0.36410  0.04848  Biso   1.000  O
  O75      1.0000 0.19864  0.13590  0.54848  Biso   1.000  O
  O76      1.0000 0.69864  0.63590  0.54848  Biso   1.000  O
  O77      1.0000 0.80136  0.13590  0.95152  Biso   1.000  O
  O78      1.0000 0.30136  0.63590  0.95152  Biso   1.000  O
  O79      1.0000 0.80136  0.86410  0.45152  Biso   1.000  O
  O80      1.0000 0.30136  0.36410  0.45152  Biso   1.000  O
  O81      1.0000 0.23542  0.07440  0.07619  Biso   1.000  O
  O82      1.0000 0.73542  0.57440  0.07619  Biso   1.000  O
  O83      1.0000 0.23542  0.92560  0.57619  Biso   1.000  O
  O84      1.0000 0.73542  0.42560  0.57619  Biso   1.000  O
  O85      1.0000 0.76458  0.92560  0.92381  Biso   1.000  O
  O86      1.0000 0.26458  0.42560  0.92381  Biso   1.000  O
  O87      1.0000 0.76458  0.07440  0.42381  Biso   1.000  O
  O88      1.0000 0.26458  0.57440  0.42381  Biso   1.000  O
  O89      1.0000 0.19017  0.25800  0.88003  Biso   1.000  O
  O90      1.0000 0.69017  0.75800  0.88003  Biso   1.000  O
  O91      1.0000 0.19017  0.74200  0.38003  Biso   1.000  O
  O92      1.0000 0.69017  0.24200  0.38003  Biso   1.000  O
  O93      1.0000 0.80983  0.74200  0.11997  Biso   1.000  O
  O94      1.0000 0.30983  0.24200  0.11997  Biso   1.000  O
  O95      1.0000 0.80983  0.25800  0.61997  Biso   1.000  O
  O96      1.0000 0.30983  0.75800  0.61997  Biso   1.000  O
  O97      1.0000 0.13097  0.12230  0.80087  Biso   1.000  O
  O98      1.0000 0.63097  0.62230  0.80087  Biso   1.000  O
  O99      1.0000 0.13097  0.87770  0.30087  Biso   1.000  O
  O100     1.0000 0.63097  0.37770  0.30087  Biso   1.000  O
  O101     1.0000 0.86903  0.87770  0.19913  Biso   1.000  O
  O102     1.0000 0.36903  0.37770  0.19913  Biso   1.000  O
  O103     1.0000 0.86903  0.12230  0.69913  Biso   1.000  O
  O104     1.0000 0.36903  0.62230  0.69913  Biso   1.000  O
  O105     1.0000 0.05604  0.30300  0.80233  Biso   1.000  O
  O106     1.0000 0.55604  0.80300  0.80233  Biso   1.000  O
  O107     1.0000 0.05604  0.69700  0.30233  Biso   1.000  O
  O108     1.0000 0.55604  0.19700  0.30233  Biso   1.000  O
  O109     1.0000 0.94396  0.69700  0.19767  Biso   1.000  O
  O110     1.0000 0.44396  0.19700  0.19767  Biso   1.000  O
  O111     1.0000 0.94396  0.30300  0.69767  Biso   1.000  O
  O112     1.0000 0.44396  0.80300  0.69767  Biso   1.000  O
  O113     1.0000 0.08178  0.51120  0.88067  Biso   1.000  O
  O114     1.0000 0.58178  0.01120  0.88067  Biso   1.000  O
  O115     1.0000 0.08178  0.48880  0.38067  Biso   1.000  O
  O116     1.0000 0.58178  0.98880  0.38067  Biso   1.000  O
  O117     1.0000 0.91822  0.48880  0.11933  Biso   1.000  O
  O118     1.0000 0.41822  0.98880  0.11933  Biso   1.000  O
  O119     1.0000 0.91822  0.51120  0.61933  Biso   1.000  O
  O120     1.0000 0.41822  0.01120  0.61933  Biso   1.000  O
  O121     1.0000 0.07964  0.46020  0.06425  Biso   1.000  O
  O122     1.0000 0.57964  0.96020  0.06425  Biso   1.000  O
  O123     1.0000 0.07964  0.53980  0.56425  Biso   1.000  O
  O124     1.0000 0.57964  0.03980  0.56425  Biso   1.000  O
  O125     1.0000 0.92036  0.53980  0.93575  Biso   1.000  O
  O126     1.0000 0.42036  0.03980  0.93575  Biso   1.000  O
  O127     1.0000 0.92036  0.46020  0.43575  Biso   1.000  O
  O128     1.0000 0.42036  0.96020  0.43575  Biso   1.000  O
  O129     1.0000 0.04889  0.23780  0.05274  Biso   1.000  O
  O130     1.0000 0.54889  0.73780  0.05274  Biso   1.000  O
  O131     1.0000 0.04889  0.76220  0.55274  Biso   1.000  O
  O132     1.0000 0.54889  0.26220  0.55274  Biso   1.000  O
  O133     1.0000 0.95111  0.76220  0.94726  Biso   1.000  O
  O134     1.0000 0.45111  0.26220  0.94726  Biso   1.000  O
  O135     1.0000 0.95111  0.23780  0.44726  Biso   1.000  O
  O136     1.0000 0.45111  0.73780  0.44726  Biso   1.000  O
  O137     1.0000 0.18737  0.17060  0.24545  Biso   1.000  O
  O138     1.0000 0.68737  0.67060  0.24545  Biso   1.000  O
  O139     1.0000 0.18737  0.82940  0.74545  Biso   1.000  O
  O140     1.0000 0.68737  0.32940  0.74545  Biso   1.000  O
  O141     1.0000 0.81263  0.82940  0.75455  Biso   1.000  O
  O142     1.0000 0.31263  0.32940  0.75455  Biso   1.000  O
  O143     1.0000 0.81263  0.17060  0.25455  Biso   1.000  O
  O144     1.0000 0.31263  0.67060  0.25455  Biso   1.000  O
  O145     1.0000 0.17140  0.21620  0.00416  Biso   1.000  O
  O146     1.0000 0.67140  0.71620  0.00416  Biso   1.000  O
  O147     1.0000 0.17140  0.78380  0.50416  Biso   1.000  O
  O148     1.0000 0.67140  0.28380  0.50416  Biso   1.000  O
  O149     1.0000 0.82860  0.78380  0.99584  Biso   1.000  O
  O150     1.0000 0.32860  0.28380  0.99584  Biso   1.000  O
  O151     1.0000 0.82860  0.21620  0.49584  Biso   1.000  O
  O152     1.0000 0.32860  0.71620  0.49584  Biso   1.000  O
  O153     1.0000 0.17807  0.29660  0.12385  Biso   1.000  O
  O154     1.0000 0.67807  0.79660  0.12385  Biso   1.000  O
  O155     1.0000 0.17807  0.70340  0.62385  Biso   1.000  O
  O156     1.0000 0.67807  0.20340  0.62385  Biso   1.000  O
  O157     1.0000 0.82193  0.70340  0.87615  Biso   1.000  O
  O158     1.0000 0.32193  0.20340  0.87615  Biso   1.000  O
  O159     1.0000 0.82193  0.29660  0.37615  Biso   1.000  O
  O160     1.0000 0.32193  0.79660  0.37615  Biso   1.000  O
  O161     1.0000 0.13080  0.96140  0.98550  Biso   1.000  O
  O162     1.0000 0.63080  0.46140  0.98550  Biso   1.000  O
  O163     1.0000 0.13080  0.03860  0.48550  Biso   1.000  O
  O164     1.0000 0.63080  0.53860  0.48550  Biso   1.000  O
  O165     1.0000 0.86920  0.03860  0.01450  Biso   1.000  O
  O166     1.0000 0.36920  0.53860  0.01450  Biso   1.000  O
  O167     1.0000 0.86920  0.96140  0.51450  Biso   1.000  O
  O168     1.0000 0.36920  0.46140  0.51450  Biso   1.000  O
  O169     1.0000 0.10747  0.12540  0.03004  Biso   1.000  O
  O170     1.0000 0.60747  0.62540  0.03004  Biso   1.000  O
  O171     1.0000 0.10747  0.87460  0.53004  Biso   1.000  O
  O172     1.0000 0.60747  0.37460  0.53004  Biso   1.000  O
  O173     1.0000 0.89253  0.87460  0.96996  Biso   1.000  O
  O174     1.0000 0.39253  0.37460  0.96996  Biso   1.000  O
  O175     1.0000 0.89253  0.12540  0.46996  Biso   1.000  O
  O176     1.0000 0.39253  0.62540  0.46996  Biso   1.000  O
  O177     1.0000 0.21520  0.63840  0.06000  Biso   1.000  O
  O178     1.0000 0.71520  0.13840  0.06000  Biso   1.000  O
  O179     1.0000 0.21520  0.36160  0.56000  Biso   1.000  O
  O180     1.0000 0.71520  0.86160  0.56000  Biso   1.000  O
  O181     1.0000 0.78480  0.36160  0.94000  Biso   1.000  O
  O182     1.0000 0.28480  0.86160  0.94000  Biso   1.000  O
  O183     1.0000 0.78480  0.63840  0.44000  Biso   1.000  O
  O184     1.0000 0.28480  0.13840  0.44000  Biso   1.000  O
  H9       1.0000 0.21670  0.63570  0.02060  Biso   1.000  H
  H10      1.0000 0.71670  0.13570  0.02060  Biso   1.000  H
  H11      1.0000 0.21670  0.36430  0.52060  Biso   1.000  H
  H12      1.0000 0.71670  0.86430  0.52060  Biso   1.000  H
  H13      1.0000 0.78330  0.36430  0.97940  Biso   1.000  H
  H14      1.0000 0.28330  0.86430  0.97940  Biso   1.000  H
  H15      1.0000 0.78330  0.63570  0.47940  Biso   1.000  H
  H16      1.0000 0.28330  0.13570  0.47940  Biso   1.000  H
  O185     1.0000 0.16568  0.60220  0.06610  Biso   1.000  O
  O186     1.0000 0.66568  0.10220  0.06610  Biso   1.000  O
  O187     1.0000 0.16568  0.39780  0.56610  Biso   1.000  O
  O188     1.0000 0.66568  0.89780  0.56610  Biso   1.000  O
  O189     1.0000 0.83432  0.39780  0.93390  Biso   1.000  O
  O190     1.0000 0.33432  0.89780  0.93390  Biso   1.000  O
  O191     1.0000 0.83432  0.60220  0.43390  Biso   1.000  O
  O192     1.0000 0.33432  0.10220  0.43390  Biso   1.000  O
  O193     1.0000 0.24010  0.36200  0.03720  Biso   1.000  O
  O194     1.0000 0.74010  0.86200  0.03720  Biso   1.000  O
  O195     1.0000 0.24010  0.63800  0.53720  Biso   1.000  O
  O196     1.0000 0.74010  0.13800  0.53720  Biso   1.000  O
  O197     1.0000 0.75990  0.63800  0.96280  Biso   1.000  O
  O198     1.0000 0.25990  0.13800  0.96280  Biso   1.000  O
  O199     1.0000 0.75990  0.36200  0.46280  Biso   1.000  O
  O200     1.0000 0.25990  0.86200  0.46280  Biso   1.000  O
  H17      1.0000 0.24750  0.29270  0.05720  Biso   1.000  H
  H18      1.0000 0.74750  0.79270  0.05720  Biso   1.000  H
  H19      1.0000 0.24750  0.70730  0.55720  Biso   1.000  H
  H20      1.0000 0.74750  0.20730  0.55720  Biso   1.000  H
  H21      1.0000 0.75250  0.70730  0.94280  Biso   1.000  H
  H22      1.0000 0.25250  0.20730  0.94280  Biso   1.000  H
  H23      1.0000 0.75250  0.29270  0.44280  Biso   1.000  H
  H24      1.0000 0.25250  0.79270  0.44280  Biso   1.000  H
  O201     1.0000 0.25180  0.46380  0.13880  Biso   1.000  O
  O202     1.0000 0.75180  0.96380  0.13880  Biso   1.000  O
  O203     1.0000 0.25180  0.53620  0.63880  Biso   1.000  O
  O204     1.0000 0.75180  0.03620  0.63880  Biso   1.000  O
  O205     1.0000 0.74820  0.53620  0.86120  Biso   1.000  O
  O206     1.0000 0.24820  0.03620  0.86120  Biso   1.000  O
  O207     1.0000 0.74820  0.46380  0.36120  Biso   1.000  O
  O208     1.0000 0.24820  0.96380  0.36120  Biso   1.000  O
  O209     1.0000 0.04074  0.98190  0.27960  Biso   1.000  O
  O210     1.0000 0.54074  0.48190  0.27960  Biso   1.000  O
  O211     1.0000 0.04074  0.01810  0.77960  Biso   1.000  O
  O212     1.0000 0.54074  0.51810  0.77960  Biso   1.000  O
  O213     1.0000 0.95926  0.01810  0.72040  Biso   1.000  O
  O214     1.0000 0.45926  0.51810  0.72040  Biso   1.000  O
  O215     1.0000 0.95926  0.98190  0.22040  Biso   1.000  O
  O216     1.0000 0.45926  0.48190  0.22040  Biso   1.000  O
  O217     1.0000 0.08710  0.24780  0.35947  Biso   1.000  O
  O218     1.0000 0.58710  0.74780  0.35947  Biso   1.000  O
  O219     1.0000 0.08710  0.75220  0.85947  Biso   1.000  O
  O220     1.0000 0.58710  0.25220  0.85947  Biso   1.000  O
  O221     1.0000 0.91290  0.75220  0.64053  Biso   1.000  O
  O222     1.0000 0.41290  0.25220  0.64053  Biso   1.000  O
  O223     1.0000 0.91290  0.24780  0.14053  Biso   1.000  O
  O224     1.0000 0.41290  0.74780  0.14053  Biso   1.000  O
  O225     1.0000 0.08723  0.09250  0.24668  Biso   1.000  O
  O226     1.0000 0.58723  0.59250  0.24668  Biso   1.000  O
  O227     1.0000 0.08723  0.90750  0.74668  Biso   1.000  O
  O228     1.0000 0.58723  0.40750  0.74668  Biso   1.000  O
  O229     1.0000 0.91277  0.90750  0.75332  Biso   1.000  O
  O230     1.0000 0.41277  0.40750  0.75332  Biso   1.000  O
  O231     1.0000 0.91277  0.09250  0.25332  Biso   1.000  O
  O232     1.0000 0.41277  0.59250  0.25332  Biso   1.000  O
  O233     1.0000 0.11686  0.76470  0.05882  Biso   1.000  O
  O234     1.0000 0.61686  0.26470  0.05882  Biso   1.000  O
  O235     1.0000 0.11686  0.23530  0.55882  Biso   1.000  O
  O236     1.0000 0.61686  0.73530  0.55882  Biso   1.000  O
  O237     1.0000 0.88314  0.23530  0.94118  Biso   1.000  O
  O238     1.0000 0.38314  0.73530  0.94118  Biso   1.000  O
  O239     1.0000 0.88314  0.76470  0.44118  Biso   1.000  O
  O240     1.0000 0.38314  0.26470  0.44118  Biso   1.000  O
  N1       1.0000 0.17382  0.75780  0.21786  Biso   1.000  N
  N2       1.0000 0.67382  0.25780  0.21786  Biso   1.000  N
  N3       1.0000 0.17382  0.24220  0.71786  Biso   1.000  N
  N4       1.0000 0.67382  0.74220  0.71786  Biso   1.000  N
  N5       1.0000 0.82618  0.24220  0.78214  Biso   1.000  N
  N6       1.0000 0.32618  0.74220  0.78214  Biso   1.000  N
  N7       1.0000 0.82618  0.75780  0.28214  Biso   1.000  N
  N8       1.0000 0.32618  0.25780  0.28214  Biso   1.000  N
  N9       1.0000 0.11406  0.66450  0.19631  Biso   1.000  N
  N10      1.0000 0.61406  0.16450  0.19631  Biso   1.000  N
  N11      1.0000 0.11406  0.33550  0.69631  Biso   1.000  N
  N12      1.0000 0.61406  0.83550  0.69631  Biso   1.000  N
  N13      1.0000 0.88594  0.33550  0.80369  Biso   1.000  N
  N14      1.0000 0.38594  0.83550  0.80369  Biso   1.000  N
  N15      1.0000 0.88594  0.66450  0.30369  Biso   1.000  N
  N16      1.0000 0.38594  0.16450  0.30369  Biso   1.000  N
  N17      1.0000 0.07264  0.84600  0.13465  Biso   1.000  N
  N18      1.0000 0.57264  0.34600  0.13465  Biso   1.000  N
  N19      1.0000 0.07264  0.15400  0.63465  Biso   1.000  N
  N20      1.0000 0.57264  0.65400  0.63465  Biso   1.000  N
  N21      1.0000 0.92736  0.15400  0.86535  Biso   1.000  N
  N22      1.0000 0.42736  0.65400  0.86535  Biso   1.000  N
  N23      1.0000 0.92736  0.84600  0.36535  Biso   1.000  N
  N24      1.0000 0.42736  0.34600  0.36535  Biso   1.000  N
  N25      1.0000 0.14584  0.28190  0.31600  Biso   1.000  N
  N26      1.0000 0.64584  0.78190  0.31600  Biso   1.000  N
  N27      1.0000 0.14584  0.71810  0.81600  Biso   1.000  N
  N28      1.0000 0.64584  0.21810  0.81600  Biso   1.000  N
  N29      1.0000 0.85416  0.71810  0.68400  Biso   1.000  N
  N30      1.0000 0.35416  0.21810  0.68400  Biso   1.000  N
  N31      1.0000 0.85416  0.28190  0.18400  Biso   1.000  N
  N32      1.0000 0.35416  0.78190  0.18400  Biso   1.000  N
  N33      1.0000 0.10124  0.44670  0.23674  Biso   1.000  N
  N34      1.0000 0.60124  0.94670  0.23674  Biso   1.000  N
  N35      1.0000 0.10124  0.55330  0.73674  Biso   1.000  N
  N36      1.0000 0.60124  0.05330  0.73674  Biso   1.000  N
  N37      1.0000 0.89876  0.55330  0.76326  Biso   1.000  N
  N38      1.0000 0.39876  0.05330  0.76326  Biso   1.000  N
  N39      1.0000 0.89876  0.44670  0.26326  Biso   1.000  N
  N40      1.0000 0.39876  0.94670  0.26326  Biso   1.000  N
  N41      1.0000 0.04357  0.32760  0.19393  Biso   1.000  N
  N42      1.0000 0.54357  0.82760  0.19393  Biso   1.000  N
  N43      1.0000 0.04357  0.67240  0.69393  Biso   1.000  N
  N44      1.0000 0.54357  0.17240  0.69393  Biso   1.000  N
  N45      1.0000 0.95643  0.67240  0.80607  Biso   1.000  N
  N46      1.0000 0.45643  0.17240  0.80607  Biso   1.000  N
  N47      1.0000 0.95643  0.32760  0.30607  Biso   1.000  N
  N48      1.0000 0.45643  0.82760  0.30607  Biso   1.000  N
  C1       1.0000 0.20279  0.80850  0.21970  Biso   1.000  C
  C2       1.0000 0.70279  0.30850  0.21970  Biso   1.000  C
  C3       1.0000 0.20279  0.19150  0.71970  Biso   1.000  C
  C4       1.0000 0.70279  0.69150  0.71970  Biso   1.000  C
  C5       1.0000 0.79721  0.19150  0.78030  Biso   1.000  C
  C6       1.0000 0.29721  0.69150  0.78030  Biso   1.000  C
  C7       1.0000 0.79721  0.80850  0.28030  Biso   1.000  C
  C8       1.0000 0.29721  0.30850  0.28030  Biso   1.000  C
  H25      1.0000 0.20260  0.89530  0.21060  Biso   1.000  H
  H26      1.0000 0.70260  0.39530  0.21060  Biso   1.000  H
  H27      1.0000 0.20260  0.10470  0.71060  Biso   1.000  H
  H28      1.0000 0.70260  0.60470  0.71060  Biso   1.000  H
  H29      1.0000 0.79740  0.10470  0.78940  Biso   1.000  H
  H30      1.0000 0.29740  0.60470  0.78940  Biso   1.000  H
  H31      1.0000 0.79740  0.89530  0.28940  Biso   1.000  H
  H32      1.0000 0.29740  0.39530  0.28940  Biso   1.000  H
  C9       1.0000 0.23297  0.74220  0.23410  Biso   1.000  C
  C10      1.0000 0.73297  0.24220  0.23410  Biso   1.000  C
  C11      1.0000 0.23297  0.25780  0.73410  Biso   1.000  C
  C12      1.0000 0.73297  0.75780  0.73410  Biso   1.000  C
  C13      1.0000 0.76703  0.25780  0.76590  Biso   1.000  C
  C14      1.0000 0.26703  0.75780  0.76590  Biso   1.000  C
  C15      1.0000 0.76703  0.74220  0.26590  Biso   1.000  C
  C16      1.0000 0.26703  0.24220  0.26590  Biso   1.000  C
  H33      1.0000 0.25350  0.78280  0.23750  Biso   1.000  H
  H34      1.0000 0.75350  0.28280  0.23750  Biso   1.000  H
  H35      1.0000 0.25350  0.21720  0.73750  Biso   1.000  H
  H36      1.0000 0.75350  0.71720  0.73750  Biso   1.000  H
  H37      1.0000 0.74650  0.21720  0.76250  Biso   1.000  H
  H38      1.0000 0.24650  0.71720  0.76250  Biso   1.000  H
  H39      1.0000 0.74650  0.78280  0.26250  Biso   1.000  H
  H40      1.0000 0.24650  0.28280  0.26250  Biso   1.000  H
  C17      1.0000 0.23257  0.61630  0.24340  Biso   1.000  C
  C18      1.0000 0.73257  0.11630  0.24340  Biso   1.000  C
  C19      1.0000 0.23257  0.38370  0.74340  Biso   1.000  C
  C20      1.0000 0.73257  0.88370  0.74340  Biso   1.000  C
  C21      1.0000 0.76743  0.38370  0.75660  Biso   1.000  C
  C22      1.0000 0.26743  0.88370  0.75660  Biso   1.000  C
  C23      1.0000 0.76743  0.61630  0.25660  Biso   1.000  C
  C24      1.0000 0.26743  0.11630  0.25660  Biso   1.000  C
  H41      1.0000 0.25270  0.56780  0.25170  Biso   1.000  H
  H42      1.0000 0.75270  0.06780  0.25170  Biso   1.000  H
  H43      1.0000 0.25270  0.43220  0.75170  Biso   1.000  H
  H44      1.0000 0.75270  0.93220  0.75170  Biso   1.000  H
  H45      1.0000 0.74730  0.43220  0.74830  Biso   1.000  H
  H46      1.0000 0.24730  0.93220  0.74830  Biso   1.000  H
  H47      1.0000 0.74730  0.56780  0.24830  Biso   1.000  H
  H48      1.0000 0.24730  0.06780  0.24830  Biso   1.000  H
  C25      1.0000 0.20268  0.55940  0.24060  Biso   1.000  C
  C26      1.0000 0.70268  0.05940  0.24060  Biso   1.000  C
  C27      1.0000 0.20268  0.44060  0.74060  Biso   1.000  C
  C28      1.0000 0.70268  0.94060  0.74060  Biso   1.000  C
  C29      1.0000 0.79732  0.44060  0.75940  Biso   1.000  C
  C30      1.0000 0.29732  0.94060  0.75940  Biso   1.000  C
  C31      1.0000 0.79732  0.55940  0.25940  Biso   1.000  C
  C32      1.0000 0.29732  0.05940  0.25940  Biso   1.000  C
  H49      1.0000 0.20160  0.47160  0.24470  Biso   1.000  H
  H50      1.0000 0.70160  0.97160  0.24470  Biso   1.000  H
  H51      1.0000 0.20160  0.52840  0.74470  Biso   1.000  H
  H52      1.0000 0.70160  0.02840  0.74470  Biso   1.000  H
  H53      1.0000 0.79840  0.52840  0.75530  Biso   1.000  H
  H54      1.0000 0.29840  0.02840  0.75530  Biso   1.000  H
  H55      1.0000 0.79840  0.47160  0.25530  Biso   1.000  H
  H56      1.0000 0.29840  0.97160  0.25530  Biso   1.000  H
  C33      1.0000 0.17445  0.63370  0.23180  Biso   1.000  C
  C34      1.0000 0.67445  0.13370  0.23180  Biso   1.000  C
  C35      1.0000 0.17445  0.36630  0.73180  Biso   1.000  C
  C36      1.0000 0.67445  0.86630  0.73180  Biso   1.000  C
  C37      1.0000 0.82555  0.36630  0.76820  Biso   1.000  C
  C38      1.0000 0.32555  0.86630  0.76820  Biso   1.000  C
  C39      1.0000 0.82555  0.63370  0.26820  Biso   1.000  C
  C40      1.0000 0.32555  0.13370  0.26820  Biso   1.000  C
  C41      1.0000 0.14132  0.58850  0.23040  Biso   1.000  C
  C42      1.0000 0.64132  0.08850  0.23040  Biso   1.000  C
  C43      1.0000 0.14132  0.41150  0.73040  Biso   1.000  C
  C44      1.0000 0.64132  0.91150  0.73040  Biso   1.000  C
  C45      1.0000 0.85868  0.41150  0.76960  Biso   1.000  C
  C46      1.0000 0.35868  0.91150  0.76960  Biso   1.000  C
  C47      1.0000 0.85868  0.58850  0.26960  Biso   1.000  C
  C48      1.0000 0.35868  0.08850  0.26960  Biso   1.000  C
  C49      1.0000 0.13507  0.48050  0.26120  Biso   1.000  C
  C50      1.0000 0.63507  0.98050  0.26120  Biso   1.000  C
  C51      1.0000 0.13507  0.51950  0.76120  Biso   1.000  C
  C52      1.0000 0.63507  0.01950  0.76120  Biso   1.000  C
  C53      1.0000 0.86493  0.51950  0.73880  Biso   1.000  C
  C54      1.0000 0.36493  0.01950  0.73880  Biso   1.000  C
  C55      1.0000 0.86493  0.48050  0.23880  Biso   1.000  C
  C56      1.0000 0.36493  0.98050  0.23880  Biso   1.000  C
  C57      1.0000 0.16028  0.39400  0.31500  Biso   1.000  C
  C58      1.0000 0.66028  0.89400  0.31500  Biso   1.000  C
  C59      1.0000 0.16028  0.60600  0.81500  Biso   1.000  C
  C60      1.0000 0.66028  0.10600  0.81500  Biso   1.000  C
  C61      1.0000 0.83972  0.60600  0.68500  Biso   1.000  C
  C62      1.0000 0.33972  0.10600  0.68500  Biso   1.000  C
  C63      1.0000 0.83972  0.39400  0.18500  Biso   1.000  C
  C64      1.0000 0.33972  0.89400  0.18500  Biso   1.000  C
  C65      1.0000 0.19482  0.42220  0.36240  Biso   1.000  C
  C66      1.0000 0.69482  0.92220  0.36240  Biso   1.000  C
  C67      1.0000 0.19482  0.57780  0.86240  Biso   1.000  C
  C68      1.0000 0.69482  0.07780  0.86240  Biso   1.000  C
  C69      1.0000 0.80518  0.57780  0.63760  Biso   1.000  C
  C70      1.0000 0.30518  0.07780  0.63760  Biso   1.000  C
  C71      1.0000 0.80518  0.42220  0.13760  Biso   1.000  C
  C72      1.0000 0.30518  0.92220  0.13760  Biso   1.000  C
  H57      1.0000 0.20370  0.50390  0.36430  Biso   1.000  H
  H58      1.0000 0.70370  0.00390  0.36430  Biso   1.000  H
  H59      1.0000 0.20370  0.49610  0.86430  Biso   1.000  H
  H60      1.0000 0.70370  0.99610  0.86430  Biso   1.000  H
  H61      1.0000 0.79630  0.49610  0.63570  Biso   1.000  H
  H62      1.0000 0.29630  0.99610  0.63570  Biso   1.000  H
  H63      1.0000 0.79630  0.50390  0.13570  Biso   1.000  H
  H64      1.0000 0.29630  0.00390  0.13570  Biso   1.000  H
  C73      1.0000 0.21656  0.32870  0.40760  Biso   1.000  C
  C74      1.0000 0.71656  0.82870  0.40760  Biso   1.000  C
  C75      1.0000 0.21656  0.67130  0.90760  Biso   1.000  C
  C76      1.0000 0.71656  0.17130  0.90760  Biso   1.000  C
  C77      1.0000 0.78344  0.67130  0.59240  Biso   1.000  C
  C78      1.0000 0.28344  0.17130  0.59240  Biso   1.000  C
  C79      1.0000 0.78344  0.32870  0.09240  Biso   1.000  C
  C80      1.0000 0.28344  0.82870  0.09240  Biso   1.000  C
  H65      1.0000 0.24070  0.34530  0.44000  Biso   1.000  H
  H66      1.0000 0.74070  0.84530  0.44000  Biso   1.000  H
  H67      1.0000 0.24070  0.65470  0.94000  Biso   1.000  H
  H68      1.0000 0.74070  0.15470  0.94000  Biso   1.000  H
  H69      1.0000 0.75930  0.65470  0.56000  Biso   1.000  H
  H70      1.0000 0.25930  0.15470  0.56000  Biso   1.000  H
  H71      1.0000 0.75930  0.34530  0.06000  Biso   1.000  H
  H72      1.0000 0.25930  0.84530  0.06000  Biso   1.000  H
  C81      1.0000 0.20252  0.21130  0.40460  Biso   1.000  C
  C82      1.0000 0.70252  0.71130  0.40460  Biso   1.000  C
  C83      1.0000 0.20252  0.78870  0.90460  Biso   1.000  C
  C84      1.0000 0.70252  0.28870  0.90460  Biso   1.000  C
  C85      1.0000 0.79748  0.78870  0.59540  Biso   1.000  C
  C86      1.0000 0.29748  0.28870  0.59540  Biso   1.000  C
  C87      1.0000 0.79748  0.21130  0.09540  Biso   1.000  C
  C88      1.0000 0.29748  0.71130  0.09540  Biso   1.000  C
  H73      1.0000 0.21710  0.14450  0.43240  Biso   1.000  H
  H74      1.0000 0.71710  0.64450  0.43240  Biso   1.000  H
  H75      1.0000 0.21710  0.85550  0.93240  Biso   1.000  H
  H76      1.0000 0.71710  0.35550  0.93240  Biso   1.000  H
  H77      1.0000 0.78290  0.85550  0.56760  Biso   1.000  H
  H78      1.0000 0.28290  0.35550  0.56760  Biso   1.000  H
  H79      1.0000 0.78290  0.14450  0.06760  Biso   1.000  H
  H80      1.0000 0.28290  0.64450  0.06760  Biso   1.000  H
  C89      1.0000 0.16631  0.19340  0.35970  Biso   1.000  C
  C90      1.0000 0.66631  0.69340  0.35970  Biso   1.000  C
  C91      1.0000 0.16631  0.80660  0.85970  Biso   1.000  C
  C92      1.0000 0.66631  0.30660  0.85970  Biso   1.000  C
  C93      1.0000 0.83369  0.80660  0.64030  Biso   1.000  C
  C94      1.0000 0.33369  0.30660  0.64030  Biso   1.000  C
  C95      1.0000 0.83369  0.19340  0.14030  Biso   1.000  C
  C96      1.0000 0.33369  0.69340  0.14030  Biso   1.000  C
  H81      1.0000 0.15610  0.11520  0.36060  Biso   1.000  H
  H82      1.0000 0.65610  0.61520  0.36060  Biso   1.000  H
  H83      1.0000 0.15610  0.88480  0.86060  Biso   1.000  H
  H84      1.0000 0.65610  0.38480  0.86060  Biso   1.000  H
  H85      1.0000 0.84390  0.88480  0.63940  Biso   1.000  H
  H86      1.0000 0.34390  0.38480  0.63940  Biso   1.000  H
  H87      1.0000 0.84390  0.11520  0.13940  Biso   1.000  H
  H88      1.0000 0.34390  0.61520  0.13940  Biso   1.000  H
  C97      1.0000 0.01567  0.25150  0.17000  Biso   1.000  C
  C98      1.0000 0.51567  0.75150  0.17000  Biso   1.000  C
  C99      1.0000 0.01567  0.74850  0.67000  Biso   1.000  C
  C100     1.0000 0.51567  0.24850  0.67000  Biso   1.000  C
  C101     1.0000 0.98433  0.74850  0.83000  Biso   1.000  C
  C102     1.0000 0.48433  0.24850  0.83000  Biso   1.000  C
  C103     1.0000 0.98433  0.25150  0.33000  Biso   1.000  C
  C104     1.0000 0.48433  0.75150  0.33000  Biso   1.000  C
  H89      1.0000 0.01790  0.17480  0.19470  Biso   1.000  H
  H90      1.0000 0.51790  0.67480  0.19470  Biso   1.000  H
  H91      1.0000 0.01790  0.82520  0.69470  Biso   1.000  H
  H92      1.0000 0.51790  0.32520  0.69470  Biso   1.000  H
  H93      1.0000 0.98210  0.82520  0.80530  Biso   1.000  H
  H94      1.0000 0.48210  0.32520  0.80530  Biso   1.000  H
  H95      1.0000 0.98210  0.17480  0.30530  Biso   1.000  H
  H96      1.0000 0.48210  0.67480  0.30530  Biso   1.000  H
  C105     1.0000 0.98366  0.28000  0.11060  Biso   1.000  C
  C106     1.0000 0.48366  0.78000  0.11060  Biso   1.000  C
  C107     1.0000 0.98366  0.72000  0.61060  Biso   1.000  C
  C108     1.0000 0.48366  0.22000  0.61060  Biso   1.000  C
  C109     1.0000 0.01634  0.72000  0.88940  Biso   1.000  C
  C110     1.0000 0.51634  0.22000  0.88940  Biso   1.000  C
  C111     1.0000 0.01634  0.28000  0.38940  Biso   1.000  C
  C112     1.0000 0.51634  0.78000  0.38940  Biso   1.000  C
  H97      1.0000 0.96420  0.22450  0.09520  Biso   1.000  H
  H98      1.0000 0.46420  0.72450  0.09520  Biso   1.000  H
  H99      1.0000 0.96420  0.77550  0.59520  Biso   1.000  H
  H100     1.0000 0.46420  0.27550  0.59520  Biso   1.000  H
  H101     1.0000 0.03580  0.77550  0.90480  Biso   1.000  H
  H102     1.0000 0.53580  0.27550  0.90480  Biso   1.000  H
  H103     1.0000 0.03580  0.22450  0.40480  Biso   1.000  H
  H104     1.0000 0.53580  0.72450  0.40480  Biso   1.000  H
  C113     1.0000 0.98075  0.38980  0.07460  Biso   1.000  C
  C114     1.0000 0.48075  0.88980  0.07460  Biso   1.000  C
  C115     1.0000 0.98075  0.61020  0.57460  Biso   1.000  C
  C116     1.0000 0.48075  0.11020  0.57460  Biso   1.000  C
  C117     1.0000 0.01925  0.61020  0.92540  Biso   1.000  C
  C118     1.0000 0.51925  0.11020  0.92540  Biso   1.000  C
  C119     1.0000 0.01925  0.38980  0.42540  Biso   1.000  C
  C120     1.0000 0.51925  0.88980  0.42540  Biso   1.000  C
  H105     1.0000 0.95930  0.41000  0.03270  Biso   1.000  H
  H106     1.0000 0.45930  0.91000  0.03270  Biso   1.000  H
  H107     1.0000 0.95930  0.59000  0.53270  Biso   1.000  H
  H108     1.0000 0.45930  0.09000  0.53270  Biso   1.000  H
  H109     1.0000 0.04070  0.59000  0.96730  Biso   1.000  H
  H110     1.0000 0.54070  0.09000  0.96730  Biso   1.000  H
  H111     1.0000 0.04070  0.41000  0.46730  Biso   1.000  H
  H112     1.0000 0.54070  0.91000  0.46730  Biso   1.000  H
  C121     1.0000 0.00914  0.47170  0.09960  Biso   1.000  C
  C122     1.0000 0.50914  0.97170  0.09960  Biso   1.000  C
  C123     1.0000 0.00914  0.52830  0.59960  Biso   1.000  C
  C124     1.0000 0.50914  0.02830  0.59960  Biso   1.000  C
  C125     1.0000 0.99086  0.52830  0.90040  Biso   1.000  C
  C126     1.0000 0.49086  0.02830  0.90040  Biso   1.000  C
  C127     1.0000 0.99086  0.47170  0.40040  Biso   1.000  C
  C128     1.0000 0.49086  0.97170  0.40040  Biso   1.000  C
  H113     1.0000 0.00740  0.54830  0.07500  Biso   1.000  H
  H114     1.0000 0.50740  0.04830  0.07500  Biso   1.000  H
  H115     1.0000 0.00740  0.45170  0.57500  Biso   1.000  H
  H116     1.0000 0.50740  0.95170  0.57500  Biso   1.000  H
  H117     1.0000 0.99260  0.45170  0.92500  Biso   1.000  H
  H118     1.0000 0.49260  0.95170  0.92500  Biso   1.000  H
  H119     1.0000 0.99260  0.54830  0.42500  Biso   1.000  H
  H120     1.0000 0.49260  0.04830  0.42500  Biso   1.000  H
  C129     1.0000 0.04000  0.44020  0.16070  Biso   1.000  C
  C130     1.0000 0.54000  0.94020  0.16070  Biso   1.000  C
  C131     1.0000 0.04000  0.55980  0.66070  Biso   1.000  C
  C132     1.0000 0.54000  0.05980  0.66070  Biso   1.000  C
  C133     1.0000 0.96000  0.55980  0.83930  Biso   1.000  C
  C134     1.0000 0.46000  0.05980  0.83930  Biso   1.000  C
  C135     1.0000 0.96000  0.44020  0.33930  Biso   1.000  C
  C136     1.0000 0.46000  0.94020  0.33930  Biso   1.000  C
  C137     1.0000 0.07325  0.51420  0.19220  Biso   1.000  C
  C138     1.0000 0.57325  0.01420  0.19220  Biso   1.000  C
  C139     1.0000 0.07325  0.48580  0.69220  Biso   1.000  C
  C140     1.0000 0.57325  0.98580  0.69220  Biso   1.000  C
  C141     1.0000 0.92675  0.48580  0.80780  Biso   1.000  C
  C142     1.0000 0.42675  0.98580  0.80780  Biso   1.000  C
  C143     1.0000 0.92675  0.51420  0.30780  Biso   1.000  C
  C144     1.0000 0.42675  0.01420  0.30780  Biso   1.000  C
  C145     1.0000 0.08048  0.63910  0.17930  Biso   1.000  C
  C146     1.0000 0.58048  0.13910  0.17930  Biso   1.000  C
  C147     1.0000 0.08048  0.36090  0.67930  Biso   1.000  C
  C148     1.0000 0.58048  0.86090  0.67930  Biso   1.000  C
  C149     1.0000 0.91952  0.36090  0.82070  Biso   1.000  C
  C150     1.0000 0.41952  0.86090  0.82070  Biso   1.000  C
  C151     1.0000 0.91952  0.63910  0.32070  Biso   1.000  C
  C152     1.0000 0.41952  0.13910  0.32070  Biso   1.000  C
  C153     1.0000 0.05664  0.74820  0.14940  Biso   1.000  C
  C154     1.0000 0.55664  0.24820  0.14940  Biso   1.000  C
  C155     1.0000 0.05664  0.25180  0.64940  Biso   1.000  C
  C156     1.0000 0.55664  0.75180  0.64940  Biso   1.000  C
  C157     1.0000 0.94336  0.25180  0.85060  Biso   1.000  C
  C158     1.0000 0.44336  0.75180  0.85060  Biso   1.000  C
  C159     1.0000 0.94336  0.74820  0.35060  Biso   1.000  C
  C160     1.0000 0.44336  0.24820  0.35060  Biso   1.000  C
  C161     1.0000 0.02258  0.75680  0.14010  Biso   1.000  C
  C162     1.0000 0.52258  0.25680  0.14010  Biso   1.000  C
  C163     1.0000 0.02258  0.24320  0.64010  Biso   1.000  C
  C164     1.0000 0.52258  0.74320  0.64010  Biso   1.000  C
  C165     1.0000 0.97742  0.24320  0.85990  Biso   1.000  C
  C166     1.0000 0.47742  0.74320  0.85990  Biso   1.000  C
  C167     1.0000 0.97742  0.75680  0.35990  Biso   1.000  C
  C168     1.0000 0.47742  0.25680  0.35990  Biso   1.000  C
  H121     1.0000 0.01240  0.69030  0.15440  Biso   1.000  H
  H122     1.0000 0.51240  0.19030  0.15440  Biso   1.000  H
  H123     1.0000 0.01240  0.30970  0.65440  Biso   1.000  H
  H124     1.0000 0.51240  0.80970  0.65440  Biso   1.000  H
  H125     1.0000 0.98760  0.30970  0.84560  Biso   1.000  H
  H126     1.0000 0.48760  0.80970  0.84560  Biso   1.000  H
  H127     1.0000 0.98760  0.69030  0.34560  Biso   1.000  H
  H128     1.0000 0.48760  0.19030  0.34560  Biso   1.000  H
  C169     1.0000 0.00326  0.86460  0.10930  Biso   1.000  C
  C170     1.0000 0.50326  0.36460  0.10930  Biso   1.000  C
  C171     1.0000 0.00326  0.13540  0.60930  Biso   1.000  C
  C172     1.0000 0.50326  0.63540  0.60930  Biso   1.000  C
  C173     1.0000 0.99674  0.13540  0.89070  Biso   1.000  C
  C174     1.0000 0.49674  0.63540  0.89070  Biso   1.000  C
  C175     1.0000 0.99674  0.86460  0.39070  Biso   1.000  C
  C176     1.0000 0.49674  0.36460  0.39070  Biso   1.000  C
  H129     1.0000 0.97950  0.87200  0.10170  Biso   1.000  H
  H130     1.0000 0.47950  0.37200  0.10170  Biso   1.000  H
  H131     1.0000 0.97950  0.12800  0.60170  Biso   1.000  H
  H132     1.0000 0.47950  0.62800  0.60170  Biso   1.000  H
  H133     1.0000 0.02050  0.12800  0.89830  Biso   1.000  H
  H134     1.0000 0.52050  0.62800  0.89830  Biso   1.000  H
  H135     1.0000 0.02050  0.87200  0.39830  Biso   1.000  H
  H136     1.0000 0.52050  0.37200  0.39830  Biso   1.000  H
  C177     1.0000 0.01896  0.96020  0.09010  Biso   1.000  C
  C178     1.0000 0.51896  0.46020  0.09010  Biso   1.000  C
  C179     1.0000 0.01896  0.03980  0.59010  Biso   1.000  C
  C180     1.0000 0.51896  0.53980  0.59010  Biso   1.000  C
  C181     1.0000 0.98104  0.03980  0.90990  Biso   1.000  C
  C182     1.0000 0.48104  0.53980  0.90990  Biso   1.000  C
  C183     1.0000 0.98104  0.96020  0.40990  Biso   1.000  C
  C184     1.0000 0.48104  0.46020  0.40990  Biso   1.000  C
  H137     1.0000 0.00590  0.03300  0.06720  Biso   1.000  H
  H138     1.0000 0.50590  0.53300  0.06720  Biso   1.000  H
  H139     1.0000 0.00590  0.96700  0.56720  Biso   1.000  H
  H140     1.0000 0.50590  0.46700  0.56720  Biso   1.000  H
  H141     1.0000 0.99410  0.96700  0.93280  Biso   1.000  H
  H142     1.0000 0.49410  0.46700  0.93280  Biso   1.000  H
  H143     1.0000 0.99410  0.03300  0.43280  Biso   1.000  H
  H144     1.0000 0.49410  0.53300  0.43280  Biso   1.000  H
  C185     1.0000 0.05418  0.94880  0.10450  Biso   1.000  C
  C186     1.0000 0.55418  0.44880  0.10450  Biso   1.000  C
  C187     1.0000 0.05418  0.05120  0.60450  Biso   1.000  C
  C188     1.0000 0.55418  0.55120  0.60450  Biso   1.000  C
  C189     1.0000 0.94582  0.05120  0.89550  Biso   1.000  C
  C190     1.0000 0.44582  0.55120  0.89550  Biso   1.000  C
  C191     1.0000 0.94582  0.94880  0.39550  Biso   1.000  C
  C192     1.0000 0.44582  0.44880  0.39550  Biso   1.000  C
  H145     1.0000 0.06530  0.01570  0.09260  Biso   1.000  H
  H146     1.0000 0.56530  0.51570  0.09260  Biso   1.000  H
  H147     1.0000 0.06530  0.98430  0.59260  Biso   1.000  H
  H148     1.0000 0.56530  0.48430  0.59260  Biso   1.000  H
  H149     1.0000 0.93470  0.98430  0.90740  Biso   1.000  H
  H150     1.0000 0.43470  0.48430  0.90740  Biso   1.000  H
  H151     1.0000 0.93470  0.01570  0.40740  Biso   1.000  H
  H152     1.0000 0.43470  0.51570  0.40740  Biso   1.000  H
  C193     1.0000 0.18943  0.56560  0.05520  Biso   1.000  C
  C194     1.0000 0.68943  0.06560  0.05520  Biso   1.000  C
  C195     1.0000 0.18943  0.43440  0.55520  Biso   1.000  C
  C196     1.0000 0.68943  0.93440  0.55520  Biso   1.000  C
  C197     1.0000 0.81057  0.43440  0.94480  Biso   1.000  C
  C198     1.0000 0.31057  0.93440  0.94480  Biso   1.000  C
  C199     1.0000 0.81057  0.56560  0.44480  Biso   1.000  C
  C200     1.0000 0.31057  0.06560  0.44480  Biso   1.000  C
  C201     1.0000 0.23200  0.43200  0.08000  Biso   1.000  C
  C202     1.0000 0.73200  0.93200  0.08000  Biso   1.000  C
  C203     1.0000 0.23200  0.56800  0.58000  Biso   1.000  C
  C204     1.0000 0.73200  0.06800  0.58000  Biso   1.000  C
  C205     1.0000 0.76800  0.56800  0.92000  Biso   1.000  C
  C206     1.0000 0.26800  0.06800  0.92000  Biso   1.000  C
  C207     1.0000 0.76800  0.43200  0.42000  Biso   1.000  C
  C208     1.0000 0.26800  0.93200  0.42000  Biso   1.000  C
  C209     1.0000 0.19183  0.44820  0.03580  Biso   1.000  C
  C210     1.0000 0.69183  0.94820  0.03580  Biso   1.000  C
  C211     1.0000 0.19183  0.55180  0.53580  Biso   1.000  C
  C212     1.0000 0.69183  0.05180  0.53580  Biso   1.000  C
  C213     1.0000 0.80817  0.55180  0.96420  Biso   1.000  C
  C214     1.0000 0.30817  0.05180  0.96420  Biso   1.000  C
  C215     1.0000 0.80817  0.44820  0.46420  Biso   1.000  C
  C216     1.0000 0.30817  0.94820  0.46420  Biso   1.000  C
  H153     1.0000 0.21680  0.42240  0.06450  Biso   1.000  H
  H154     1.0000 0.71680  0.92240  0.06450  Biso   1.000  H
  H155     1.0000 0.21680  0.57760  0.56450  Biso   1.000  H
  H156     1.0000 0.71680  0.07760  0.56450  Biso   1.000  H
  H157     1.0000 0.78320  0.57760  0.93550  Biso   1.000  H
  H158     1.0000 0.28320  0.07760  0.93550  Biso   1.000  H
  H159     1.0000 0.78320  0.42240  0.43550  Biso   1.000  H
  H160     1.0000 0.28320  0.92240  0.43550  Biso   1.000  H
  H161     1.0000 0.18690  0.45020  0.98390  Biso   1.000  H
  H162     1.0000 0.68690  0.95020  0.98390  Biso   1.000  H
  H163     1.0000 0.18690  0.54980  0.48390  Biso   1.000  H
  H164     1.0000 0.68690  0.04980  0.48390  Biso   1.000  H
  H165     1.0000 0.81310  0.54980  0.01610  Biso   1.000  H
  H166     1.0000 0.31310  0.04980  0.01610  Biso   1.000  H
  H167     1.0000 0.81310  0.45020  0.51610  Biso   1.000  H
  H168     1.0000 0.31310  0.95020  0.51610  Biso   1.000  H
