data_image0
_cell_length_a       27.929
_cell_length_b       12.8919
_cell_length_c       22.763
_cell_angle_alpha    90
_cell_angle_beta     90.367
_cell_angle_gamma    90

_symmetry_space_group_name_H-M    "P 1"
_symmetry_int_tables_number       1

loop_
  _symmetry_equiv_pos_as_xyz
  'x, y, z'

loop_
  _atom_site_label
  _atom_site_occupancy
  _atom_site_fract_x
  _atom_site_fract_y
  _atom_site_fract_z
  _atom_site_thermal_displace_type
  _atom_site_B_iso_or_equiv
  _atom_site_type_symbol
  Mo1      1.0000 0.39652  0.69430  0.22826  Biso   1.000  Mo
  Mo2      1.0000 0.39652  0.80570  0.72826  Biso   1.000  Mo
  Mo3      1.0000 0.60348  0.30570  0.77174  Biso   1.000  Mo
  Mo4      1.0000 0.60348  0.19430  0.27174  Biso   1.000  Mo
  Mo5      1.0000 0.10527  0.29662  0.23123  Biso   1.000  Mo
  Mo6      1.0000 0.10527  0.20338  0.73123  Biso   1.000  Mo
  Mo7      1.0000 0.89473  0.70338  0.76877  Biso   1.000  Mo
  Mo8      1.0000 0.89473  0.79662  0.26877  Biso   1.000  Mo
  Mo9      1.0000 0.17980  0.64142  0.12533  Biso   1.000  Mo
  Mo10     1.0000 0.17980  0.85858  0.62533  Biso   1.000  Mo
  Mo11     1.0000 0.82020  0.35858  0.87467  Biso   1.000  Mo
  Mo12     1.0000 0.82020  0.14142  0.37467  Biso   1.000  Mo
  Mo13     1.0000 0.38890  0.55416  0.10630  Biso   1.000  Mo
  Mo14     1.0000 0.38890  0.94584  0.60630  Biso   1.000  Mo
  Mo15     1.0000 0.61110  0.44584  0.89370  Biso   1.000  Mo
  Mo16     1.0000 0.61110  0.05416  0.39370  Biso   1.000  Mo
  Mo17     1.0000 0.10911  0.43632  0.10954  Biso   1.000  Mo
  Mo18     1.0000 0.10911  0.06368  0.60954  Biso   1.000  Mo
  Mo19     1.0000 0.89089  0.56368  0.89046  Biso   1.000  Mo
  Mo20     1.0000 0.89089  0.93632  0.39046  Biso   1.000  Mo
  Mo21     1.0000 0.31751  0.34974  0.12419  Biso   1.000  Mo
  Mo22     1.0000 0.31751  0.15026  0.62419  Biso   1.000  Mo
  Mo23     1.0000 0.68249  0.65026  0.87581  Biso   1.000  Mo
  Mo24     1.0000 0.68249  0.84974  0.37581  Biso   1.000  Mo
  Cu1      1.0000 0.46878  0.36332  0.33323  Biso   1.000  Cu
  Cu2      1.0000 0.46878  0.13668  0.83323  Biso   1.000  Cu
  Cu3      1.0000 0.53122  0.63668  0.66677  Biso   1.000  Cu
  Cu4      1.0000 0.53122  0.86332  0.16677  Biso   1.000  Cu
  Cu5      1.0000 0.03259  0.62797  0.33338  Biso   1.000  Cu
  Cu6      1.0000 0.03259  0.87203  0.83338  Biso   1.000  Cu
  Cu7      1.0000 0.96741  0.37203  0.66662  Biso   1.000  Cu
  Cu8      1.0000 0.96741  0.12797  0.16662  Biso   1.000  Cu
  Cu9      1.0000 0.37470  0.74335  0.45859  Biso   1.000  Cu
  Cu10     1.0000 0.37470  0.75665  0.95859  Biso   1.000  Cu
  Cu11     1.0000 0.62530  0.25665  0.54141  Biso   1.000  Cu
  Cu12     1.0000 0.62530  0.24335  0.04141  Biso   1.000  Cu
  Cu13     1.0000 0.12834  0.26803  0.46783  Biso   1.000  Cu
  Cu14     1.0000 0.12834  0.23197  0.96783  Biso   1.000  Cu
  Cu15     1.0000 0.87166  0.73197  0.53217  Biso   1.000  Cu
  Cu16     1.0000 0.87166  0.76803  0.03217  Biso   1.000  Cu
  P1       1.0000 0.10894  0.43565  0.35741  Biso   1.000  P
  P2       1.0000 0.10894  0.06435  0.85741  Biso   1.000  P
  P3       1.0000 0.89106  0.56435  0.64259  Biso   1.000  P
  P4       1.0000 0.89106  0.93565  0.14259  Biso   1.000  P
  P5       1.0000 0.39444  0.55866  0.35579  Biso   1.000  P
  P6       1.0000 0.39444  0.94134  0.85579  Biso   1.000  P
  P7       1.0000 0.60556  0.44134  0.64421  Biso   1.000  P
  P8       1.0000 0.60556  0.05866  0.14421  Biso   1.000  P
  P9       1.0000 0.38515  0.42468  0.24709  Biso   1.000  P
  P10      1.0000 0.38515  0.07532  0.74709  Biso   1.000  P
  P11      1.0000 0.61485  0.57532  0.75291  Biso   1.000  P
  P12      1.0000 0.61485  0.92468  0.25291  Biso   1.000  P
  P13      1.0000 0.11641  0.56763  0.24868  Biso   1.000  P
  P14      1.0000 0.11641  0.93237  0.74868  Biso   1.000  P
  P15      1.0000 0.88359  0.43237  0.75132  Biso   1.000  P
  P16      1.0000 0.88359  0.06763  0.25132  Biso   1.000  P
  P17      1.0000 0.28368  0.58487  0.19200  Biso   1.000  P
  P18      1.0000 0.28368  0.91513  0.69200  Biso   1.000  P
  P19      1.0000 0.71632  0.41513  0.80800  Biso   1.000  P
  P20      1.0000 0.71632  0.08487  0.30800  Biso   1.000  P
  P21      1.0000 0.21598  0.40529  0.19344  Biso   1.000  P
  P22      1.0000 0.21598  0.09471  0.69344  Biso   1.000  P
  P23      1.0000 0.78402  0.59471  0.80656  Biso   1.000  P
  P24      1.0000 0.78402  0.90529  0.30656  Biso   1.000  P
  O1       1.0000 0.34700  0.36040  0.21520  Biso   1.000  O
  O2       1.0000 0.34700  0.13960  0.71520  Biso   1.000  O
  O3       1.0000 0.65300  0.63960  0.78480  Biso   1.000  O
  O4       1.0000 0.65300  0.86040  0.28480  Biso   1.000  O
  O5       1.0000 0.42960  0.36050  0.26280  Biso   1.000  O
  O6       1.0000 0.42960  0.13950  0.76280  Biso   1.000  O
  O7       1.0000 0.57040  0.63950  0.73720  Biso   1.000  O
  O8       1.0000 0.57040  0.86050  0.23720  Biso   1.000  O
  O9       1.0000 0.39880  0.52160  0.21030  Biso   1.000  O
  O10      1.0000 0.39880  0.97840  0.71030  Biso   1.000  O
  O11      1.0000 0.60120  0.47840  0.78970  Biso   1.000  O
  O12      1.0000 0.60120  0.02160  0.28970  Biso   1.000  O
  O13      1.0000 0.39970  0.64800  0.31130  Biso   1.000  O
  O14      1.0000 0.39970  0.85200  0.81130  Biso   1.000  O
  O15      1.0000 0.60030  0.35200  0.68870  Biso   1.000  O
  O16      1.0000 0.60030  0.14800  0.18870  Biso   1.000  O
  O17      1.0000 0.44150  0.50880  0.37210  Biso   1.000  O
  O18      1.0000 0.44150  0.99120  0.87210  Biso   1.000  O
  O19      1.0000 0.55850  0.49120  0.62790  Biso   1.000  O
  O20      1.0000 0.55850  0.00880  0.12790  Biso   1.000  O
  O21      1.0000 0.24450  0.65530  0.16650  Biso   1.000  O
  O22      1.0000 0.24450  0.84470  0.66650  Biso   1.000  O
  O23      1.0000 0.75550  0.34470  0.83350  Biso   1.000  O
  O24      1.0000 0.75550  0.15530  0.33350  Biso   1.000  O
  O25      1.0000 0.30990  0.52500  0.14380  Biso   1.000  O
  O26      1.0000 0.30990  0.97500  0.64380  Biso   1.000  O
  O27      1.0000 0.69010  0.47500  0.85620  Biso   1.000  O
  O28      1.0000 0.69010  0.02500  0.35620  Biso   1.000  O
  O29      1.0000 0.31750  0.64490  0.23200  Biso   1.000  O
  O30      1.0000 0.31750  0.85510  0.73200  Biso   1.000  O
  O31      1.0000 0.68250  0.35510  0.76800  Biso   1.000  O
  O32      1.0000 0.68250  0.14490  0.26800  Biso   1.000  O
  O33      1.0000 0.18450  0.34510  0.23430  Biso   1.000  O
  O34      1.0000 0.18450  0.15490  0.73430  Biso   1.000  O
  O35      1.0000 0.81550  0.65490  0.76570  Biso   1.000  O
  O36      1.0000 0.81550  0.84510  0.26570  Biso   1.000  O
  O37      1.0000 0.25520  0.33540  0.16580  Biso   1.000  O
  O38      1.0000 0.25520  0.16460  0.66580  Biso   1.000  O
  O39      1.0000 0.74480  0.66460  0.83420  Biso   1.000  O
  O40      1.0000 0.74480  0.83540  0.33420  Biso   1.000  O
  O41      1.0000 0.18840  0.46710  0.14550  Biso   1.000  O
  O42      1.0000 0.18840  0.03290  0.64550  Biso   1.000  O
  O43      1.0000 0.81160  0.53290  0.85450  Biso   1.000  O
  O44      1.0000 0.81160  0.96710  0.35450  Biso   1.000  O
  O45      1.0000 0.06170  0.48570  0.37210  Biso   1.000  O
  O46      1.0000 0.06170  0.01430  0.87210  Biso   1.000  O
  O47      1.0000 0.93830  0.51430  0.62790  Biso   1.000  O
  O48      1.0000 0.93830  0.98570  0.12790  Biso   1.000  O
  O49      1.0000 0.13690  0.39830  0.41030  Biso   1.000  O
  O50      1.0000 0.13690  0.10170  0.91030  Biso   1.000  O
  O51      1.0000 0.86310  0.60170  0.58970  Biso   1.000  O
  O52      1.0000 0.86310  0.89830  0.08970  Biso   1.000  O
  O53      1.0000 0.10320  0.34440  0.31320  Biso   1.000  O
  O54      1.0000 0.10320  0.15560  0.81320  Biso   1.000  O
  O55      1.0000 0.89680  0.65560  0.68680  Biso   1.000  O
  O56      1.0000 0.89680  0.84440  0.18680  Biso   1.000  O
  O57      1.0000 0.07250  0.63160  0.26440  Biso   1.000  O
  O58      1.0000 0.07250  0.86840  0.76440  Biso   1.000  O
  O59      1.0000 0.92750  0.36840  0.73560  Biso   1.000  O
  O60      1.0000 0.92750  0.13160  0.23560  Biso   1.000  O
  O61      1.0000 0.15420  0.63250  0.21650  Biso   1.000  O
  O62      1.0000 0.15420  0.86750  0.71650  Biso   1.000  O
  O63      1.0000 0.84580  0.36750  0.78350  Biso   1.000  O
  O64      1.0000 0.84580  0.13250  0.28350  Biso   1.000  O
  O65      1.0000 0.10210  0.46990  0.21280  Biso   1.000  O
  O66      1.0000 0.10210  0.03010  0.71280  Biso   1.000  O
  O67      1.0000 0.89790  0.53010  0.78720  Biso   1.000  O
  O68      1.0000 0.89790  0.96990  0.28720  Biso   1.000  O
  O69      1.0000 0.04530  0.28100  0.22200  Biso   1.000  O
  O70      1.0000 0.04530  0.21900  0.72200  Biso   1.000  O
  O71      1.0000 0.95470  0.71900  0.77800  Biso   1.000  O
  O72      1.0000 0.95470  0.78100  0.27800  Biso   1.000  O
  O73      1.0000 0.12360  0.17290  0.24560  Biso   1.000  O
  O74      1.0000 0.12360  0.32710  0.74560  Biso   1.000  O
  O75      1.0000 0.87640  0.82710  0.75440  Biso   1.000  O
  O76      1.0000 0.87640  0.67290  0.25440  Biso   1.000  O
  O77      1.0000 0.11900  0.30870  0.14940  Biso   1.000  O
  O78      1.0000 0.11900  0.19130  0.64940  Biso   1.000  O
  O79      1.0000 0.88100  0.69130  0.85060  Biso   1.000  O
  O80      1.0000 0.88100  0.80870  0.35060  Biso   1.000  O
  O81      1.0000 0.04880  0.43520  0.10060  Biso   1.000  O
  O82      1.0000 0.04880  0.06480  0.60060  Biso   1.000  O
  O83      1.0000 0.95120  0.56480  0.89940  Biso   1.000  O
  O84      1.0000 0.95120  0.93520  0.39940  Biso   1.000  O
  O85      1.0000 0.13000  0.40230  0.04200  Biso   1.000  O
  O86      1.0000 0.13000  0.09770  0.54200  Biso   1.000  O
  O87      1.0000 0.87000  0.59770  0.95800  Biso   1.000  O
  O88      1.0000 0.87000  0.90230  0.45800  Biso   1.000  O
  O89      1.0000 0.11910  0.58460  0.10880  Biso   1.000  O
  O90      1.0000 0.11910  0.91540  0.60880  Biso   1.000  O
  O91      1.0000 0.88090  0.41540  0.89120  Biso   1.000  O
  O92      1.0000 0.88090  0.08460  0.39120  Biso   1.000  O
  O93      1.0000 0.16620  0.77100  0.12550  Biso   1.000  O
  O94      1.0000 0.16620  0.72900  0.62550  Biso   1.000  O
  O95      1.0000 0.83380  0.22900  0.87450  Biso   1.000  O
  O96      1.0000 0.83380  0.27100  0.37450  Biso   1.000  O
  O97      1.0000 0.20420  0.62250  0.05800  Biso   1.000  O
  O98      1.0000 0.20420  0.87750  0.55800  Biso   1.000  O
  O99      1.0000 0.79580  0.37750  0.94200  Biso   1.000  O
  O100     1.0000 0.79580  0.12250  0.44200  Biso   1.000  O
  O101     1.0000 0.29150  0.36400  0.05620  Biso   1.000  O
  O102     1.0000 0.29150  0.13600  0.55620  Biso   1.000  O
  O103     1.0000 0.70850  0.63600  0.94380  Biso   1.000  O
  O104     1.0000 0.70850  0.86400  0.44380  Biso   1.000  O
  O105     1.0000 0.33190  0.22120  0.12530  Biso   1.000  O
  O106     1.0000 0.33190  0.27880  0.62530  Biso   1.000  O
  O107     1.0000 0.66810  0.77880  0.87470  Biso   1.000  O
  O108     1.0000 0.66810  0.72120  0.37470  Biso   1.000  O
  O109     1.0000 0.37780  0.40750  0.10650  Biso   1.000  O
  O110     1.0000 0.37780  0.09250  0.60650  Biso   1.000  O
  O111     1.0000 0.62220  0.59250  0.89350  Biso   1.000  O
  O112     1.0000 0.62220  0.90750  0.39350  Biso   1.000  O
  O113     1.0000 0.36680  0.59010  0.03900  Biso   1.000  O
  O114     1.0000 0.36680  0.90990  0.53900  Biso   1.000  O
  O115     1.0000 0.63320  0.40990  0.96100  Biso   1.000  O
  O116     1.0000 0.63320  0.09010  0.46100  Biso   1.000  O
  O117     1.0000 0.44890  0.55330  0.09790  Biso   1.000  O
  O118     1.0000 0.44890  0.94670  0.59790  Biso   1.000  O
  O119     1.0000 0.55110  0.44670  0.90210  Biso   1.000  O
  O120     1.0000 0.55110  0.05330  0.40210  Biso   1.000  O
  O121     1.0000 0.38050  0.68180  0.14710  Biso   1.000  O
  O122     1.0000 0.38050  0.81820  0.64710  Biso   1.000  O
  O123     1.0000 0.61950  0.31820  0.85290  Biso   1.000  O
  O124     1.0000 0.61950  0.18180  0.35290  Biso   1.000  O
  O125     1.0000 0.45670  0.70870  0.21910  Biso   1.000  O
  O126     1.0000 0.45670  0.79130  0.71910  Biso   1.000  O
  O127     1.0000 0.54330  0.29130  0.78090  Biso   1.000  O
  O128     1.0000 0.54330  0.20870  0.28090  Biso   1.000  O
  O129     1.0000 0.37710  0.81820  0.24190  Biso   1.000  O
  O130     1.0000 0.37710  0.68180  0.74190  Biso   1.000  O
  O131     1.0000 0.62290  0.18180  0.75810  Biso   1.000  O
  O132     1.0000 0.62290  0.31820  0.25810  Biso   1.000  O
  O133     1.0000 0.36650  0.59680  0.40800  Biso   1.000  O
  O134     1.0000 0.36650  0.90320  0.90800  Biso   1.000  O
  O135     1.0000 0.63350  0.40320  0.59200  Biso   1.000  O
  O136     1.0000 0.63350  0.09680  0.09200  Biso   1.000  O
  O137     1.0000 0.21340  0.06030  0.26990  Biso   1.000  O
  O138     1.0000 0.21340  0.43970  0.76990  Biso   1.000  O
  O139     1.0000 0.78660  0.93970  0.73010  Biso   1.000  O
  O140     1.0000 0.78660  0.56030  0.23010  Biso   1.000  O
  O141     1.0000 0.24200  0.00000  0.31200  Biso   1.000  O
  O142     1.0000 0.24200  0.50000  0.81200  Biso   1.000  O
  O143     1.0000 0.75800  0.00000  0.68800  Biso   1.000  O
  O144     1.0000 0.75800  0.50000  0.18800  Biso   1.000  O
  O145     1.0000 0.21910  0.99800  0.29180  Biso   1.000  O
  O146     1.0000 0.21910  0.50200  0.79180  Biso   1.000  O
  O147     1.0000 0.78090  0.00200  0.70820  Biso   1.000  O
  O148     1.0000 0.78090  0.49800  0.20820  Biso   1.000  O
  O149     1.0000 0.21690  0.21130  0.31940  Biso   1.000  O
  O150     1.0000 0.21690  0.28870  0.81940  Biso   1.000  O
  O151     1.0000 0.78310  0.78870  0.68060  Biso   1.000  O
  O152     1.0000 0.78310  0.71130  0.18060  Biso   1.000  O
  O153     1.0000 0.47920  0.50800  0.48120  Biso   1.000  O
  O154     1.0000 0.47920  0.99200  0.98120  Biso   1.000  O
  O155     1.0000 0.52080  0.49200  0.51880  Biso   1.000  O
  O156     1.0000 0.52080  0.00800  0.01880  Biso   1.000  O
  O157     1.0000 0.42770  0.43950  0.49480  Biso   1.000  O
  O158     1.0000 0.42770  0.06050  0.99480  Biso   1.000  O
  O159     1.0000 0.57230  0.56050  0.50520  Biso   1.000  O
  O160     1.0000 0.57230  0.93950  0.00520  Biso   1.000  O
  O161     1.0000 0.17540  0.18840  0.42410  Biso   1.000  O
  O162     1.0000 0.17540  0.31160  0.92410  Biso   1.000  O
  O163     1.0000 0.82460  0.81160  0.57590  Biso   1.000  O
  O164     1.0000 0.82460  0.68840  0.07590  Biso   1.000  O
  O165     1.0000 0.33020  0.81850  0.40750  Biso   1.000  O
  O166     1.0000 0.33020  0.68150  0.90750  Biso   1.000  O
  O167     1.0000 0.66980  0.18150  0.59250  Biso   1.000  O
  O168     1.0000 0.66980  0.31850  0.09250  Biso   1.000  O
  O169     1.0000 0.04690  0.52220  0.48970  Biso   1.000  O
  O170     1.0000 0.04690  0.97780  0.98970  Biso   1.000  O
  O171     1.0000 0.95310  0.47780  0.51030  Biso   1.000  O
  O172     1.0000 0.95310  0.02220  0.01030  Biso   1.000  O
  O173     1.0000 0.20130  0.84100  0.26400  Biso   1.000  O
  O174     1.0000 0.20130  0.65900  0.76400  Biso   1.000  O
  O175     1.0000 0.79870  0.15900  0.73600  Biso   1.000  O
  O176     1.0000 0.79870  0.34100  0.23600  Biso   1.000  O
  O177     1.0000 0.19280  0.79800  0.28090  Biso   1.000  O
  O178     1.0000 0.19280  0.70200  0.78090  Biso   1.000  O
  O179     1.0000 0.80720  0.20200  0.71910  Biso   1.000  O
  O180     1.0000 0.80720  0.29800  0.21910  Biso   1.000  O
  O181     1.0000 0.27380  0.71800  0.32930  Biso   1.000  O
  O182     1.0000 0.27380  0.78200  0.82930  Biso   1.000  O
  O183     1.0000 0.72620  0.28200  0.67070  Biso   1.000  O
  O184     1.0000 0.72620  0.21800  0.17070  Biso   1.000  O
  O185     1.0000 0.27040  0.53860  0.40160  Biso   1.000  O
  O186     1.0000 0.27040  0.96140  0.90160  Biso   1.000  O
  O187     1.0000 0.72960  0.46140  0.59840  Biso   1.000  O
  O188     1.0000 0.72960  0.03860  0.09840  Biso   1.000  O
  O189     1.0000 0.27740  0.97880  0.39530  Biso   1.000  O
  O190     1.0000 0.27740  0.52120  0.89530  Biso   1.000  O
  O191     1.0000 0.72260  0.02120  0.60470  Biso   1.000  O
  O192     1.0000 0.72260  0.47880  0.10470  Biso   1.000  O
  O193     1.0000 0.18670  0.56370  0.45660  Biso   1.000  O
  O194     1.0000 0.18670  0.93630  0.95660  Biso   1.000  O
  O195     1.0000 0.81330  0.43630  0.54340  Biso   1.000  O
  O196     1.0000 0.81330  0.06370  0.04340  Biso   1.000  O
  O197     1.0000 0.11710  0.66700  0.51590  Biso   1.000  O
  O198     1.0000 0.11710  0.83300  0.01590  Biso   1.000  O
  O199     1.0000 0.88290  0.33300  0.48410  Biso   1.000  O
  O200     1.0000 0.88290  0.16700  0.98410  Biso   1.000  O
  O201     1.0000 0.30950  0.18750  0.26800  Biso   1.000  O
  O202     1.0000 0.30950  0.31250  0.76800  Biso   1.000  O
  O203     1.0000 0.69050  0.81250  0.73200  Biso   1.000  O
  O204     1.0000 0.69050  0.68750  0.23200  Biso   1.000  O
  O205     1.0000 0.29010  0.20510  0.28590  Biso   1.000  O
  O206     1.0000 0.29010  0.29490  0.78590  Biso   1.000  O
  O207     1.0000 0.70990  0.79490  0.71410  Biso   1.000  O
  O208     1.0000 0.70990  0.70510  0.21410  Biso   1.000  O
  O209     1.0000 0.22680  0.45300  0.98720  Biso   1.000  O
  O210     1.0000 0.22680  0.04700  0.48720  Biso   1.000  O
  O211     1.0000 0.77320  0.54700  0.01280  Biso   1.000  O
  O212     1.0000 0.77320  0.95300  0.51280  Biso   1.000  O
  O213     1.0000 0.27080  0.54870  0.97820  Biso   1.000  O
  O214     1.0000 0.27080  0.95130  0.47820  Biso   1.000  O
  O215     1.0000 0.72920  0.45130  0.02180  Biso   1.000  O
  O216     1.0000 0.72920  0.04870  0.52180  Biso   1.000  O
  O217     1.0000 0.21280  0.03370  0.39320  Biso   1.000  O
  O218     1.0000 0.21280  0.46630  0.89320  Biso   1.000  O
  O219     1.0000 0.78720  0.96630  0.60680  Biso   1.000  O
  O220     1.0000 0.78720  0.53370  0.10680  Biso   1.000  O
  O221     1.0000 0.30590  0.98190  0.23880  Biso   1.000  O
  O222     1.0000 0.30590  0.51810  0.73880  Biso   1.000  O
  O223     1.0000 0.69410  0.01810  0.76120  Biso   1.000  O
  O224     1.0000 0.69410  0.48190  0.26120  Biso   1.000  O
  O225     1.0000 0.27030  0.32930  0.38750  Biso   1.000  O
  O226     1.0000 0.27030  0.17070  0.88750  Biso   1.000  O
  O227     1.0000 0.72970  0.67070  0.61250  Biso   1.000  O
  O228     1.0000 0.72970  0.82930  0.11250  Biso   1.000  O
  O229     1.0000 0.33230  0.28310  0.47230  Biso   1.000  O
  O230     1.0000 0.33230  0.21690  0.97230  Biso   1.000  O
  O231     1.0000 0.66770  0.71690  0.52770  Biso   1.000  O
  O232     1.0000 0.66770  0.78310  0.02770  Biso   1.000  O
  O233     1.0000 0.38720  0.44670  0.50470  Biso   1.000  O
  O234     1.0000 0.38720  0.05330  0.00470  Biso   1.000  O
  O235     1.0000 0.61280  0.55330  0.49530  Biso   1.000  O
  O236     1.0000 0.61280  0.94670  0.99530  Biso   1.000  O
  O237     1.0000 0.26790  0.55700  0.38700  Biso   1.000  O
  O238     1.0000 0.26790  0.94300  0.88700  Biso   1.000  O
  O239     1.0000 0.73210  0.44300  0.61300  Biso   1.000  O
  O240     1.0000 0.73210  0.05700  0.11300  Biso   1.000  O
  O241     1.0000 0.35060  0.31840  0.49080  Biso   1.000  O
  O242     1.0000 0.35060  0.18160  0.99080  Biso   1.000  O
  O243     1.0000 0.64940  0.68160  0.50920  Biso   1.000  O
  O244     1.0000 0.64940  0.81840  0.00920  Biso   1.000  O
  N1       1.0000 0.43400  0.24820  0.37620  Biso   1.000  N
  N2       1.0000 0.43400  0.25180  0.87620  Biso   1.000  N
  N3       1.0000 0.56600  0.75180  0.62380  Biso   1.000  N
  N4       1.0000 0.56600  0.74820  0.12380  Biso   1.000  N
  N5       1.0000 0.51630  0.33090  0.39440  Biso   1.000  N
  N6       1.0000 0.51630  0.16910  0.89440  Biso   1.000  N
  N7       1.0000 0.48370  0.66910  0.60560  Biso   1.000  N
  N8       1.0000 0.48370  0.83090  0.10560  Biso   1.000  N
  N9       1.0000 0.52280  0.45490  0.30760  Biso   1.000  N
  N10      1.0000 0.52280  0.04510  0.80760  Biso   1.000  N
  N11      1.0000 0.47720  0.54510  0.69240  Biso   1.000  N
  N12      1.0000 0.47720  0.95490  0.19240  Biso   1.000  N
  N13      1.0000 0.56590  0.20000  0.57770  Biso   1.000  N
  N14      1.0000 0.56590  0.30000  0.07770  Biso   1.000  N
  N15      1.0000 0.43410  0.80000  0.42230  Biso   1.000  N
  N16      1.0000 0.43410  0.70000  0.92230  Biso   1.000  N
  N17      1.0000 0.57850  0.29430  0.47990  Biso   1.000  N
  N18      1.0000 0.57850  0.20570  0.97990  Biso   1.000  N
  N19      1.0000 0.42150  0.70570  0.52010  Biso   1.000  N
  N20      1.0000 0.42150  0.79430  0.02010  Biso   1.000  N
  N21      1.0000 0.66890  0.31450  0.48130  Biso   1.000  N
  N22      1.0000 0.66890  0.18550  0.98130  Biso   1.000  N
  N23      1.0000 0.33110  0.68550  0.51870  Biso   1.000  N
  N24      1.0000 0.33110  0.81450  0.01870  Biso   1.000  N
  N25      1.0000 0.83040  0.66460  0.47170  Biso   1.000  N
  N26      1.0000 0.83040  0.83540  0.97170  Biso   1.000  N
  N27      1.0000 0.16960  0.33540  0.52830  Biso   1.000  N
  N28      1.0000 0.16960  0.16460  0.02830  Biso   1.000  N
  N29      1.0000 0.91930  0.69850  0.47320  Biso   1.000  N
  N30      1.0000 0.91930  0.80150  0.97320  Biso   1.000  N
  N31      1.0000 0.08070  0.30150  0.52680  Biso   1.000  N
  N32      1.0000 0.08070  0.19850  0.02680  Biso   1.000  N
  N33      1.0000 0.92980  0.79660  0.56990  Biso   1.000  N
  N34      1.0000 0.92980  0.70340  0.06990  Biso   1.000  N
  N35      1.0000 0.07020  0.20340  0.43010  Biso   1.000  N
  N36      1.0000 0.07020  0.29660  0.93010  Biso   1.000  N
  N37      1.0000 0.06610  0.74350  0.37890  Biso   1.000  N
  N38      1.0000 0.06610  0.75650  0.87890  Biso   1.000  N
  N39      1.0000 0.93390  0.25650  0.62110  Biso   1.000  N
  N40      1.0000 0.93390  0.24350  0.12110  Biso   1.000  N
  N41      1.0000 0.98390  0.65980  0.39270  Biso   1.000  N
  N42      1.0000 0.98390  0.84020  0.89270  Biso   1.000  N
  N43      1.0000 0.01610  0.34020  0.60730  Biso   1.000  N
  N44      1.0000 0.01610  0.15980  0.10730  Biso   1.000  N
  N45      1.0000 0.97810  0.53580  0.30450  Biso   1.000  N
  N46      1.0000 0.97810  0.96420  0.80450  Biso   1.000  N
  N47      1.0000 0.02190  0.46420  0.69550  Biso   1.000  N
  N48      1.0000 0.02190  0.03580  0.19550  Biso   1.000  N
  C1       1.0000 0.39400  0.20030  0.35800  Biso   1.000  C
  C2       1.0000 0.39400  0.29970  0.85800  Biso   1.000  C
  C3       1.0000 0.60600  0.79970  0.64200  Biso   1.000  C
  C4       1.0000 0.60600  0.70030  0.14200  Biso   1.000  C
  H1       1.0000 0.37730  0.22750  0.32490  Biso   1.000  H
  H2       1.0000 0.37730  0.27250  0.82490  Biso   1.000  H
  H3       1.0000 0.62270  0.77250  0.67510  Biso   1.000  H
  H4       1.0000 0.62270  0.72750  0.17510  Biso   1.000  H
  C5       1.0000 0.37600  0.11330  0.38530  Biso   1.000  C
  C6       1.0000 0.37600  0.38670  0.88530  Biso   1.000  C
  C7       1.0000 0.62400  0.88670  0.61470  Biso   1.000  C
  C8       1.0000 0.62400  0.61330  0.11470  Biso   1.000  C
  H5       1.0000 0.34710  0.08220  0.37200  Biso   1.000  H
  H6       1.0000 0.34710  0.41780  0.87200  Biso   1.000  H
  H7       1.0000 0.65290  0.91780  0.62800  Biso   1.000  H
  H8       1.0000 0.65290  0.58220  0.12800  Biso   1.000  H
  C9       1.0000 0.40140  0.07190  0.43300  Biso   1.000  C
  C10      1.0000 0.40140  0.42810  0.93300  Biso   1.000  C
  C11      1.0000 0.59860  0.92810  0.56700  Biso   1.000  C
  C12      1.0000 0.59860  0.57190  0.06700  Biso   1.000  C
  H9       1.0000 0.39020  0.01120  0.45220  Biso   1.000  H
  H10      1.0000 0.39020  0.48880  0.95220  Biso   1.000  H
  H11      1.0000 0.60980  0.98880  0.54780  Biso   1.000  H
  H12      1.0000 0.60980  0.51120  0.04780  Biso   1.000  H
  C13      1.0000 0.44330  0.12060  0.45210  Biso   1.000  C
  C14      1.0000 0.44330  0.37940  0.95210  Biso   1.000  C
  C15      1.0000 0.55670  0.87940  0.54790  Biso   1.000  C
  C16      1.0000 0.55670  0.62060  0.04790  Biso   1.000  C
  H13      1.0000 0.46130  0.09300  0.48400  Biso   1.000  H
  H14      1.0000 0.46130  0.40700  0.98400  Biso   1.000  H
  H15      1.0000 0.53870  0.90700  0.51600  Biso   1.000  H
  H16      1.0000 0.53870  0.59300  0.01600  Biso   1.000  H
  C17      1.0000 0.45800  0.20930  0.42390  Biso   1.000  C
  C18      1.0000 0.45800  0.29070  0.92390  Biso   1.000  C
  C19      1.0000 0.54200  0.79070  0.57610  Biso   1.000  C
  C20      1.0000 0.54200  0.70930  0.07610  Biso   1.000  C
  C21      1.0000 0.50250  0.26610  0.43780  Biso   1.000  C
  C22      1.0000 0.50250  0.23390  0.93780  Biso   1.000  C
  C23      1.0000 0.49750  0.73390  0.56220  Biso   1.000  C
  C24      1.0000 0.49750  0.76610  0.06220  Biso   1.000  C
  C25      1.0000 0.55940  0.37760  0.39180  Biso   1.000  C
  C26      1.0000 0.55940  0.12240  0.89180  Biso   1.000  C
  C27      1.0000 0.44060  0.62240  0.60820  Biso   1.000  C
  C28      1.0000 0.44060  0.87760  0.10820  Biso   1.000  C
  C29      1.0000 0.56040  0.45940  0.34600  Biso   1.000  C
  C30      1.0000 0.56040  0.04060  0.84600  Biso   1.000  C
  C31      1.0000 0.43960  0.54060  0.65400  Biso   1.000  C
  C32      1.0000 0.43960  0.95940  0.15400  Biso   1.000  C
  C33      1.0000 0.59260  0.54060  0.34640  Biso   1.000  C
  C34      1.0000 0.59260  0.95940  0.84640  Biso   1.000  C
  C35      1.0000 0.40740  0.45940  0.65360  Biso   1.000  C
  C36      1.0000 0.40740  0.04060  0.15360  Biso   1.000  C
  H17      1.0000 0.61710  0.54420  0.37540  Biso   1.000  H
  H18      1.0000 0.61710  0.95580  0.87540  Biso   1.000  H
  H19      1.0000 0.38290  0.45580  0.62460  Biso   1.000  H
  H20      1.0000 0.38290  0.04420  0.12460  Biso   1.000  H
  C37      1.0000 0.58850  0.61690  0.30370  Biso   1.000  C
  C38      1.0000 0.58850  0.88310  0.80370  Biso   1.000  C
  C39      1.0000 0.41150  0.38310  0.69630  Biso   1.000  C
  C40      1.0000 0.41150  0.11690  0.19630  Biso   1.000  C
  H21      1.0000 0.61100  0.67200  0.30170  Biso   1.000  H
  H22      1.0000 0.61100  0.82800  0.80170  Biso   1.000  H
  H23      1.0000 0.38900  0.32800  0.69830  Biso   1.000  H
  H24      1.0000 0.38900  0.17200  0.19830  Biso   1.000  H
  C41      1.0000 0.55070  0.61080  0.26420  Biso   1.000  C
  C42      1.0000 0.55070  0.88920  0.76420  Biso   1.000  C
  C43      1.0000 0.44930  0.38920  0.73580  Biso   1.000  C
  C44      1.0000 0.44930  0.11080  0.23580  Biso   1.000  C
  H25      1.0000 0.54710  0.66240  0.23460  Biso   1.000  H
  H26      1.0000 0.54710  0.83760  0.73460  Biso   1.000  H
  H27      1.0000 0.45290  0.33760  0.76540  Biso   1.000  H
  H28      1.0000 0.45290  0.16240  0.26540  Biso   1.000  H
  C45      1.0000 0.51800  0.52970  0.26740  Biso   1.000  C
  C46      1.0000 0.51800  0.97030  0.76740  Biso   1.000  C
  C47      1.0000 0.48200  0.47030  0.73260  Biso   1.000  C
  C48      1.0000 0.48200  0.02970  0.23260  Biso   1.000  C
  H29      1.0000 0.49170  0.52750  0.24070  Biso   1.000  H
  H30      1.0000 0.49170  0.97250  0.74070  Biso   1.000  H
  H31      1.0000 0.50830  0.47250  0.75930  Biso   1.000  H
  H32      1.0000 0.50830  0.02750  0.25930  Biso   1.000  H
  C49      1.0000 0.56260  0.16820  0.63280  Biso   1.000  C
  C50      1.0000 0.56260  0.33180  0.13280  Biso   1.000  C
  C51      1.0000 0.43740  0.83180  0.36720  Biso   1.000  C
  C52      1.0000 0.43740  0.66820  0.86720  Biso   1.000  C
  H33      1.0000 0.59090  0.14980  0.65350  Biso   1.000  H
  H34      1.0000 0.59090  0.35020  0.15350  Biso   1.000  H
  H35      1.0000 0.40910  0.85020  0.34650  Biso   1.000  H
  H36      1.0000 0.40910  0.64980  0.84650  Biso   1.000  H
  C53      1.0000 0.51880  0.16100  0.66120  Biso   1.000  C
  C54      1.0000 0.51880  0.33900  0.16120  Biso   1.000  C
  C55      1.0000 0.48120  0.83900  0.33880  Biso   1.000  C
  C56      1.0000 0.48120  0.66100  0.83880  Biso   1.000  C
  H37      1.0000 0.51730  0.13910  0.70100  Biso   1.000  H
  H38      1.0000 0.51730  0.36090  0.20100  Biso   1.000  H
  H39      1.0000 0.48270  0.86090  0.29900  Biso   1.000  H
  H40      1.0000 0.48270  0.63910  0.79900  Biso   1.000  H
  C57      1.0000 0.47760  0.18610  0.63050  Biso   1.000  C
  C58      1.0000 0.47760  0.31390  0.13050  Biso   1.000  C
  C59      1.0000 0.52240  0.81390  0.36950  Biso   1.000  C
  C60      1.0000 0.52240  0.68610  0.86950  Biso   1.000  C
  H41      1.0000 0.44740  0.18190  0.64940  Biso   1.000  H
  H42      1.0000 0.44740  0.31810  0.14940  Biso   1.000  H
  H43      1.0000 0.55260  0.81810  0.35060  Biso   1.000  H
  H44      1.0000 0.55260  0.68190  0.85060  Biso   1.000  H
  C61      1.0000 0.47980  0.21750  0.57230  Biso   1.000  C
  C62      1.0000 0.47980  0.28250  0.07230  Biso   1.000  C
  C63      1.0000 0.52020  0.78250  0.42770  Biso   1.000  C
  C64      1.0000 0.52020  0.71750  0.92770  Biso   1.000  C
  H45      1.0000 0.45180  0.23600  0.55100  Biso   1.000  H
  H46      1.0000 0.45180  0.26400  0.05100  Biso   1.000  H
  H47      1.0000 0.54820  0.76400  0.44900  Biso   1.000  H
  H48      1.0000 0.54820  0.73600  0.94900  Biso   1.000  H
  C65      1.0000 0.52400  0.22060  0.54700  Biso   1.000  C
  C66      1.0000 0.52400  0.27940  0.04700  Biso   1.000  C
  C67      1.0000 0.47600  0.77940  0.45300  Biso   1.000  C
  C68      1.0000 0.47600  0.72060  0.95300  Biso   1.000  C
  C69      1.0000 0.53350  0.25950  0.48660  Biso   1.000  C
  C70      1.0000 0.53350  0.24050  0.98660  Biso   1.000  C
  C71      1.0000 0.46650  0.74050  0.51340  Biso   1.000  C
  C72      1.0000 0.46650  0.75950  0.01340  Biso   1.000  C
  C73      1.0000 0.71640  0.31430  0.48450  Biso   1.000  C
  C74      1.0000 0.71640  0.18570  0.98450  Biso   1.000  C
  C75      1.0000 0.28360  0.68570  0.51550  Biso   1.000  C
  C76      1.0000 0.28360  0.81430  0.01550  Biso   1.000  C
  H49      1.0000 0.73110  0.29420  0.52050  Biso   1.000  H
  H50      1.0000 0.73110  0.20580  0.02050  Biso   1.000  H
  H51      1.0000 0.26890  0.70580  0.47950  Biso   1.000  H
  H52      1.0000 0.26890  0.79420  0.97950  Biso   1.000  H
  C77      1.0000 0.93220  0.83290  0.62580  Biso   1.000  C
  C78      1.0000 0.93220  0.66710  0.12580  Biso   1.000  C
  C79      1.0000 0.06780  0.16710  0.37420  Biso   1.000  C
  C80      1.0000 0.06780  0.33290  0.87420  Biso   1.000  C
  H53      1.0000 0.90320  0.84910  0.64520  Biso   1.000  H
  H54      1.0000 0.90320  0.65090  0.14520  Biso   1.000  H
  H55      1.0000 0.09680  0.15090  0.35480  Biso   1.000  H
  H56      1.0000 0.09680  0.34910  0.85480  Biso   1.000  H
  C81      1.0000 0.97440  0.84730  0.65550  Biso   1.000  C
  C82      1.0000 0.97440  0.65270  0.15550  Biso   1.000  C
  C83      1.0000 0.02560  0.15270  0.34450  Biso   1.000  C
  C84      1.0000 0.02560  0.34730  0.84450  Biso   1.000  C
  H57      1.0000 0.97450  0.87420  0.69430  Biso   1.000  H
  H58      1.0000 0.97450  0.62580  0.19430  Biso   1.000  H
  H59      1.0000 0.02550  0.12580  0.30570  Biso   1.000  H
  H60      1.0000 0.02550  0.37420  0.80570  Biso   1.000  H
  C85      1.0000 0.01670  0.82270  0.62860  Biso   1.000  C
  C86      1.0000 0.01670  0.67730  0.12860  Biso   1.000  C
  C87      1.0000 0.98330  0.17730  0.37140  Biso   1.000  C
  C88      1.0000 0.98330  0.32270  0.87140  Biso   1.000  C
  H61      1.0000 0.04630  0.83030  0.64900  Biso   1.000  H
  H62      1.0000 0.04630  0.66970  0.14900  Biso   1.000  H
  H63      1.0000 0.95370  0.16970  0.35100  Biso   1.000  H
  H64      1.0000 0.95370  0.33030  0.85100  Biso   1.000  H
  C89      1.0000 0.01570  0.78580  0.57040  Biso   1.000  C
  C90      1.0000 0.01570  0.71420  0.07040  Biso   1.000  C
  C91      1.0000 0.98430  0.21420  0.42960  Biso   1.000  C
  C92      1.0000 0.98430  0.28580  0.92960  Biso   1.000  C
  H65      1.0000 0.04450  0.76810  0.55070  Biso   1.000  H
  H66      1.0000 0.04450  0.73190  0.05070  Biso   1.000  H
  H67      1.0000 0.95550  0.23190  0.44930  Biso   1.000  H
  H68      1.0000 0.95550  0.26810  0.94930  Biso   1.000  H
  C93      1.0000 0.97120  0.77610  0.54230  Biso   1.000  C
  C94      1.0000 0.97120  0.72390  0.04230  Biso   1.000  C
  C95      1.0000 0.02880  0.22390  0.45770  Biso   1.000  C
  C96      1.0000 0.02880  0.27610  0.95770  Biso   1.000  C
  C97      1.0000 0.96370  0.73430  0.48240  Biso   1.000  C
  C98      1.0000 0.96370  0.76570  0.98240  Biso   1.000  C
  C99      1.0000 0.03630  0.26570  0.51760  Biso   1.000  C
  C100     1.0000 0.03630  0.23430  0.01760  Biso   1.000  C
  C101     1.0000 0.78220  0.65590  0.47430  Biso   1.000  C
  C102     1.0000 0.78220  0.84410  0.97430  Biso   1.000  C
  C103     1.0000 0.21780  0.34410  0.52570  Biso   1.000  C
  C104     1.0000 0.21780  0.15590  0.02570  Biso   1.000  C
  H69      1.0000 0.76660  0.67530  0.50960  Biso   1.000  H
  H70      1.0000 0.76660  0.82470  0.00960  Biso   1.000  H
  H71      1.0000 0.23340  0.32470  0.49040  Biso   1.000  H
  H72      1.0000 0.23340  0.17530  0.99040  Biso   1.000  H
  C105     1.0000 0.98460  0.46320  0.26410  Biso   1.000  C
  C106     1.0000 0.98460  0.03680  0.76410  Biso   1.000  C
  C107     1.0000 0.01540  0.53680  0.73590  Biso   1.000  C
  C108     1.0000 0.01540  0.96320  0.23590  Biso   1.000  C
  H73      1.0000 0.01110  0.46760  0.23840  Biso   1.000  H
  H74      1.0000 0.01110  0.03240  0.73840  Biso   1.000  H
  H75      1.0000 0.98890  0.53240  0.76160  Biso   1.000  H
  H76      1.0000 0.98890  0.96760  0.26160  Biso   1.000  H
  C109     1.0000 0.95250  0.37990  0.25890  Biso   1.000  C
  C110     1.0000 0.95250  0.12010  0.75890  Biso   1.000  C
  C111     1.0000 0.04750  0.62010  0.74110  Biso   1.000  C
  C112     1.0000 0.04750  0.87990  0.24110  Biso   1.000  C
  H77      1.0000 0.95650  0.32970  0.22880  Biso   1.000  H
  H78      1.0000 0.95650  0.17030  0.72880  Biso   1.000  H
  H79      1.0000 0.04350  0.67030  0.77120  Biso   1.000  H
  H80      1.0000 0.04350  0.82970  0.27120  Biso   1.000  H
  C113     1.0000 0.91510  0.37140  0.29790  Biso   1.000  C
  C114     1.0000 0.91510  0.12860  0.79790  Biso   1.000  C
  C115     1.0000 0.08490  0.62860  0.70210  Biso   1.000  C
  C116     1.0000 0.08490  0.87140  0.20210  Biso   1.000  C
  H81      1.0000 0.89370  0.31410  0.29580  Biso   1.000  H
  H82      1.0000 0.89370  0.18590  0.79580  Biso   1.000  H
  H83      1.0000 0.10630  0.68590  0.70420  Biso   1.000  H
  H84      1.0000 0.10630  0.81410  0.20420  Biso   1.000  H
  C117     1.0000 0.90900  0.44770  0.34010  Biso   1.000  C
  C118     1.0000 0.90900  0.05230  0.84010  Biso   1.000  C
  C119     1.0000 0.09100  0.55230  0.65990  Biso   1.000  C
  C120     1.0000 0.09100  0.94770  0.15990  Biso   1.000  C
  H85      1.0000 0.88340  0.44360  0.36730  Biso   1.000  H
  H86      1.0000 0.88340  0.05640  0.86730  Biso   1.000  H
  H87      1.0000 0.11660  0.55640  0.63270  Biso   1.000  H
  H88      1.0000 0.11660  0.94360  0.13270  Biso   1.000  H
  C121     1.0000 0.94110  0.53050  0.34190  Biso   1.000  C
  C122     1.0000 0.94110  0.96950  0.84190  Biso   1.000  C
  C123     1.0000 0.05890  0.46950  0.65810  Biso   1.000  C
  C124     1.0000 0.05890  0.03050  0.15810  Biso   1.000  C
  C125     1.0000 0.94130  0.61240  0.38730  Biso   1.000  C
  C126     1.0000 0.94130  0.88760  0.88730  Biso   1.000  C
  C127     1.0000 0.05870  0.38760  0.61270  Biso   1.000  C
  C128     1.0000 0.05870  0.11240  0.11270  Biso   1.000  C
  C129     1.0000 0.99550  0.72660  0.43530  Biso   1.000  C
  C130     1.0000 0.99550  0.77340  0.93530  Biso   1.000  C
  C131     1.0000 0.00450  0.27340  0.56470  Biso   1.000  C
  C132     1.0000 0.00450  0.22660  0.06470  Biso   1.000  C
  C133     1.0000 0.04030  0.78240  0.42390  Biso   1.000  C
  C134     1.0000 0.04030  0.71760  0.92390  Biso   1.000  C
  C135     1.0000 0.95970  0.21760  0.57610  Biso   1.000  C
  C136     1.0000 0.95970  0.28240  0.07610  Biso   1.000  C
  C137     1.0000 0.05540  0.87290  0.45280  Biso   1.000  C
  C138     1.0000 0.05540  0.62710  0.95280  Biso   1.000  C
  C139     1.0000 0.94460  0.12710  0.54720  Biso   1.000  C
  C140     1.0000 0.94460  0.37290  0.04720  Biso   1.000  C
  H89      1.0000 0.03600  0.90250  0.48260  Biso   1.000  H
  H90      1.0000 0.03600  0.59750  0.98260  Biso   1.000  H
  H91      1.0000 0.96400  0.09750  0.51740  Biso   1.000  H
  H92      1.0000 0.96400  0.40250  0.01740  Biso   1.000  H
  C141     1.0000 0.09820  0.91900  0.43840  Biso   1.000  C
  C142     1.0000 0.09820  0.58100  0.93840  Biso   1.000  C
  C143     1.0000 0.90180  0.08100  0.56160  Biso   1.000  C
  C144     1.0000 0.90180  0.41900  0.06160  Biso   1.000  C
  H93      1.0000 0.10920  0.97870  0.45890  Biso   1.000  H
  H94      1.0000 0.10920  0.52130  0.95890  Biso   1.000  H
  H95      1.0000 0.89080  0.02130  0.54110  Biso   1.000  H
  H96      1.0000 0.89080  0.47870  0.04110  Biso   1.000  H
  C145     1.0000 0.12490  0.87640  0.39340  Biso   1.000  C
  C146     1.0000 0.12490  0.62360  0.89340  Biso   1.000  C
  C147     1.0000 0.87510  0.12360  0.60660  Biso   1.000  C
  C148     1.0000 0.87510  0.37640  0.10660  Biso   1.000  C
  H97      1.0000 0.15470  0.90600  0.38250  Biso   1.000  H
  H98      1.0000 0.15470  0.59400  0.88250  Biso   1.000  H
  H99      1.0000 0.84530  0.09400  0.61750  Biso   1.000  H
  H100     1.0000 0.84530  0.40600  0.11750  Biso   1.000  H
  C149     1.0000 0.10710  0.78970  0.36460  Biso   1.000  C
  C150     1.0000 0.10710  0.71030  0.86460  Biso   1.000  C
  C151     1.0000 0.89290  0.21030  0.63540  Biso   1.000  C
  C152     1.0000 0.89290  0.28970  0.13540  Biso   1.000  C
  H101     1.0000 0.12510  0.76170  0.33300  Biso   1.000  H
  H102     1.0000 0.12510  0.73830  0.83300  Biso   1.000  H
  H103     1.0000 0.87490  0.23830  0.66700  Biso   1.000  H
  H104     1.0000 0.87490  0.26170  0.16700  Biso   1.000  H
  C153     1.0000 0.90440  0.64470  0.42540  Biso   1.000  C
  C154     1.0000 0.90440  0.85530  0.92540  Biso   1.000  C
  C155     1.0000 0.09560  0.35530  0.57460  Biso   1.000  C
  C156     1.0000 0.09560  0.14470  0.07460  Biso   1.000  C
  C157     1.0000 0.35890  0.46630  0.31500  Biso   1.000  C
  C158     1.0000 0.35890  0.03370  0.81500  Biso   1.000  C
  C159     1.0000 0.64110  0.53370  0.68500  Biso   1.000  C
  C160     1.0000 0.64110  0.96630  0.18500  Biso   1.000  C
  H105     1.0000 0.35340  0.40470  0.34000  Biso   1.000  H
  H106     1.0000 0.35340  0.09530  0.84000  Biso   1.000  H
  H107     1.0000 0.64660  0.59530  0.66000  Biso   1.000  H
  H108     1.0000 0.64660  0.90470  0.16000  Biso   1.000  H
  H109     1.0000 0.32730  0.49770  0.30640  Biso   1.000  H
  H110     1.0000 0.32730  0.00230  0.80640  Biso   1.000  H
  H111     1.0000 0.67270  0.50230  0.69360  Biso   1.000  H
  H112     1.0000 0.67270  0.99770  0.19360  Biso   1.000  H
  C161     1.0000 0.25060  0.49550  0.23680  Biso   1.000  C
  C162     1.0000 0.25060  0.00450  0.73680  Biso   1.000  C
  C163     1.0000 0.74940  0.50450  0.76320  Biso   1.000  C
  C164     1.0000 0.74940  0.99550  0.26320  Biso   1.000  C
  H113     1.0000 0.22880  0.53500  0.26260  Biso   1.000  H
  H114     1.0000 0.22880  0.96500  0.76260  Biso   1.000  H
  H115     1.0000 0.77120  0.46500  0.73740  Biso   1.000  H
  H116     1.0000 0.77120  0.03500  0.23740  Biso   1.000  H
  H117     1.0000 0.27320  0.45650  0.26210  Biso   1.000  H
  H118     1.0000 0.27320  0.04350  0.76210  Biso   1.000  H
  H119     1.0000 0.72680  0.54350  0.73790  Biso   1.000  H
  H120     1.0000 0.72680  0.95650  0.23790  Biso   1.000  H
  C165     1.0000 0.14460  0.52590  0.31660  Biso   1.000  C
  C166     1.0000 0.14460  0.97410  0.81660  Biso   1.000  C
  C167     1.0000 0.85540  0.47410  0.68340  Biso   1.000  C
  C168     1.0000 0.85540  0.02590  0.18340  Biso   1.000  C
  H121     1.0000 0.17580  0.49320  0.30750  Biso   1.000  H
  H122     1.0000 0.17580  0.00680  0.80750  Biso   1.000  H
  H123     1.0000 0.82420  0.50680  0.69250  Biso   1.000  H
  H124     1.0000 0.82420  0.99320  0.19250  Biso   1.000  H
  H125     1.0000 0.15100  0.58750  0.34140  Biso   1.000  H
  H126     1.0000 0.15100  0.91250  0.84140  Biso   1.000  H
  H127     1.0000 0.84900  0.41250  0.65860  Biso   1.000  H
  H128     1.0000 0.84900  0.08750  0.15860  Biso   1.000  H
  C169     1.0000 0.85230  0.63250  0.42230  Biso   1.000  C
  C170     1.0000 0.85230  0.86750  0.92230  Biso   1.000  C
  C171     1.0000 0.14770  0.36750  0.57770  Biso   1.000  C
  C172     1.0000 0.14770  0.13250  0.07770  Biso   1.000  C
  C173     1.0000 0.82680  0.60260  0.37230  Biso   1.000  C
  C174     1.0000 0.82680  0.89740  0.87230  Biso   1.000  C
  C175     1.0000 0.17320  0.39740  0.62770  Biso   1.000  C
  C176     1.0000 0.17320  0.10260  0.12770  Biso   1.000  C
  H129     1.0000 0.84270  0.58600  0.33670  Biso   1.000  H
  H130     1.0000 0.84270  0.91400  0.83670  Biso   1.000  H
  H131     1.0000 0.15730  0.41400  0.66330  Biso   1.000  H
  H132     1.0000 0.15730  0.08600  0.16330  Biso   1.000  H
  C177     1.0000 0.77750  0.59800  0.37640  Biso   1.000  C
  C178     1.0000 0.77750  0.90200  0.87640  Biso   1.000  C
  C179     1.0000 0.22250  0.40200  0.62360  Biso   1.000  C
  C180     1.0000 0.22250  0.09800  0.12360  Biso   1.000  C
  H133     1.0000 0.75890  0.57930  0.34290  Biso   1.000  H
  H134     1.0000 0.75890  0.92070  0.84290  Biso   1.000  H
  H135     1.0000 0.24110  0.42070  0.65710  Biso   1.000  H
  H136     1.0000 0.24110  0.07930  0.15710  Biso   1.000  H
  C181     1.0000 0.59390  0.34380  0.43330  Biso   1.000  C
  C182     1.0000 0.59390  0.15620  0.93330  Biso   1.000  C
  C183     1.0000 0.40610  0.65620  0.56670  Biso   1.000  C
  C184     1.0000 0.40610  0.84380  0.06670  Biso   1.000  C
  C185     1.0000 0.64760  0.34970  0.43110  Biso   1.000  C
  C186     1.0000 0.64760  0.15030  0.93110  Biso   1.000  C
  C187     1.0000 0.35240  0.65030  0.56890  Biso   1.000  C
  C188     1.0000 0.35240  0.84970  0.06890  Biso   1.000  C
  C189     1.0000 0.67330  0.37530  0.38230  Biso   1.000  C
  C190     1.0000 0.67330  0.12470  0.88230  Biso   1.000  C
  C191     1.0000 0.32670  0.62470  0.61770  Biso   1.000  C
  C192     1.0000 0.32670  0.87530  0.11770  Biso   1.000  C
  H137     1.0000 0.65770  0.39630  0.34700  Biso   1.000  H
  H138     1.0000 0.65770  0.10370  0.84700  Biso   1.000  H
  H139     1.0000 0.34230  0.60370  0.65300  Biso   1.000  H
  H140     1.0000 0.34230  0.89630  0.15300  Biso   1.000  H
  C193     1.0000 0.72260  0.36970  0.38590  Biso   1.000  C
  C194     1.0000 0.72260  0.13030  0.88590  Biso   1.000  C
  C195     1.0000 0.27740  0.63030  0.61410  Biso   1.000  C
  C196     1.0000 0.27740  0.86970  0.11410  Biso   1.000  C
  H141     1.0000 0.74150  0.38520  0.35240  Biso   1.000  H
  H142     1.0000 0.74150  0.11480  0.85240  Biso   1.000  H
  H143     1.0000 0.25850  0.61480  0.64760  Biso   1.000  H
  H144     1.0000 0.25850  0.88520  0.14760  Biso   1.000  H
  C197     1.0000 0.74500  0.34120  0.43910  Biso   1.000  C
  C198     1.0000 0.74500  0.15880  0.93910  Biso   1.000  C
  C199     1.0000 0.25500  0.65880  0.56090  Biso   1.000  C
  C200     1.0000 0.25500  0.84120  0.06090  Biso   1.000  C
  H145     1.0000 0.77890  0.34090  0.44300  Biso   1.000  H
  H146     1.0000 0.77890  0.15910  0.94300  Biso   1.000  H
  H147     1.0000 0.22110  0.65910  0.55700  Biso   1.000  H
  H148     1.0000 0.22110  0.84090  0.05700  Biso   1.000  H
  C201     1.0000 0.75510  0.62060  0.42860  Biso   1.000  C
  C202     1.0000 0.75510  0.87940  0.92860  Biso   1.000  C
  C203     1.0000 0.24490  0.37940  0.57140  Biso   1.000  C
  C204     1.0000 0.24490  0.12060  0.07140  Biso   1.000  C
  H149     1.0000 0.72160  0.61160  0.43260  Biso   1.000  H
  H150     1.0000 0.72160  0.88840  0.93260  Biso   1.000  H
  H151     1.0000 0.27840  0.38840  0.56740  Biso   1.000  H
  H152     1.0000 0.27840  0.11160  0.06740  Biso   1.000  H
