data_image0
_cell_length_a       32.5799
_cell_length_b       17.8676
_cell_length_c       15.9612
_cell_angle_alpha    90
_cell_angle_beta     104.43
_cell_angle_gamma    90

_symmetry_space_group_name_H-M    "P 1"
_symmetry_int_tables_number       1

loop_
  _symmetry_equiv_pos_as_xyz
  'x, y, z'

loop_
  _atom_site_label
  _atom_site_occupancy
  _atom_site_fract_x
  _atom_site_fract_y
  _atom_site_fract_z
  _atom_site_thermal_displace_type
  _atom_site_B_iso_or_equiv
  _atom_site_type_symbol
  Mo1      1.0000 0.20079  0.21667  0.82056  Biso   1.000  Mo
  Mo2      1.0000 0.70079  0.71667  0.82056  Biso   1.000  Mo
  Mo3      1.0000 0.20079  0.78333  0.32056  Biso   1.000  Mo
  Mo4      1.0000 0.70079  0.28333  0.32056  Biso   1.000  Mo
  Mo5      1.0000 0.79921  0.78333  0.17944  Biso   1.000  Mo
  Mo6      1.0000 0.29921  0.28333  0.17944  Biso   1.000  Mo
  Mo7      1.0000 0.79921  0.21667  0.67944  Biso   1.000  Mo
  Mo8      1.0000 0.29921  0.71667  0.67944  Biso   1.000  Mo
  Mo9      1.0000 0.07812  0.15397  0.52566  Biso   1.000  Mo
  Mo10     1.0000 0.57812  0.65397  0.52566  Biso   1.000  Mo
  Mo11     1.0000 0.07812  0.84603  0.02566  Biso   1.000  Mo
  Mo12     1.0000 0.57812  0.34603  0.02566  Biso   1.000  Mo
  Mo13     1.0000 0.92188  0.84603  0.47434  Biso   1.000  Mo
  Mo14     1.0000 0.42188  0.34603  0.47434  Biso   1.000  Mo
  Mo15     1.0000 0.92188  0.15397  0.97434  Biso   1.000  Mo
  Mo16     1.0000 0.42188  0.65397  0.97434  Biso   1.000  Mo
  Mo17     1.0000 0.16305  0.09161  0.66945  Biso   1.000  Mo
  Mo18     1.0000 0.66305  0.59161  0.66945  Biso   1.000  Mo
  Mo19     1.0000 0.16305  0.90839  0.16945  Biso   1.000  Mo
  Mo20     1.0000 0.66305  0.40839  0.16945  Biso   1.000  Mo
  Mo21     1.0000 0.83695  0.90839  0.33055  Biso   1.000  Mo
  Mo22     1.0000 0.33695  0.40839  0.33055  Biso   1.000  Mo
  Mo23     1.0000 0.83695  0.09161  0.83055  Biso   1.000  Mo
  Mo24     1.0000 0.33695  0.59161  0.83055  Biso   1.000  Mo
  Cu1      1.0000 0.10097  0.07187  0.87273  Biso   1.000  Cu
  Cu2      1.0000 0.60097  0.57187  0.87273  Biso   1.000  Cu
  Cu3      1.0000 0.10097  0.92813  0.37273  Biso   1.000  Cu
  Cu4      1.0000 0.60097  0.42813  0.37273  Biso   1.000  Cu
  Cu5      1.0000 0.89903  0.92813  0.12727  Biso   1.000  Cu
  Cu6      1.0000 0.39903  0.42813  0.12727  Biso   1.000  Cu
  Cu7      1.0000 0.89903  0.07187  0.62727  Biso   1.000  Cu
  Cu8      1.0000 0.39903  0.57187  0.62727  Biso   1.000  Cu
  Cu9      1.0000 0.23578  0.35745  0.56590  Biso   1.000  Cu
  Cu10     1.0000 0.73578  0.85745  0.56590  Biso   1.000  Cu
  Cu11     1.0000 0.23578  0.64255  0.06590  Biso   1.000  Cu
  Cu12     1.0000 0.73578  0.14255  0.06590  Biso   1.000  Cu
  Cu13     1.0000 0.76422  0.64255  0.43410  Biso   1.000  Cu
  Cu14     1.0000 0.26422  0.14255  0.43410  Biso   1.000  Cu
  Cu15     1.0000 0.76422  0.35745  0.93410  Biso   1.000  Cu
  Cu16     1.0000 0.26422  0.85745  0.93410  Biso   1.000  Cu
  P1       1.0000 0.20210  0.38696  0.73927  Biso   1.000  P
  P2       1.0000 0.70210  0.88696  0.73927  Biso   1.000  P
  P3       1.0000 0.20210  0.61304  0.23927  Biso   1.000  P
  P4       1.0000 0.70210  0.11304  0.23927  Biso   1.000  P
  P5       1.0000 0.79790  0.61304  0.26073  Biso   1.000  P
  P6       1.0000 0.29790  0.11304  0.26073  Biso   1.000  P
  P7       1.0000 0.79790  0.38696  0.76073  Biso   1.000  P
  P8       1.0000 0.29790  0.88696  0.76073  Biso   1.000  P
  P9       1.0000 0.15758  0.28022  0.60348  Biso   1.000  P
  P10      1.0000 0.65758  0.78022  0.60348  Biso   1.000  P
  P11      1.0000 0.15758  0.71978  0.10348  Biso   1.000  P
  P12      1.0000 0.65758  0.21978  0.10348  Biso   1.000  P
  P13      1.0000 0.84242  0.71978  0.39652  Biso   1.000  P
  P14      1.0000 0.34242  0.21978  0.39652  Biso   1.000  P
  P15      1.0000 0.84242  0.28022  0.89652  Biso   1.000  P
  P16      1.0000 0.34242  0.78022  0.89652  Biso   1.000  P
  P17      1.0000 0.01163  0.24297  0.61726  Biso   1.000  P
  P18      1.0000 0.51163  0.74297  0.61726  Biso   1.000  P
  P19      1.0000 0.01163  0.75703  0.11726  Biso   1.000  P
  P20      1.0000 0.51163  0.25703  0.11726  Biso   1.000  P
  P21      1.0000 0.98837  0.75703  0.38274  Biso   1.000  P
  P22      1.0000 0.48837  0.25703  0.38274  Biso   1.000  P
  P23      1.0000 0.98837  0.24297  0.88274  Biso   1.000  P
  P24      1.0000 0.48837  0.74297  0.88274  Biso   1.000  P
  P25      1.0000 0.09344  0.20487  0.74911  Biso   1.000  P
  P26      1.0000 0.59344  0.70487  0.74911  Biso   1.000  P
  P27      1.0000 0.09344  0.79513  0.24911  Biso   1.000  P
  P28      1.0000 0.59344  0.29513  0.24911  Biso   1.000  P
  P29      1.0000 0.90656  0.79513  0.25089  Biso   1.000  P
  P30      1.0000 0.40656  0.29513  0.25089  Biso   1.000  P
  P31      1.0000 0.90656  0.20487  0.75089  Biso   1.000  P
  P32      1.0000 0.40656  0.70487  0.75089  Biso   1.000  P
  O1       1.0000 0.07389  0.15789  0.81040  Biso   1.000  O
  O2       1.0000 0.57389  0.65789  0.81040  Biso   1.000  O
  O3       1.0000 0.07389  0.84211  0.31040  Biso   1.000  O
  O4       1.0000 0.57389  0.34211  0.31040  Biso   1.000  O
  O5       1.0000 0.92611  0.84211  0.18960  Biso   1.000  O
  O6       1.0000 0.42611  0.34211  0.18960  Biso   1.000  O
  O7       1.0000 0.92611  0.15789  0.68960  Biso   1.000  O
  O8       1.0000 0.42611  0.65789  0.68960  Biso   1.000  O
  O9       1.0000 0.06822  0.16710  0.41680  Biso   1.000  O
  O10      1.0000 0.56822  0.66710  0.41680  Biso   1.000  O
  O11      1.0000 0.06822  0.83290  0.91680  Biso   1.000  O
  O12      1.0000 0.56822  0.33290  0.91680  Biso   1.000  O
  O13      1.0000 0.93178  0.83290  0.58320  Biso   1.000  O
  O14      1.0000 0.43178  0.33290  0.58320  Biso   1.000  O
  O15      1.0000 0.93178  0.16710  0.08320  Biso   1.000  O
  O16      1.0000 0.43178  0.66710  0.08320  Biso   1.000  O
  O17      1.0000 0.18561  0.29739  0.54320  Biso   1.000  O
  O18      1.0000 0.68561  0.79739  0.54320  Biso   1.000  O
  O19      1.0000 0.18561  0.70261  0.04320  Biso   1.000  O
  O20      1.0000 0.68561  0.20261  0.04320  Biso   1.000  O
  O21      1.0000 0.81439  0.70261  0.45680  Biso   1.000  O
  O22      1.0000 0.31439  0.20261  0.45680  Biso   1.000  O
  O23      1.0000 0.81439  0.29739  0.95680  Biso   1.000  O
  O24      1.0000 0.31439  0.79739  0.95680  Biso   1.000  O
  O25      1.0000 0.04881  0.07580  0.53430  Biso   1.000  O
  O26      1.0000 0.54881  0.57580  0.53430  Biso   1.000  O
  O27      1.0000 0.04881  0.92420  0.03430  Biso   1.000  O
  O28      1.0000 0.54881  0.42420  0.03430  Biso   1.000  O
  O29      1.0000 0.95119  0.92420  0.46570  Biso   1.000  O
  O30      1.0000 0.45119  0.42420  0.46570  Biso   1.000  O
  O31      1.0000 0.95119  0.07580  0.96570  Biso   1.000  O
  O32      1.0000 0.45119  0.57580  0.96570  Biso   1.000  O
  O33      1.0000 0.23792  0.38940  0.69650  Biso   1.000  O
  O34      1.0000 0.73792  0.88940  0.69650  Biso   1.000  O
  O35      1.0000 0.23792  0.61060  0.19650  Biso   1.000  O
  O36      1.0000 0.73792  0.11060  0.19650  Biso   1.000  O
  O37      1.0000 0.76208  0.61060  0.30350  Biso   1.000  O
  O38      1.0000 0.26208  0.11060  0.30350  Biso   1.000  O
  O39      1.0000 0.76208  0.38940  0.80350  Biso   1.000  O
  O40      1.0000 0.26208  0.88940  0.80350  Biso   1.000  O
  O41      1.0000 0.14216  0.00577  0.67740  Biso   1.000  O
  O42      1.0000 0.64216  0.50577  0.67740  Biso   1.000  O
  O43      1.0000 0.14216  0.99423  0.17740  Biso   1.000  O
  O44      1.0000 0.64216  0.49423  0.17740  Biso   1.000  O
  O45      1.0000 0.85784  0.99423  0.32260  Biso   1.000  O
  O46      1.0000 0.35784  0.49423  0.32260  Biso   1.000  O
  O47      1.0000 0.85784  0.00577  0.82260  Biso   1.000  O
  O48      1.0000 0.35784  0.50577  0.82260  Biso   1.000  O
  O49      1.0000 0.09944  0.15496  0.67430  Biso   1.000  O
  O50      1.0000 0.59944  0.65496  0.67430  Biso   1.000  O
  O51      1.0000 0.09944  0.84504  0.17430  Biso   1.000  O
  O52      1.0000 0.59944  0.34504  0.17430  Biso   1.000  O
  O53      1.0000 0.90056  0.84504  0.32570  Biso   1.000  O
  O54      1.0000 0.40056  0.34504  0.32570  Biso   1.000  O
  O55      1.0000 0.90056  0.15496  0.82570  Biso   1.000  O
  O56      1.0000 0.40056  0.65496  0.82570  Biso   1.000  O
  O57      1.0000 0.21114  0.07334  0.65040  Biso   1.000  O
  O58      1.0000 0.71114  0.57334  0.65040  Biso   1.000  O
  O59      1.0000 0.21114  0.92666  0.15040  Biso   1.000  O
  O60      1.0000 0.71114  0.42666  0.15040  Biso   1.000  O
  O61      1.0000 0.78886  0.92666  0.34960  Biso   1.000  O
  O62      1.0000 0.28886  0.42666  0.34960  Biso   1.000  O
  O63      1.0000 0.78886  0.07334  0.84960  Biso   1.000  O
  O64      1.0000 0.28886  0.57334  0.84960  Biso   1.000  O
  O65      1.0000 0.20640  0.21610  0.92880  Biso   1.000  O
  O66      1.0000 0.70640  0.71610  0.92880  Biso   1.000  O
  O67      1.0000 0.20640  0.78390  0.42880  Biso   1.000  O
  O68      1.0000 0.70640  0.28390  0.42880  Biso   1.000  O
  O69      1.0000 0.79360  0.78390  0.07120  Biso   1.000  O
  O70      1.0000 0.29360  0.28390  0.07120  Biso   1.000  O
  O71      1.0000 0.79360  0.21610  0.57120  Biso   1.000  O
  O72      1.0000 0.29360  0.71610  0.57120  Biso   1.000  O
  O73      1.0000 0.13315  0.24610  0.79590  Biso   1.000  O
  O74      1.0000 0.63315  0.74610  0.79590  Biso   1.000  O
  O75      1.0000 0.13315  0.75390  0.29590  Biso   1.000  O
  O76      1.0000 0.63315  0.25390  0.29590  Biso   1.000  O
  O77      1.0000 0.86685  0.75390  0.20410  Biso   1.000  O
  O78      1.0000 0.36685  0.25390  0.20410  Biso   1.000  O
  O79      1.0000 0.86685  0.24610  0.70410  Biso   1.000  O
  O80      1.0000 0.36685  0.74610  0.70410  Biso   1.000  O
  O81      1.0000 0.25055  0.19649  0.80970  Biso   1.000  O
  O82      1.0000 0.75055  0.69649  0.80970  Biso   1.000  O
  O83      1.0000 0.25055  0.80351  0.30970  Biso   1.000  O
  O84      1.0000 0.75055  0.30351  0.30970  Biso   1.000  O
  O85      1.0000 0.74945  0.80351  0.19030  Biso   1.000  O
  O86      1.0000 0.24945  0.30351  0.19030  Biso   1.000  O
  O87      1.0000 0.74945  0.19649  0.69030  Biso   1.000  O
  O88      1.0000 0.24945  0.69649  0.69030  Biso   1.000  O
  O89      1.0000 0.99584  0.16707  0.64810  Biso   1.000  O
  O90      1.0000 0.49584  0.66707  0.64810  Biso   1.000  O
  O91      1.0000 0.99584  0.83293  0.14810  Biso   1.000  O
  O92      1.0000 0.49584  0.33293  0.14810  Biso   1.000  O
  O93      1.0000 0.00416  0.83293  0.35190  Biso   1.000  O
  O94      1.0000 0.50416  0.33293  0.35190  Biso   1.000  O
  O95      1.0000 0.00416  0.16707  0.85190  Biso   1.000  O
  O96      1.0000 0.50416  0.66707  0.85190  Biso   1.000  O
  O97      1.0000 0.19624  0.46296  0.78230  Biso   1.000  O
  O98      1.0000 0.69624  0.96296  0.78230  Biso   1.000  O
  O99      1.0000 0.19624  0.53704  0.28230  Biso   1.000  O
  O100     1.0000 0.69624  0.03704  0.28230  Biso   1.000  O
  O101     1.0000 0.80376  0.53704  0.21770  Biso   1.000  O
  O102     1.0000 0.30376  0.03704  0.21770  Biso   1.000  O
  O103     1.0000 0.80376  0.46296  0.71770  Biso   1.000  O
  O104     1.0000 0.30376  0.96296  0.71770  Biso   1.000  O
  O105     1.0000 0.97687  0.29890  0.59390  Biso   1.000  O
  O106     1.0000 0.47687  0.79890  0.59390  Biso   1.000  O
  O107     1.0000 0.97687  0.70110  0.09390  Biso   1.000  O
  O108     1.0000 0.47687  0.20110  0.09390  Biso   1.000  O
  O109     1.0000 0.02313  0.70110  0.40610  Biso   1.000  O
  O110     1.0000 0.52313  0.20110  0.40610  Biso   1.000  O
  O111     1.0000 0.02313  0.29890  0.90610  Biso   1.000  O
  O112     1.0000 0.52313  0.79890  0.90610  Biso   1.000  O
  O113     1.0000 0.03194  0.22410  0.54320  Biso   1.000  O
  O114     1.0000 0.53194  0.72410  0.54320  Biso   1.000  O
  O115     1.0000 0.03194  0.77590  0.04320  Biso   1.000  O
  O116     1.0000 0.53194  0.27590  0.04320  Biso   1.000  O
  O117     1.0000 0.96806  0.77590  0.45680  Biso   1.000  O
  O118     1.0000 0.46806  0.27590  0.45680  Biso   1.000  O
  O119     1.0000 0.96806  0.22410  0.95680  Biso   1.000  O
  O120     1.0000 0.46806  0.72410  0.95680  Biso   1.000  O
  O121     1.0000 0.11282  0.26028  0.55370  Biso   1.000  O
  O122     1.0000 0.61282  0.76028  0.55370  Biso   1.000  O
  O123     1.0000 0.11282  0.73972  0.05370  Biso   1.000  O
  O124     1.0000 0.61282  0.23972  0.05370  Biso   1.000  O
  O125     1.0000 0.88718  0.73972  0.44630  Biso   1.000  O
  O126     1.0000 0.38718  0.23972  0.44630  Biso   1.000  O
  O127     1.0000 0.88718  0.26028  0.94630  Biso   1.000  O
  O128     1.0000 0.38718  0.76028  0.94630  Biso   1.000  O
  O129     1.0000 0.17757  0.22030  0.67070  Biso   1.000  O
  O130     1.0000 0.67757  0.72030  0.67070  Biso   1.000  O
  O131     1.0000 0.17757  0.77970  0.17070  Biso   1.000  O
  O132     1.0000 0.67757  0.27970  0.17070  Biso   1.000  O
  O133     1.0000 0.82243  0.77970  0.32930  Biso   1.000  O
  O134     1.0000 0.32243  0.27970  0.32930  Biso   1.000  O
  O135     1.0000 0.82243  0.22030  0.82930  Biso   1.000  O
  O136     1.0000 0.32243  0.72030  0.82930  Biso   1.000  O
  O137     1.0000 0.20627  0.32845  0.81100  Biso   1.000  O
  O138     1.0000 0.70627  0.82845  0.81100  Biso   1.000  O
  O139     1.0000 0.20627  0.67155  0.31100  Biso   1.000  O
  O140     1.0000 0.70627  0.17155  0.31100  Biso   1.000  O
  O141     1.0000 0.79373  0.67155  0.18900  Biso   1.000  O
  O142     1.0000 0.29373  0.17155  0.18900  Biso   1.000  O
  O143     1.0000 0.79373  0.32845  0.68900  Biso   1.000  O
  O144     1.0000 0.29373  0.82845  0.68900  Biso   1.000  O
  O145     1.0000 0.13272  0.11378  0.55000  Biso   1.000  O
  O146     1.0000 0.63272  0.61378  0.55000  Biso   1.000  O
  O147     1.0000 0.13272  0.88622  0.05000  Biso   1.000  O
  O148     1.0000 0.63272  0.38622  0.05000  Biso   1.000  O
  O149     1.0000 0.86728  0.88622  0.45000  Biso   1.000  O
  O150     1.0000 0.36728  0.38622  0.45000  Biso   1.000  O
  O151     1.0000 0.86728  0.11378  0.95000  Biso   1.000  O
  O152     1.0000 0.36728  0.61378  0.95000  Biso   1.000  O
  O153     1.0000 0.17679  0.11964  0.78940  Biso   1.000  O
  O154     1.0000 0.67679  0.61964  0.78940  Biso   1.000  O
  O155     1.0000 0.17679  0.88036  0.28940  Biso   1.000  O
  O156     1.0000 0.67679  0.38036  0.28940  Biso   1.000  O
  O157     1.0000 0.82321  0.88036  0.21060  Biso   1.000  O
  O158     1.0000 0.32321  0.38036  0.21060  Biso   1.000  O
  O159     1.0000 0.82321  0.11964  0.71060  Biso   1.000  O
  O160     1.0000 0.32321  0.61964  0.71060  Biso   1.000  O
  O161     1.0000 0.05276  0.05630  0.94820  Biso   1.000  O
  O162     1.0000 0.55276  0.55630  0.94820  Biso   1.000  O
  O163     1.0000 0.05276  0.94370  0.44820  Biso   1.000  O
  O164     1.0000 0.55276  0.44370  0.44820  Biso   1.000  O
  O165     1.0000 0.94724  0.94370  0.05180  Biso   1.000  O
  O166     1.0000 0.44724  0.44370  0.05180  Biso   1.000  O
  O167     1.0000 0.94724  0.05630  0.55180  Biso   1.000  O
  O168     1.0000 0.44724  0.55630  0.55180  Biso   1.000  O
  O169     1.0000 0.19599  0.56690  0.67300  Biso   1.000  O
  O170     1.0000 0.69599  0.06690  0.67300  Biso   1.000  O
  O171     1.0000 0.19599  0.43310  0.17300  Biso   1.000  O
  O172     1.0000 0.69599  0.93310  0.17300  Biso   1.000  O
  O173     1.0000 0.80401  0.43310  0.32700  Biso   1.000  O
  O174     1.0000 0.30401  0.93310  0.32700  Biso   1.000  O
  O175     1.0000 0.80401  0.56690  0.82700  Biso   1.000  O
  O176     1.0000 0.30401  0.06690  0.82700  Biso   1.000  O
  O177     1.0000 0.94279  0.30130  0.41230  Biso   1.000  O
  O178     1.0000 0.44279  0.80130  0.41230  Biso   1.000  O
  O179     1.0000 0.94279  0.69870  0.91230  Biso   1.000  O
  O180     1.0000 0.44279  0.19870  0.91230  Biso   1.000  O
  O181     1.0000 0.05721  0.69870  0.58770  Biso   1.000  O
  O182     1.0000 0.55721  0.19870  0.58770  Biso   1.000  O
  O183     1.0000 0.05721  0.30130  0.08770  Biso   1.000  O
  O184     1.0000 0.55721  0.80130  0.08770  Biso   1.000  O
  O185     1.0000 0.07504  0.36420  0.43560  Biso   1.000  O
  O186     1.0000 0.57504  0.86420  0.43560  Biso   1.000  O
  O187     1.0000 0.07504  0.63580  0.93560  Biso   1.000  O
  O188     1.0000 0.57504  0.13580  0.93560  Biso   1.000  O
  O189     1.0000 0.92496  0.63580  0.56440  Biso   1.000  O
  O190     1.0000 0.42496  0.13580  0.56440  Biso   1.000  O
  O191     1.0000 0.92496  0.36420  0.06440  Biso   1.000  O
  O192     1.0000 0.42496  0.86420  0.06440  Biso   1.000  O
  O193     1.0000 0.99250  0.44390  0.60760  Biso   1.000  O
  O194     1.0000 0.49250  0.94390  0.60760  Biso   1.000  O
  O195     1.0000 0.99250  0.55610  0.10760  Biso   1.000  O
  O196     1.0000 0.49250  0.05610  0.10760  Biso   1.000  O
  O197     1.0000 0.00750  0.55610  0.39240  Biso   1.000  O
  O198     1.0000 0.50750  0.05610  0.39240  Biso   1.000  O
  O199     1.0000 0.00750  0.44390  0.89240  Biso   1.000  O
  O200     1.0000 0.50750  0.94390  0.89240  Biso   1.000  O
  O201     1.0000 0.11110  0.58560  0.63120  Biso   1.000  O
  O202     1.0000 0.61110  0.08560  0.63120  Biso   1.000  O
  O203     1.0000 0.11110  0.41440  0.13120  Biso   1.000  O
  O204     1.0000 0.61110  0.91440  0.13120  Biso   1.000  O
  O205     1.0000 0.88890  0.41440  0.36880  Biso   1.000  O
  O206     1.0000 0.38890  0.91440  0.36880  Biso   1.000  O
  O207     1.0000 0.88890  0.58560  0.86880  Biso   1.000  O
  O208     1.0000 0.38890  0.08560  0.86880  Biso   1.000  O
  O209     1.0000 0.05900  0.48040  0.53900  Biso   1.000  O
  O210     1.0000 0.55900  0.98040  0.53900  Biso   1.000  O
  O211     1.0000 0.05900  0.51960  0.03900  Biso   1.000  O
  O212     1.0000 0.55900  0.01960  0.03900  Biso   1.000  O
  O213     1.0000 0.94100  0.51960  0.46100  Biso   1.000  O
  O214     1.0000 0.44100  0.01960  0.46100  Biso   1.000  O
  O215     1.0000 0.94100  0.48040  0.96100  Biso   1.000  O
  O216     1.0000 0.44100  0.98040  0.96100  Biso   1.000  O
  O217     1.0000 0.01090  0.28500  0.33640  Biso   1.000  O
  O218     1.0000 0.51090  0.78500  0.33640  Biso   1.000  O
  O219     1.0000 0.01090  0.71500  0.83640  Biso   1.000  O
  O220     1.0000 0.51090  0.21500  0.83640  Biso   1.000  O
  O221     1.0000 0.98910  0.71500  0.66360  Biso   1.000  O
  O222     1.0000 0.48910  0.21500  0.66360  Biso   1.000  O
  O223     1.0000 0.98910  0.28500  0.16360  Biso   1.000  O
  O224     1.0000 0.48910  0.78500  0.16360  Biso   1.000  O
  O225     1.0000 0.99940  0.34580  0.31780  Biso   1.000  O
  O226     1.0000 0.49940  0.84580  0.31780  Biso   1.000  O
  O227     1.0000 0.99940  0.65420  0.81780  Biso   1.000  O
  O228     1.0000 0.49940  0.15420  0.81780  Biso   1.000  O
  O229     1.0000 0.00060  0.65420  0.68220  Biso   1.000  O
  O230     1.0000 0.50060  0.15420  0.68220  Biso   1.000  O
  O231     1.0000 0.00060  0.34580  0.18220  Biso   1.000  O
  O232     1.0000 0.50060  0.84580  0.18220  Biso   1.000  O
  O233     1.0000 0.10850  0.50830  0.76610  Biso   1.000  O
  O234     1.0000 0.60850  0.00830  0.76610  Biso   1.000  O
  O235     1.0000 0.10850  0.49170  0.26610  Biso   1.000  O
  O236     1.0000 0.60850  0.99170  0.26610  Biso   1.000  O
  O237     1.0000 0.89150  0.49170  0.23390  Biso   1.000  O
  O238     1.0000 0.39150  0.99170  0.23390  Biso   1.000  O
  O239     1.0000 0.89150  0.50830  0.73390  Biso   1.000  O
  O240     1.0000 0.39150  0.00830  0.73390  Biso   1.000  O
  O241     1.0000 0.97250  0.41340  0.61830  Biso   1.000  O
  O242     1.0000 0.47250  0.91340  0.61830  Biso   1.000  O
  O243     1.0000 0.97250  0.58660  0.11830  Biso   1.000  O
  O244     1.0000 0.47250  0.08660  0.11830  Biso   1.000  O
  O245     1.0000 0.02750  0.58660  0.38170  Biso   1.000  O
  O246     1.0000 0.52750  0.08660  0.38170  Biso   1.000  O
  O247     1.0000 0.02750  0.41340  0.88170  Biso   1.000  O
  O248     1.0000 0.52750  0.91340  0.88170  Biso   1.000  O
  O249     1.0000 0.97610  0.50550  0.75100  Biso   1.000  O
  O250     1.0000 0.47610  0.00550  0.75100  Biso   1.000  O
  O251     1.0000 0.97610  0.49450  0.25100  Biso   1.000  O
  O252     1.0000 0.47610  0.99450  0.25100  Biso   1.000  O
  O253     1.0000 0.02390  0.49450  0.24900  Biso   1.000  O
  O254     1.0000 0.52390  0.99450  0.24900  Biso   1.000  O
  O255     1.0000 0.02390  0.50550  0.74900  Biso   1.000  O
  O256     1.0000 0.52390  0.00550  0.74900  Biso   1.000  O
  N1       1.0000 0.22034  0.77840  0.88860  Biso   1.000  N
  N2       1.0000 0.72034  0.27840  0.88860  Biso   1.000  N
  N3       1.0000 0.22034  0.22160  0.38860  Biso   1.000  N
  N4       1.0000 0.72034  0.72160  0.38860  Biso   1.000  N
  N5       1.0000 0.77966  0.22160  0.11140  Biso   1.000  N
  N6       1.0000 0.27966  0.72160  0.11140  Biso   1.000  N
  N7       1.0000 0.77966  0.77840  0.61140  Biso   1.000  N
  N8       1.0000 0.27966  0.27840  0.61140  Biso   1.000  N
  N9       1.0000 0.21266  0.91310  0.93450  Biso   1.000  N
  N10      1.0000 0.71266  0.41310  0.93450  Biso   1.000  N
  N11      1.0000 0.21266  0.08690  0.43450  Biso   1.000  N
  N12      1.0000 0.71266  0.58690  0.43450  Biso   1.000  N
  N13      1.0000 0.78734  0.08690  0.06550  Biso   1.000  N
  N14      1.0000 0.28734  0.58690  0.06550  Biso   1.000  N
  N15      1.0000 0.78734  0.91310  0.56550  Biso   1.000  N
  N16      1.0000 0.28734  0.41310  0.56550  Biso   1.000  N
  N17      1.0000 0.29023  0.95250  0.99500  Biso   1.000  N
  N18      1.0000 0.79023  0.45250  0.99500  Biso   1.000  N
  N19      1.0000 0.29023  0.04750  0.49500  Biso   1.000  N
  N20      1.0000 0.79023  0.54750  0.49500  Biso   1.000  N
  N21      1.0000 0.70977  0.04750  0.00500  Biso   1.000  N
  N22      1.0000 0.20977  0.54750  0.00500  Biso   1.000  N
  N23      1.0000 0.70977  0.95250  0.50500  Biso   1.000  N
  N24      1.0000 0.20977  0.45250  0.50500  Biso   1.000  N
  N25      1.0000 0.13737  0.12750  0.97260  Biso   1.000  N
  N26      1.0000 0.63737  0.62750  0.97260  Biso   1.000  N
  N27      1.0000 0.13737  0.87250  0.47260  Biso   1.000  N
  N28      1.0000 0.63737  0.37250  0.47260  Biso   1.000  N
  N29      1.0000 0.86263  0.87250  0.02740  Biso   1.000  N
  N30      1.0000 0.36263  0.37250  0.02740  Biso   1.000  N
  N31      1.0000 0.86263  0.12750  0.52740  Biso   1.000  N
  N32      1.0000 0.36263  0.62750  0.52740  Biso   1.000  N
  N33      1.0000 0.14457  0.99670  0.90860  Biso   1.000  N
  N34      1.0000 0.64457  0.49670  0.90860  Biso   1.000  N
  N35      1.0000 0.14457  0.00330  0.40860  Biso   1.000  N
  N36      1.0000 0.64457  0.50330  0.40860  Biso   1.000  N
  N37      1.0000 0.85543  0.00330  0.09140  Biso   1.000  N
  N38      1.0000 0.35543  0.50330  0.09140  Biso   1.000  N
  N39      1.0000 0.85543  0.99670  0.59140  Biso   1.000  N
  N40      1.0000 0.35543  0.49670  0.59140  Biso   1.000  N
  N41      1.0000 0.07902  0.99180  0.78490  Biso   1.000  N
  N42      1.0000 0.57902  0.49180  0.78490  Biso   1.000  N
  N43      1.0000 0.07902  0.00820  0.28490  Biso   1.000  N
  N44      1.0000 0.57902  0.50820  0.28490  Biso   1.000  N
  N45      1.0000 0.92098  0.00820  0.21510  Biso   1.000  N
  N46      1.0000 0.42098  0.50820  0.21510  Biso   1.000  N
  N47      1.0000 0.92098  0.99180  0.71510  Biso   1.000  N
  N48      1.0000 0.42098  0.49180  0.71510  Biso   1.000  N
  C1       1.0000 0.22785  0.70740  0.87330  Biso   1.000  C
  C2       1.0000 0.72785  0.20740  0.87330  Biso   1.000  C
  C3       1.0000 0.22785  0.29260  0.37330  Biso   1.000  C
  C4       1.0000 0.72785  0.79260  0.37330  Biso   1.000  C
  C5       1.0000 0.77215  0.29260  0.12670  Biso   1.000  C
  C6       1.0000 0.27215  0.79260  0.12670  Biso   1.000  C
  C7       1.0000 0.77215  0.70740  0.62670  Biso   1.000  C
  C8       1.0000 0.27215  0.20740  0.62670  Biso   1.000  C
  H1       1.0000 0.25580  0.69170  0.88190  Biso   1.000  H
  H2       1.0000 0.75580  0.19170  0.88190  Biso   1.000  H
  H3       1.0000 0.25580  0.30830  0.38190  Biso   1.000  H
  H4       1.0000 0.75580  0.80830  0.38190  Biso   1.000  H
  H5       1.0000 0.74420  0.30830  0.11810  Biso   1.000  H
  H6       1.0000 0.24420  0.80830  0.11810  Biso   1.000  H
  H7       1.0000 0.74420  0.69170  0.61810  Biso   1.000  H
  H8       1.0000 0.24420  0.19170  0.61810  Biso   1.000  H
  C9       1.0000 0.19597  0.65580  0.84520  Biso   1.000  C
  C10      1.0000 0.69597  0.15580  0.84520  Biso   1.000  C
  C11      1.0000 0.19597  0.34420  0.34520  Biso   1.000  C
  C12      1.0000 0.69597  0.84420  0.34520  Biso   1.000  C
  C13      1.0000 0.80403  0.34420  0.15480  Biso   1.000  C
  C14      1.0000 0.30403  0.84420  0.15480  Biso   1.000  C
  C15      1.0000 0.80403  0.65580  0.65480  Biso   1.000  C
  C16      1.0000 0.30403  0.15580  0.65480  Biso   1.000  C
  H9       1.0000 0.20220  0.60690  0.83240  Biso   1.000  H
  H10      1.0000 0.70220  0.10690  0.83240  Biso   1.000  H
  H11      1.0000 0.20220  0.39310  0.33240  Biso   1.000  H
  H12      1.0000 0.70220  0.89310  0.33240  Biso   1.000  H
  H13      1.0000 0.79780  0.39310  0.16760  Biso   1.000  H
  H14      1.0000 0.29780  0.89310  0.16760  Biso   1.000  H
  H15      1.0000 0.79780  0.60690  0.66760  Biso   1.000  H
  H16      1.0000 0.29780  0.10690  0.66760  Biso   1.000  H
  C17      1.0000 0.15426  0.67820  0.83630  Biso   1.000  C
  C18      1.0000 0.65426  0.17820  0.83630  Biso   1.000  C
  C19      1.0000 0.15426  0.32180  0.33630  Biso   1.000  C
  C20      1.0000 0.65426  0.82180  0.33630  Biso   1.000  C
  C21      1.0000 0.84574  0.32180  0.16370  Biso   1.000  C
  C22      1.0000 0.34574  0.82180  0.16370  Biso   1.000  C
  C23      1.0000 0.84574  0.67820  0.66370  Biso   1.000  C
  C24      1.0000 0.34574  0.17820  0.66370  Biso   1.000  C
  H17      1.0000 0.13210  0.64430  0.81940  Biso   1.000  H
  H18      1.0000 0.63210  0.14430  0.81940  Biso   1.000  H
  H19      1.0000 0.13210  0.35570  0.31940  Biso   1.000  H
  H20      1.0000 0.63210  0.85570  0.31940  Biso   1.000  H
  H21      1.0000 0.86790  0.35570  0.18060  Biso   1.000  H
  H22      1.0000 0.36790  0.85570  0.18060  Biso   1.000  H
  H23      1.0000 0.86790  0.64430  0.68060  Biso   1.000  H
  H24      1.0000 0.36790  0.14430  0.68060  Biso   1.000  H
  C25      1.0000 0.14644  0.75240  0.85320  Biso   1.000  C
  C26      1.0000 0.64644  0.25240  0.85320  Biso   1.000  C
  C27      1.0000 0.14644  0.24760  0.35320  Biso   1.000  C
  C28      1.0000 0.64644  0.74760  0.35320  Biso   1.000  C
  C29      1.0000 0.85356  0.24760  0.14680  Biso   1.000  C
  C30      1.0000 0.35356  0.74760  0.14680  Biso   1.000  C
  C31      1.0000 0.85356  0.75240  0.64680  Biso   1.000  C
  C32      1.0000 0.35356  0.25240  0.64680  Biso   1.000  C
  H25      1.0000 0.11900  0.76840  0.85040  Biso   1.000  H
  H26      1.0000 0.61900  0.26840  0.85040  Biso   1.000  H
  H27      1.0000 0.11900  0.23160  0.35040  Biso   1.000  H
  H28      1.0000 0.61900  0.73160  0.35040  Biso   1.000  H
  H29      1.0000 0.88100  0.23160  0.14960  Biso   1.000  H
  H30      1.0000 0.38100  0.73160  0.14960  Biso   1.000  H
  H31      1.0000 0.88100  0.76840  0.64960  Biso   1.000  H
  H32      1.0000 0.38100  0.26840  0.64960  Biso   1.000  H
  C33      1.0000 0.17956  0.80180  0.87400  Biso   1.000  C
  C34      1.0000 0.67956  0.30180  0.87400  Biso   1.000  C
  C35      1.0000 0.17956  0.19820  0.37400  Biso   1.000  C
  C36      1.0000 0.67956  0.69820  0.37400  Biso   1.000  C
  C37      1.0000 0.82044  0.19820  0.12600  Biso   1.000  C
  C38      1.0000 0.32044  0.69820  0.12600  Biso   1.000  C
  C39      1.0000 0.82044  0.80180  0.62600  Biso   1.000  C
  C40      1.0000 0.32044  0.30180  0.62600  Biso   1.000  C
  C41      1.0000 0.17586  0.88280  0.89050  Biso   1.000  C
  C42      1.0000 0.67586  0.38280  0.89050  Biso   1.000  C
  C43      1.0000 0.17586  0.11720  0.39050  Biso   1.000  C
  C44      1.0000 0.67586  0.61720  0.39050  Biso   1.000  C
  C45      1.0000 0.82414  0.11720  0.10950  Biso   1.000  C
  C46      1.0000 0.32414  0.61720  0.10950  Biso   1.000  C
  C47      1.0000 0.82414  0.88280  0.60950  Biso   1.000  C
  C48      1.0000 0.32414  0.38280  0.60950  Biso   1.000  C
  C49      1.0000 0.21709  0.98250  0.96690  Biso   1.000  C
  C50      1.0000 0.71709  0.48250  0.96690  Biso   1.000  C
  C51      1.0000 0.21709  0.01750  0.46690  Biso   1.000  C
  C52      1.0000 0.71709  0.51750  0.46690  Biso   1.000  C
  C53      1.0000 0.78291  0.01750  0.03310  Biso   1.000  C
  C54      1.0000 0.28291  0.51750  0.03310  Biso   1.000  C
  C55      1.0000 0.78291  0.98250  0.53310  Biso   1.000  C
  C56      1.0000 0.28291  0.48250  0.53310  Biso   1.000  C
  C57      1.0000 0.26157  0.00860  0.99320  Biso   1.000  C
  C58      1.0000 0.76157  0.50860  0.99320  Biso   1.000  C
  C59      1.0000 0.26157  0.99140  0.49320  Biso   1.000  C
  C60      1.0000 0.76157  0.49140  0.49320  Biso   1.000  C
  C61      1.0000 0.73843  0.99140  0.00680  Biso   1.000  C
  C62      1.0000 0.23843  0.49140  0.00680  Biso   1.000  C
  C63      1.0000 0.73843  0.00860  0.50680  Biso   1.000  C
  C64      1.0000 0.23843  0.50860  0.50680  Biso   1.000  C
  C65      1.0000 0.27414  0.08200  0.01040  Biso   1.000  C
  C66      1.0000 0.77414  0.58200  0.01040  Biso   1.000  C
  C67      1.0000 0.27414  0.91800  0.51040  Biso   1.000  C
  C68      1.0000 0.77414  0.41800  0.51040  Biso   1.000  C
  C69      1.0000 0.72586  0.91800  0.98960  Biso   1.000  C
  C70      1.0000 0.22586  0.41800  0.98960  Biso   1.000  C
  C71      1.0000 0.72586  0.08200  0.48960  Biso   1.000  C
  C72      1.0000 0.22586  0.58200  0.48960  Biso   1.000  C
  H33      1.0000 0.25420  0.11970  0.00690  Biso   1.000  H
  H34      1.0000 0.75420  0.61970  0.00690  Biso   1.000  H
  H35      1.0000 0.25420  0.88030  0.50690  Biso   1.000  H
  H36      1.0000 0.75420  0.38030  0.50690  Biso   1.000  H
  H37      1.0000 0.74580  0.88030  0.99310  Biso   1.000  H
  H38      1.0000 0.24580  0.38030  0.99310  Biso   1.000  H
  H39      1.0000 0.74580  0.11970  0.49310  Biso   1.000  H
  H40      1.0000 0.24580  0.61970  0.49310  Biso   1.000  H
  C73      1.0000 0.31723  0.09830  0.03300  Biso   1.000  C
  C74      1.0000 0.81723  0.59830  0.03300  Biso   1.000  C
  C75      1.0000 0.31723  0.90170  0.53300  Biso   1.000  C
  C76      1.0000 0.81723  0.40170  0.53300  Biso   1.000  C
  C77      1.0000 0.68277  0.90170  0.96700  Biso   1.000  C
  C78      1.0000 0.18277  0.40170  0.96700  Biso   1.000  C
  C79      1.0000 0.68277  0.09830  0.46700  Biso   1.000  C
  C80      1.0000 0.18277  0.59830  0.46700  Biso   1.000  C
  H41      1.0000 0.32640  0.14740  0.04400  Biso   1.000  H
  H42      1.0000 0.82640  0.64740  0.04400  Biso   1.000  H
  H43      1.0000 0.32640  0.85260  0.54400  Biso   1.000  H
  H44      1.0000 0.82640  0.35260  0.54400  Biso   1.000  H
  H45      1.0000 0.67360  0.85260  0.95600  Biso   1.000  H
  H46      1.0000 0.17360  0.35260  0.95600  Biso   1.000  H
  H47      1.0000 0.67360  0.14740  0.45600  Biso   1.000  H
  H48      1.0000 0.17360  0.64740  0.45600  Biso   1.000  H
  C81      1.0000 0.34626  0.04090  0.03900  Biso   1.000  C
  C82      1.0000 0.84626  0.54090  0.03900  Biso   1.000  C
  C83      1.0000 0.34626  0.95910  0.53900  Biso   1.000  C
  C84      1.0000 0.84626  0.45910  0.53900  Biso   1.000  C
  C85      1.0000 0.65374  0.95910  0.96100  Biso   1.000  C
  C86      1.0000 0.15374  0.45910  0.96100  Biso   1.000  C
  C87      1.0000 0.65374  0.04090  0.46100  Biso   1.000  C
  C88      1.0000 0.15374  0.54090  0.46100  Biso   1.000  C
  H49      1.0000 0.37520  0.05050  0.05630  Biso   1.000  H
  H50      1.0000 0.87520  0.55050  0.05630  Biso   1.000  H
  H51      1.0000 0.37520  0.94950  0.55630  Biso   1.000  H
  H52      1.0000 0.87520  0.44950  0.55630  Biso   1.000  H
  H53      1.0000 0.62480  0.94950  0.94370  Biso   1.000  H
  H54      1.0000 0.12480  0.44950  0.94370  Biso   1.000  H
  H55      1.0000 0.62480  0.05050  0.44370  Biso   1.000  H
  H56      1.0000 0.12480  0.55050  0.44370  Biso   1.000  H
  C89      1.0000 0.33146  0.96890  0.01870  Biso   1.000  C
  C90      1.0000 0.83146  0.46890  0.01870  Biso   1.000  C
  C91      1.0000 0.33146  0.03110  0.51870  Biso   1.000  C
  C92      1.0000 0.83146  0.53110  0.51870  Biso   1.000  C
  C93      1.0000 0.66854  0.03110  0.98130  Biso   1.000  C
  C94      1.0000 0.16854  0.53110  0.98130  Biso   1.000  C
  C95      1.0000 0.66854  0.96890  0.48130  Biso   1.000  C
  C96      1.0000 0.16854  0.46890  0.48130  Biso   1.000  C
  H57      1.0000 0.35100  0.93050  0.02170  Biso   1.000  H
  H58      1.0000 0.85100  0.43050  0.02170  Biso   1.000  H
  H59      1.0000 0.35100  0.06950  0.52170  Biso   1.000  H
  H60      1.0000 0.85100  0.56950  0.52170  Biso   1.000  H
  H61      1.0000 0.64900  0.06950  0.97830  Biso   1.000  H
  H62      1.0000 0.14900  0.56950  0.97830  Biso   1.000  H
  H63      1.0000 0.64900  0.93050  0.47830  Biso   1.000  H
  H64      1.0000 0.14900  0.43050  0.47830  Biso   1.000  H
  C97      1.0000 0.12756  0.18850  0.01020  Biso   1.000  C
  C98      1.0000 0.62756  0.68850  0.01020  Biso   1.000  C
  C99      1.0000 0.12756  0.81150  0.51020  Biso   1.000  C
  C100     1.0000 0.62756  0.31150  0.51020  Biso   1.000  C
  C101     1.0000 0.87244  0.81150  0.98980  Biso   1.000  C
  C102     1.0000 0.37244  0.31150  0.98980  Biso   1.000  C
  C103     1.0000 0.87244  0.18850  0.48980  Biso   1.000  C
  C104     1.0000 0.37244  0.68850  0.48980  Biso   1.000  C
  H65      1.0000 0.10380  0.21570  0.98200  Biso   1.000  H
  H66      1.0000 0.60380  0.71570  0.98200  Biso   1.000  H
  H67      1.0000 0.10380  0.78430  0.48200  Biso   1.000  H
  H68      1.0000 0.60380  0.28430  0.48200  Biso   1.000  H
  H69      1.0000 0.89620  0.78430  0.01800  Biso   1.000  H
  H70      1.0000 0.39620  0.28430  0.01800  Biso   1.000  H
  H71      1.0000 0.89620  0.21570  0.51800  Biso   1.000  H
  H72      1.0000 0.39620  0.71570  0.51800  Biso   1.000  H
  C105     1.0000 0.15108  0.21380  0.08980  Biso   1.000  C
  C106     1.0000 0.65108  0.71380  0.08980  Biso   1.000  C
  C107     1.0000 0.15108  0.78620  0.58980  Biso   1.000  C
  C108     1.0000 0.65108  0.28620  0.58980  Biso   1.000  C
  C109     1.0000 0.84892  0.78620  0.91020  Biso   1.000  C
  C110     1.0000 0.34892  0.28620  0.91020  Biso   1.000  C
  C111     1.0000 0.84892  0.21380  0.41020  Biso   1.000  C
  C112     1.0000 0.34892  0.71380  0.41020  Biso   1.000  C
  H73      1.0000 0.14400  0.25810  0.11340  Biso   1.000  H
  H74      1.0000 0.64400  0.75810  0.11340  Biso   1.000  H
  H75      1.0000 0.14400  0.74190  0.61340  Biso   1.000  H
  H76      1.0000 0.64400  0.24190  0.61340  Biso   1.000  H
  H77      1.0000 0.85600  0.74190  0.88660  Biso   1.000  H
  H78      1.0000 0.35600  0.24190  0.88660  Biso   1.000  H
  H79      1.0000 0.85600  0.25810  0.38660  Biso   1.000  H
  H80      1.0000 0.35600  0.75810  0.38660  Biso   1.000  H
  C113     1.0000 0.18542  0.17140  0.13300  Biso   1.000  C
  C114     1.0000 0.68542  0.67140  0.13300  Biso   1.000  C
  C115     1.0000 0.18542  0.82860  0.63300  Biso   1.000  C
  C116     1.0000 0.68542  0.32860  0.63300  Biso   1.000  C
  C117     1.0000 0.81458  0.82860  0.86700  Biso   1.000  C
  C118     1.0000 0.31458  0.32860  0.86700  Biso   1.000  C
  C119     1.0000 0.81458  0.17140  0.36700  Biso   1.000  C
  C120     1.0000 0.31458  0.67140  0.36700  Biso   1.000  C
  H81      1.0000 0.20110  0.18560  0.18780  Biso   1.000  H
  H82      1.0000 0.70110  0.68560  0.18780  Biso   1.000  H
  H83      1.0000 0.20110  0.81440  0.68780  Biso   1.000  H
  H84      1.0000 0.70110  0.31440  0.68780  Biso   1.000  H
  H85      1.0000 0.79890  0.81440  0.81220  Biso   1.000  H
  H86      1.0000 0.29890  0.31440  0.81220  Biso   1.000  H
  H87      1.0000 0.79890  0.18560  0.31220  Biso   1.000  H
  H88      1.0000 0.29890  0.68560  0.31220  Biso   1.000  H
  C121     1.0000 0.19625  0.10750  0.09400  Biso   1.000  C
  C122     1.0000 0.69625  0.60750  0.09400  Biso   1.000  C
  C123     1.0000 0.19625  0.89250  0.59400  Biso   1.000  C
  C124     1.0000 0.69625  0.39250  0.59400  Biso   1.000  C
  C125     1.0000 0.80375  0.89250  0.90600  Biso   1.000  C
  C126     1.0000 0.30375  0.39250  0.90600  Biso   1.000  C
  C127     1.0000 0.80375  0.10750  0.40600  Biso   1.000  C
  C128     1.0000 0.30375  0.60750  0.40600  Biso   1.000  C
  H89      1.0000 0.21920  0.07820  0.12190  Biso   1.000  H
  H90      1.0000 0.71920  0.57820  0.12190  Biso   1.000  H
  H91      1.0000 0.21920  0.92180  0.62190  Biso   1.000  H
  H92      1.0000 0.71920  0.42180  0.62190  Biso   1.000  H
  H93      1.0000 0.78080  0.92180  0.87810  Biso   1.000  H
  H94      1.0000 0.28080  0.42180  0.87810  Biso   1.000  H
  H95      1.0000 0.78080  0.07820  0.37810  Biso   1.000  H
  H96      1.0000 0.28080  0.57820  0.37810  Biso   1.000  H
  C129     1.0000 0.17205  0.08880  0.01270  Biso   1.000  C
  C130     1.0000 0.67205  0.58880  0.01270  Biso   1.000  C
  C131     1.0000 0.17205  0.91120  0.51270  Biso   1.000  C
  C132     1.0000 0.67205  0.41120  0.51270  Biso   1.000  C
  C133     1.0000 0.82795  0.91120  0.98730  Biso   1.000  C
  C134     1.0000 0.32795  0.41120  0.98730  Biso   1.000  C
  C135     1.0000 0.82795  0.08880  0.48730  Biso   1.000  C
  C136     1.0000 0.32795  0.58880  0.48730  Biso   1.000  C
  C137     1.0000 0.17959  0.02120  0.96490  Biso   1.000  C
  C138     1.0000 0.67959  0.52120  0.96490  Biso   1.000  C
  C139     1.0000 0.17959  0.97880  0.46490  Biso   1.000  C
  C140     1.0000 0.67959  0.47880  0.46490  Biso   1.000  C
  C141     1.0000 0.82041  0.97880  0.03510  Biso   1.000  C
  C142     1.0000 0.32041  0.47880  0.03510  Biso   1.000  C
  C143     1.0000 0.82041  0.02120  0.53510  Biso   1.000  C
  C144     1.0000 0.32041  0.52120  0.53510  Biso   1.000  C
  C145     1.0000 0.14111  0.93200  0.86460  Biso   1.000  C
  C146     1.0000 0.64111  0.43200  0.86460  Biso   1.000  C
  C147     1.0000 0.14111  0.06800  0.36460  Biso   1.000  C
  C148     1.0000 0.64111  0.56800  0.36460  Biso   1.000  C
  C149     1.0000 0.85889  0.06800  0.13540  Biso   1.000  C
  C150     1.0000 0.35889  0.56800  0.13540  Biso   1.000  C
  C151     1.0000 0.85889  0.93200  0.63540  Biso   1.000  C
  C152     1.0000 0.35889  0.43200  0.63540  Biso   1.000  C
  C153     1.0000 0.10275  0.92920  0.79220  Biso   1.000  C
  C154     1.0000 0.60275  0.42920  0.79220  Biso   1.000  C
  C155     1.0000 0.10275  0.07080  0.29220  Biso   1.000  C
  C156     1.0000 0.60275  0.57080  0.29220  Biso   1.000  C
  C157     1.0000 0.89725  0.07080  0.20780  Biso   1.000  C
  C158     1.0000 0.39725  0.57080  0.20780  Biso   1.000  C
  C159     1.0000 0.89725  0.92920  0.70780  Biso   1.000  C
  C160     1.0000 0.39725  0.42920  0.70780  Biso   1.000  C
  C161     1.0000 0.09320  0.87400  0.73020  Biso   1.000  C
  C162     1.0000 0.59320  0.37400  0.73020  Biso   1.000  C
  C163     1.0000 0.09320  0.12600  0.23020  Biso   1.000  C
  C164     1.0000 0.59320  0.62600  0.23020  Biso   1.000  C
  C165     1.0000 0.90680  0.12600  0.26980  Biso   1.000  C
  C166     1.0000 0.40680  0.62600  0.26980  Biso   1.000  C
  C167     1.0000 0.90680  0.87400  0.76980  Biso   1.000  C
  C168     1.0000 0.40680  0.37400  0.76980  Biso   1.000  C
  H97      1.0000 0.11100  0.83280  0.73320  Biso   1.000  H
  H98      1.0000 0.61100  0.33280  0.73320  Biso   1.000  H
  H99      1.0000 0.11100  0.16720  0.23320  Biso   1.000  H
  H100     1.0000 0.61100  0.66720  0.23320  Biso   1.000  H
  H101     1.0000 0.88900  0.16720  0.26680  Biso   1.000  H
  H102     1.0000 0.38900  0.66720  0.26680  Biso   1.000  H
  H103     1.0000 0.88900  0.83280  0.76680  Biso   1.000  H
  H104     1.0000 0.38900  0.33280  0.76680  Biso   1.000  H
  C169     1.0000 0.05684  0.88000  0.66310  Biso   1.000  C
  C170     1.0000 0.55684  0.38000  0.66310  Biso   1.000  C
  C171     1.0000 0.05684  0.12000  0.16310  Biso   1.000  C
  C172     1.0000 0.55684  0.62000  0.16310  Biso   1.000  C
  C173     1.0000 0.94316  0.12000  0.33690  Biso   1.000  C
  C174     1.0000 0.44316  0.62000  0.33690  Biso   1.000  C
  C175     1.0000 0.94316  0.88000  0.83690  Biso   1.000  C
  C176     1.0000 0.44316  0.38000  0.83690  Biso   1.000  C
  H105     1.0000 0.04940  0.84190  0.62240  Biso   1.000  H
  H106     1.0000 0.54940  0.34190  0.62240  Biso   1.000  H
  H107     1.0000 0.04940  0.15810  0.12240  Biso   1.000  H
  H108     1.0000 0.54940  0.65810  0.12240  Biso   1.000  H
  H109     1.0000 0.95060  0.15810  0.37760  Biso   1.000  H
  H110     1.0000 0.45060  0.65810  0.37760  Biso   1.000  H
  H111     1.0000 0.95060  0.84190  0.87760  Biso   1.000  H
  H112     1.0000 0.45060  0.34190  0.87760  Biso   1.000  H
  C177     1.0000 0.03187  0.94300  0.65730  Biso   1.000  C
  C178     1.0000 0.53187  0.44300  0.65730  Biso   1.000  C
  C179     1.0000 0.03187  0.05700  0.15730  Biso   1.000  C
  C180     1.0000 0.53187  0.55700  0.15730  Biso   1.000  C
  C181     1.0000 0.96813  0.05700  0.34270  Biso   1.000  C
  C182     1.0000 0.46813  0.55700  0.34270  Biso   1.000  C
  C183     1.0000 0.96813  0.94300  0.84270  Biso   1.000  C
  C184     1.0000 0.46813  0.44300  0.84270  Biso   1.000  C
  H113     1.0000 0.00700  0.94790  0.61380  Biso   1.000  H
  H114     1.0000 0.50700  0.44790  0.61380  Biso   1.000  H
  H115     1.0000 0.00700  0.05210  0.11380  Biso   1.000  H
  H116     1.0000 0.50700  0.55210  0.11380  Biso   1.000  H
  H117     1.0000 0.99300  0.05210  0.38620  Biso   1.000  H
  H118     1.0000 0.49300  0.55210  0.38620  Biso   1.000  H
  H119     1.0000 0.99300  0.94790  0.88620  Biso   1.000  H
  H120     1.0000 0.49300  0.44790  0.88620  Biso   1.000  H
  C185     1.0000 0.04509  0.99920  0.71910  Biso   1.000  C
  C186     1.0000 0.54509  0.49920  0.71910  Biso   1.000  C
  C187     1.0000 0.04509  0.00080  0.21910  Biso   1.000  C
  C188     1.0000 0.54509  0.50080  0.21910  Biso   1.000  C
  C189     1.0000 0.95491  0.00080  0.28090  Biso   1.000  C
  C190     1.0000 0.45491  0.50080  0.28090  Biso   1.000  C
  C191     1.0000 0.95491  0.99920  0.78090  Biso   1.000  C
  C192     1.0000 0.45491  0.49920  0.78090  Biso   1.000  C
  H121     1.0000 0.02960  0.04330  0.71390  Biso   1.000  H
  H122     1.0000 0.52960  0.54330  0.71390  Biso   1.000  H
  H123     1.0000 0.02960  0.95670  0.21390  Biso   1.000  H
  H124     1.0000 0.52960  0.45670  0.21390  Biso   1.000  H
  H125     1.0000 0.97040  0.95670  0.28610  Biso   1.000  H
  H126     1.0000 0.47040  0.45670  0.28610  Biso   1.000  H
  H127     1.0000 0.97040  0.04330  0.78610  Biso   1.000  H
  H128     1.0000 0.47040  0.54330  0.78610  Biso   1.000  H
  C193     1.0000 0.05404  0.27470  0.70510  Biso   1.000  C
  C194     1.0000 0.55404  0.77470  0.70510  Biso   1.000  C
  C195     1.0000 0.05404  0.72530  0.20510  Biso   1.000  C
  C196     1.0000 0.55404  0.22530  0.20510  Biso   1.000  C
  C197     1.0000 0.94596  0.72530  0.29490  Biso   1.000  C
  C198     1.0000 0.44596  0.22530  0.29490  Biso   1.000  C
  C199     1.0000 0.94596  0.27470  0.79490  Biso   1.000  C
  C200     1.0000 0.44596  0.77470  0.79490  Biso   1.000  C
  H129     1.0000 0.04200  0.29280  0.75110  Biso   1.000  H
  H130     1.0000 0.54200  0.79280  0.75110  Biso   1.000  H
  H131     1.0000 0.04200  0.70720  0.25110  Biso   1.000  H
  H132     1.0000 0.54200  0.20720  0.25110  Biso   1.000  H
  H133     1.0000 0.95800  0.70720  0.24890  Biso   1.000  H
  H134     1.0000 0.45800  0.20720  0.24890  Biso   1.000  H
  H135     1.0000 0.95800  0.29280  0.74890  Biso   1.000  H
  H136     1.0000 0.45800  0.79280  0.74890  Biso   1.000  H
  H137     1.0000 0.06790  0.31670  0.68510  Biso   1.000  H
  H138     1.0000 0.56790  0.81670  0.68510  Biso   1.000  H
  H139     1.0000 0.06790  0.68330  0.18510  Biso   1.000  H
  H140     1.0000 0.56790  0.18330  0.18510  Biso   1.000  H
  H141     1.0000 0.93210  0.68330  0.31490  Biso   1.000  H
  H142     1.0000 0.43210  0.18330  0.31490  Biso   1.000  H
  H143     1.0000 0.93210  0.31670  0.81490  Biso   1.000  H
  H144     1.0000 0.43210  0.81670  0.81490  Biso   1.000  H
  C201     1.0000 0.15326  0.36480  0.66260  Biso   1.000  C
  C202     1.0000 0.65326  0.86480  0.66260  Biso   1.000  C
  C203     1.0000 0.15326  0.63520  0.16260  Biso   1.000  C
  C204     1.0000 0.65326  0.13520  0.16260  Biso   1.000  C
  C205     1.0000 0.84674  0.63520  0.33740  Biso   1.000  C
  C206     1.0000 0.34674  0.13520  0.33740  Biso   1.000  C
  C207     1.0000 0.84674  0.36480  0.83740  Biso   1.000  C
  C208     1.0000 0.34674  0.86480  0.83740  Biso   1.000  C
  H145     1.0000 0.14540  0.40600  0.62210  Biso   1.000  H
  H146     1.0000 0.64540  0.90600  0.62210  Biso   1.000  H
  H147     1.0000 0.14540  0.59400  0.12210  Biso   1.000  H
  H148     1.0000 0.64540  0.09400  0.12210  Biso   1.000  H
  H149     1.0000 0.85460  0.59400  0.37790  Biso   1.000  H
  H150     1.0000 0.35460  0.09400  0.37790  Biso   1.000  H
  H151     1.0000 0.85460  0.40600  0.87790  Biso   1.000  H
  H152     1.0000 0.35460  0.90600  0.87790  Biso   1.000  H
  H153     1.0000 0.13110  0.35880  0.69270  Biso   1.000  H
  H154     1.0000 0.63110  0.85880  0.69270  Biso   1.000  H
  H155     1.0000 0.13110  0.64120  0.19270  Biso   1.000  H
  H156     1.0000 0.63110  0.14120  0.19270  Biso   1.000  H
  H157     1.0000 0.86890  0.64120  0.30730  Biso   1.000  H
  H158     1.0000 0.36890  0.14120  0.30730  Biso   1.000  H
  H159     1.0000 0.86890  0.35880  0.80730  Biso   1.000  H
  H160     1.0000 0.36890  0.85880  0.80730  Biso   1.000  H
