data_image0
_cell_length_a       12.5773
_cell_length_b       18.336
_cell_length_c       36.476
_cell_angle_alpha    90
_cell_angle_beta     91.929
_cell_angle_gamma    90

_symmetry_space_group_name_H-M    "P 1"
_symmetry_int_tables_number       1

loop_
  _symmetry_equiv_pos_as_xyz
  'x, y, z'

loop_
  _atom_site_label
  _atom_site_occupancy
  _atom_site_fract_x
  _atom_site_fract_y
  _atom_site_fract_z
  _atom_site_thermal_displace_type
  _atom_site_B_iso_or_equiv
  _atom_site_type_symbol
  Mo1      1.0000 0.87302  0.42201  0.09471  Biso   1.000  Mo
  Mo2      1.0000 0.37302  0.92201  0.09471  Biso   1.000  Mo
  Mo3      1.0000 0.87302  0.57799  0.59471  Biso   1.000  Mo
  Mo4      1.0000 0.37302  0.07799  0.59471  Biso   1.000  Mo
  Mo5      1.0000 0.12698  0.57799  0.90529  Biso   1.000  Mo
  Mo6      1.0000 0.62698  0.07799  0.90529  Biso   1.000  Mo
  Mo7      1.0000 0.12698  0.42201  0.40529  Biso   1.000  Mo
  Mo8      1.0000 0.62698  0.92201  0.40529  Biso   1.000  Mo
  Mo9      1.0000 0.62703  0.36108  0.11278  Biso   1.000  Mo
  Mo10     1.0000 0.12703  0.86108  0.11278  Biso   1.000  Mo
  Mo11     1.0000 0.62703  0.63892  0.61278  Biso   1.000  Mo
  Mo12     1.0000 0.12703  0.13892  0.61278  Biso   1.000  Mo
  Mo13     1.0000 0.37297  0.63892  0.88722  Biso   1.000  Mo
  Mo14     1.0000 0.87297  0.13892  0.88722  Biso   1.000  Mo
  Mo15     1.0000 0.37297  0.36108  0.38722  Biso   1.000  Mo
  Mo16     1.0000 0.87297  0.86108  0.38722  Biso   1.000  Mo
  Mo17     1.0000 0.91101  0.14697  0.16006  Biso   1.000  Mo
  Mo18     1.0000 0.41101  0.64697  0.16006  Biso   1.000  Mo
  Mo19     1.0000 0.91101  0.85303  0.66006  Biso   1.000  Mo
  Mo20     1.0000 0.41101  0.35303  0.66006  Biso   1.000  Mo
  Mo21     1.0000 0.08899  0.85303  0.83994  Biso   1.000  Mo
  Mo22     1.0000 0.58899  0.35303  0.83994  Biso   1.000  Mo
  Mo23     1.0000 0.08899  0.14697  0.33994  Biso   1.000  Mo
  Mo24     1.0000 0.58899  0.64697  0.33994  Biso   1.000  Mo
  Mo25     1.0000 0.04915  0.26415  0.10929  Biso   1.000  Mo
  Mo26     1.0000 0.54915  0.76415  0.10929  Biso   1.000  Mo
  Mo27     1.0000 0.04915  0.73585  0.60929  Biso   1.000  Mo
  Mo28     1.0000 0.54915  0.23585  0.60929  Biso   1.000  Mo
  Mo29     1.0000 0.95085  0.73585  0.89071  Biso   1.000  Mo
  Mo30     1.0000 0.45085  0.23585  0.89071  Biso   1.000  Mo
  Mo31     1.0000 0.95085  0.26415  0.39071  Biso   1.000  Mo
  Mo32     1.0000 0.45085  0.76415  0.39071  Biso   1.000  Mo
  Mo33     1.0000 0.65074  0.19766  0.15576  Biso   1.000  Mo
  Mo34     1.0000 0.15074  0.69766  0.15576  Biso   1.000  Mo
  Mo35     1.0000 0.65074  0.80234  0.65576  Biso   1.000  Mo
  Mo36     1.0000 0.15074  0.30234  0.65576  Biso   1.000  Mo
  Mo37     1.0000 0.34926  0.80234  0.84424  Biso   1.000  Mo
  Mo38     1.0000 0.84926  0.30234  0.84424  Biso   1.000  Mo
  Mo39     1.0000 0.34926  0.19766  0.34424  Biso   1.000  Mo
  Mo40     1.0000 0.84926  0.69766  0.34424  Biso   1.000  Mo
  Cu1      1.0000 0.89495  0.60709  0.11704  Biso   1.000  Cu
  Cu2      1.0000 0.39495  0.10709  0.11704  Biso   1.000  Cu
  Cu3      1.0000 0.89495  0.39291  0.61704  Biso   1.000  Cu
  Cu4      1.0000 0.39495  0.89291  0.61704  Biso   1.000  Cu
  Cu5      1.0000 0.10505  0.39291  0.88296  Biso   1.000  Cu
  Cu6      1.0000 0.60505  0.89291  0.88296  Biso   1.000  Cu
  Cu7      1.0000 0.10505  0.60709  0.38296  Biso   1.000  Cu
  Cu8      1.0000 0.60505  0.10709  0.38296  Biso   1.000  Cu
  Cu9      1.0000 0.84751  0.95625  0.14158  Biso   1.000  Cu
  Cu10     1.0000 0.34751  0.45625  0.14158  Biso   1.000  Cu
  Cu11     1.0000 0.84751  0.04375  0.64158  Biso   1.000  Cu
  Cu12     1.0000 0.34751  0.54375  0.64158  Biso   1.000  Cu
  Cu13     1.0000 0.15249  0.04375  0.85842  Biso   1.000  Cu
  Cu14     1.0000 0.65249  0.54375  0.85842  Biso   1.000  Cu
  Cu15     1.0000 0.15249  0.95625  0.35842  Biso   1.000  Cu
  Cu16     1.0000 0.65249  0.45625  0.35842  Biso   1.000  Cu
  P1       1.0000 0.80329  0.23343  0.08107  Biso   1.000  P
  P2       1.0000 0.30329  0.73343  0.08107  Biso   1.000  P
  P3       1.0000 0.80329  0.76657  0.58107  Biso   1.000  P
  P4       1.0000 0.30329  0.26657  0.58107  Biso   1.000  P
  P5       1.0000 0.19671  0.76657  0.91893  Biso   1.000  P
  P6       1.0000 0.69671  0.26657  0.91893  Biso   1.000  P
  P7       1.0000 0.19671  0.23343  0.41893  Biso   1.000  P
  P8       1.0000 0.69671  0.73343  0.41893  Biso   1.000  P
  P9       1.0000 0.85013  0.32526  0.17016  Biso   1.000  P
  P10      1.0000 0.35013  0.82526  0.17016  Biso   1.000  P
  P11      1.0000 0.85013  0.67474  0.67016  Biso   1.000  P
  P12      1.0000 0.35013  0.17474  0.67016  Biso   1.000  P
  P13      1.0000 0.14987  0.67474  0.82984  Biso   1.000  P
  P14      1.0000 0.64987  0.17474  0.82984  Biso   1.000  P
  P15      1.0000 0.14987  0.32526  0.32984  Biso   1.000  P
  P16      1.0000 0.64987  0.82526  0.32984  Biso   1.000  P
  O1       1.0000 0.92870  0.50604  0.10854  Biso   1.000  O
  O2       1.0000 0.42870  0.00604  0.10854  Biso   1.000  O
  O3       1.0000 0.92870  0.49396  0.60854  Biso   1.000  O
  O4       1.0000 0.42870  0.99396  0.60854  Biso   1.000  O
  O5       1.0000 0.07130  0.49396  0.89146  Biso   1.000  O
  O6       1.0000 0.57130  0.99396  0.89146  Biso   1.000  O
  O7       1.0000 0.07130  0.50604  0.39146  Biso   1.000  O
  O8       1.0000 0.57130  0.00604  0.39146  Biso   1.000  O
  O9       1.0000 0.88200  0.05650  0.14728  Biso   1.000  O
  O10      1.0000 0.38200  0.55650  0.14728  Biso   1.000  O
  O11      1.0000 0.88200  0.94350  0.64728  Biso   1.000  O
  O12      1.0000 0.38200  0.44350  0.64728  Biso   1.000  O
  O13      1.0000 0.11800  0.94350  0.85272  Biso   1.000  O
  O14      1.0000 0.61800  0.44350  0.85272  Biso   1.000  O
  O15      1.0000 0.11800  0.05650  0.35272  Biso   1.000  O
  O16      1.0000 0.61800  0.55650  0.35272  Biso   1.000  O
  O17      1.0000 0.88720  0.39700  0.15464  Biso   1.000  O
  O18      1.0000 0.38720  0.89700  0.15464  Biso   1.000  O
  O19      1.0000 0.88720  0.60300  0.65464  Biso   1.000  O
  O20      1.0000 0.38720  0.10300  0.65464  Biso   1.000  O
  O21      1.0000 0.11280  0.60300  0.84536  Biso   1.000  O
  O22      1.0000 0.61280  0.10300  0.84536  Biso   1.000  O
  O23      1.0000 0.11280  0.39700  0.34536  Biso   1.000  O
  O24      1.0000 0.61280  0.89700  0.34536  Biso   1.000  O
  O25      1.0000 0.91990  0.26320  0.15465  Biso   1.000  O
  O26      1.0000 0.41990  0.76320  0.15465  Biso   1.000  O
  O27      1.0000 0.91990  0.73680  0.65465  Biso   1.000  O
  O28      1.0000 0.41990  0.23680  0.65465  Biso   1.000  O
  O29      1.0000 0.08010  0.73680  0.84535  Biso   1.000  O
  O30      1.0000 0.58010  0.23680  0.84535  Biso   1.000  O
  O31      1.0000 0.08010  0.26320  0.34535  Biso   1.000  O
  O32      1.0000 0.58010  0.76320  0.34535  Biso   1.000  O
  O33      1.0000 0.73090  0.31129  0.16183  Biso   1.000  O
  O34      1.0000 0.23090  0.81129  0.16183  Biso   1.000  O
  O35      1.0000 0.73090  0.68871  0.66183  Biso   1.000  O
  O36      1.0000 0.23090  0.18871  0.66183  Biso   1.000  O
  O37      1.0000 0.26910  0.68871  0.83817  Biso   1.000  O
  O38      1.0000 0.76910  0.18871  0.83817  Biso   1.000  O
  O39      1.0000 0.26910  0.31129  0.33817  Biso   1.000  O
  O40      1.0000 0.76910  0.81129  0.33817  Biso   1.000  O
  O41      1.0000 0.78310  0.18465  0.11456  Biso   1.000  O
  O42      1.0000 0.28310  0.68465  0.11456  Biso   1.000  O
  O43      1.0000 0.78310  0.81535  0.61456  Biso   1.000  O
  O44      1.0000 0.28310  0.31535  0.61456  Biso   1.000  O
  O45      1.0000 0.21690  0.81535  0.88544  Biso   1.000  O
  O46      1.0000 0.71690  0.31535  0.88544  Biso   1.000  O
  O47      1.0000 0.21690  0.18465  0.38544  Biso   1.000  O
  O48      1.0000 0.71690  0.68465  0.38544  Biso   1.000  O
  O49      1.0000 0.91850  0.22910  0.07054  Biso   1.000  O
  O50      1.0000 0.41850  0.72910  0.07054  Biso   1.000  O
  O51      1.0000 0.91850  0.77090  0.57054  Biso   1.000  O
  O52      1.0000 0.41850  0.27090  0.57054  Biso   1.000  O
  O53      1.0000 0.08150  0.77090  0.92946  Biso   1.000  O
  O54      1.0000 0.58150  0.27090  0.92946  Biso   1.000  O
  O55      1.0000 0.08150  0.22910  0.42946  Biso   1.000  O
  O56      1.0000 0.58150  0.72910  0.42946  Biso   1.000  O
  O57      1.0000 0.77460  0.31473  0.08875  Biso   1.000  O
  O58      1.0000 0.27460  0.81473  0.08875  Biso   1.000  O
  O59      1.0000 0.77460  0.68527  0.58875  Biso   1.000  O
  O60      1.0000 0.27460  0.18527  0.58875  Biso   1.000  O
  O61      1.0000 0.22540  0.68527  0.91125  Biso   1.000  O
  O62      1.0000 0.72540  0.18527  0.91125  Biso   1.000  O
  O63      1.0000 0.22540  0.31473  0.41125  Biso   1.000  O
  O64      1.0000 0.72540  0.81473  0.41125  Biso   1.000  O
  O65      1.0000 0.73030  0.43850  0.10988  Biso   1.000  O
  O66      1.0000 0.23030  0.93850  0.10988  Biso   1.000  O
  O67      1.0000 0.73030  0.56150  0.60988  Biso   1.000  O
  O68      1.0000 0.23030  0.06150  0.60988  Biso   1.000  O
  O69      1.0000 0.26970  0.56150  0.89012  Biso   1.000  O
  O70      1.0000 0.76970  0.06150  0.89012  Biso   1.000  O
  O71      1.0000 0.26970  0.43850  0.39012  Biso   1.000  O
  O72      1.0000 0.76970  0.93850  0.39012  Biso   1.000  O
  O73      1.0000 0.59090  0.25920  0.11807  Biso   1.000  O
  O74      1.0000 0.09090  0.75920  0.11807  Biso   1.000  O
  O75      1.0000 0.59090  0.74080  0.61807  Biso   1.000  O
  O76      1.0000 0.09090  0.24080  0.61807  Biso   1.000  O
  O77      1.0000 0.40910  0.74080  0.88193  Biso   1.000  O
  O78      1.0000 0.90910  0.24080  0.88193  Biso   1.000  O
  O79      1.0000 0.40910  0.25920  0.38193  Biso   1.000  O
  O80      1.0000 0.90910  0.75920  0.38193  Biso   1.000  O
  O81      1.0000 0.77810  0.16930  0.18263  Biso   1.000  O
  O82      1.0000 0.27810  0.66930  0.18263  Biso   1.000  O
  O83      1.0000 0.77810  0.83070  0.68263  Biso   1.000  O
  O84      1.0000 0.27810  0.33070  0.68263  Biso   1.000  O
  O85      1.0000 0.22190  0.83070  0.81737  Biso   1.000  O
  O86      1.0000 0.72190  0.33070  0.81737  Biso   1.000  O
  O87      1.0000 0.22190  0.16930  0.31737  Biso   1.000  O
  O88      1.0000 0.72190  0.66930  0.31737  Biso   1.000  O
  O89      1.0000 0.02220  0.16550  0.12651  Biso   1.000  O
  O90      1.0000 0.52220  0.66550  0.12651  Biso   1.000  O
  O91      1.0000 0.02220  0.83450  0.62651  Biso   1.000  O
  O92      1.0000 0.52220  0.33450  0.62651  Biso   1.000  O
  O93      1.0000 0.97780  0.83450  0.87349  Biso   1.000  O
  O94      1.0000 0.47780  0.33450  0.87349  Biso   1.000  O
  O95      1.0000 0.97780  0.16550  0.37349  Biso   1.000  O
  O96      1.0000 0.47780  0.66550  0.37349  Biso   1.000  O
  O97      1.0000 0.98920  0.35850  0.09465  Biso   1.000  O
  O98      1.0000 0.48920  0.85850  0.09465  Biso   1.000  O
  O99      1.0000 0.98920  0.64150  0.59465  Biso   1.000  O
  O100     1.0000 0.48920  0.14150  0.59465  Biso   1.000  O
  O101     1.0000 0.01080  0.64150  0.90535  Biso   1.000  O
  O102     1.0000 0.51080  0.14150  0.90535  Biso   1.000  O
  O103     1.0000 0.01080  0.35850  0.40535  Biso   1.000  O
  O104     1.0000 0.51080  0.85850  0.40535  Biso   1.000  O
  O105     1.0000 0.55830  0.37300  0.07206  Biso   1.000  O
  O106     1.0000 0.05830  0.87300  0.07206  Biso   1.000  O
  O107     1.0000 0.55830  0.62700  0.57206  Biso   1.000  O
  O108     1.0000 0.05830  0.12700  0.57206  Biso   1.000  O
  O109     1.0000 0.44170  0.62700  0.92794  Biso   1.000  O
  O110     1.0000 0.94170  0.12700  0.92794  Biso   1.000  O
  O111     1.0000 0.44170  0.37300  0.42794  Biso   1.000  O
  O112     1.0000 0.94170  0.87300  0.42794  Biso   1.000  O
  O113     1.0000 0.54820  0.40060  0.14459  Biso   1.000  O
  O114     1.0000 0.04820  0.90060  0.14459  Biso   1.000  O
  O115     1.0000 0.54820  0.59940  0.64459  Biso   1.000  O
  O116     1.0000 0.04820  0.09940  0.64459  Biso   1.000  O
  O117     1.0000 0.45180  0.59940  0.85541  Biso   1.000  O
  O118     1.0000 0.95180  0.09940  0.85541  Biso   1.000  O
  O119     1.0000 0.45180  0.40060  0.35541  Biso   1.000  O
  O120     1.0000 0.95180  0.90060  0.35541  Biso   1.000  O
  O121     1.0000 0.57350  0.21960  0.19182  Biso   1.000  O
  O122     1.0000 0.07350  0.71960  0.19182  Biso   1.000  O
  O123     1.0000 0.57350  0.78040  0.69182  Biso   1.000  O
  O124     1.0000 0.07350  0.28040  0.69182  Biso   1.000  O
  O125     1.0000 0.42650  0.78040  0.80818  Biso   1.000  O
  O126     1.0000 0.92650  0.28040  0.80818  Biso   1.000  O
  O127     1.0000 0.42650  0.21960  0.30818  Biso   1.000  O
  O128     1.0000 0.92650  0.71960  0.30818  Biso   1.000  O
  O129     1.0000 0.59820  0.11560  0.14080  Biso   1.000  O
  O130     1.0000 0.09820  0.61560  0.14080  Biso   1.000  O
  O131     1.0000 0.59820  0.88440  0.64080  Biso   1.000  O
  O132     1.0000 0.09820  0.38440  0.64080  Biso   1.000  O
  O133     1.0000 0.40180  0.88440  0.85920  Biso   1.000  O
  O134     1.0000 0.90180  0.38440  0.85920  Biso   1.000  O
  O135     1.0000 0.40180  0.11560  0.35920  Biso   1.000  O
  O136     1.0000 0.90180  0.61560  0.35920  Biso   1.000  O
  O137     1.0000 0.98390  0.13830  0.19957  Biso   1.000  O
  O138     1.0000 0.48390  0.63830  0.19957  Biso   1.000  O
  O139     1.0000 0.98390  0.86170  0.69957  Biso   1.000  O
  O140     1.0000 0.48390  0.36170  0.69957  Biso   1.000  O
  O141     1.0000 0.01610  0.86170  0.80043  Biso   1.000  O
  O142     1.0000 0.51610  0.36170  0.80043  Biso   1.000  O
  O143     1.0000 0.01610  0.13830  0.30043  Biso   1.000  O
  O144     1.0000 0.51610  0.63830  0.30043  Biso   1.000  O
  O145     1.0000 0.13680  0.24790  0.07563  Biso   1.000  O
  O146     1.0000 0.63680  0.74790  0.07563  Biso   1.000  O
  O147     1.0000 0.13680  0.75210  0.57563  Biso   1.000  O
  O148     1.0000 0.63680  0.25210  0.57563  Biso   1.000  O
  O149     1.0000 0.86320  0.75210  0.92437  Biso   1.000  O
  O150     1.0000 0.36320  0.25210  0.92437  Biso   1.000  O
  O151     1.0000 0.86320  0.24790  0.42437  Biso   1.000  O
  O152     1.0000 0.36320  0.74790  0.42437  Biso   1.000  O
  O153     1.0000 0.12940  0.29660  0.14411  Biso   1.000  O
  O154     1.0000 0.62940  0.79660  0.14411  Biso   1.000  O
  O155     1.0000 0.12940  0.70340  0.64411  Biso   1.000  O
  O156     1.0000 0.62940  0.20340  0.64411  Biso   1.000  O
  O157     1.0000 0.87060  0.70340  0.85589  Biso   1.000  O
  O158     1.0000 0.37060  0.20340  0.85589  Biso   1.000  O
  O159     1.0000 0.87060  0.29660  0.35589  Biso   1.000  O
  O160     1.0000 0.37060  0.79660  0.35589  Biso   1.000  O
  O161     1.0000 0.85330  0.43600  0.04892  Biso   1.000  O
  O162     1.0000 0.35330  0.93600  0.04892  Biso   1.000  O
  O163     1.0000 0.85330  0.56400  0.54892  Biso   1.000  O
  O164     1.0000 0.35330  0.06400  0.54892  Biso   1.000  O
  O165     1.0000 0.14670  0.56400  0.95108  Biso   1.000  O
  O166     1.0000 0.64670  0.06400  0.95108  Biso   1.000  O
  O167     1.0000 0.14670  0.43600  0.45108  Biso   1.000  O
  O168     1.0000 0.64670  0.93600  0.45108  Biso   1.000  O
  O169     1.0000 0.71140  0.58570  0.10570  Biso   1.000  O
  O170     1.0000 0.21140  0.08570  0.10570  Biso   1.000  O
  O171     1.0000 0.71140  0.41430  0.60570  Biso   1.000  O
  O172     1.0000 0.21140  0.91430  0.60570  Biso   1.000  O
  O173     1.0000 0.28860  0.41430  0.89430  Biso   1.000  O
  O174     1.0000 0.78860  0.91430  0.89430  Biso   1.000  O
  O175     1.0000 0.28860  0.58570  0.39430  Biso   1.000  O
  O176     1.0000 0.78860  0.08570  0.39430  Biso   1.000  O
  O177     1.0000 0.66450  0.96890  0.14454  Biso   1.000  O
  O178     1.0000 0.16450  0.46890  0.14454  Biso   1.000  O
  O179     1.0000 0.66450  0.03110  0.64454  Biso   1.000  O
  O180     1.0000 0.16450  0.53110  0.64454  Biso   1.000  O
  O181     1.0000 0.33550  0.03110  0.85546  Biso   1.000  O
  O182     1.0000 0.83550  0.53110  0.85546  Biso   1.000  O
  O183     1.0000 0.33550  0.96890  0.35546  Biso   1.000  O
  O184     1.0000 0.83550  0.46890  0.35546  Biso   1.000  O
  O185     1.0000 0.04940  0.11410  0.03740  Biso   1.000  O
  O186     1.0000 0.54940  0.61410  0.03740  Biso   1.000  O
  O187     1.0000 0.04940  0.88590  0.53740  Biso   1.000  O
  O188     1.0000 0.54940  0.38590  0.53740  Biso   1.000  O
  O189     1.0000 0.95060  0.88590  0.96260  Biso   1.000  O
  O190     1.0000 0.45060  0.38590  0.96260  Biso   1.000  O
  O191     1.0000 0.95060  0.11410  0.46260  Biso   1.000  O
  O192     1.0000 0.45060  0.61410  0.46260  Biso   1.000  O
  N1       1.0000 0.91990  0.64300  0.06701  Biso   1.000  N
  N2       1.0000 0.41990  0.14300  0.06701  Biso   1.000  N
  N3       1.0000 0.91990  0.35700  0.56701  Biso   1.000  N
  N4       1.0000 0.41990  0.85700  0.56701  Biso   1.000  N
  N5       1.0000 0.08010  0.35700  0.93299  Biso   1.000  N
  N6       1.0000 0.58010  0.85700  0.93299  Biso   1.000  N
  N7       1.0000 0.08010  0.64300  0.43299  Biso   1.000  N
  N8       1.0000 0.58010  0.14300  0.43299  Biso   1.000  N
  N9       1.0000 0.86360  0.71070  0.12368  Biso   1.000  N
  N10      1.0000 0.36360  0.21070  0.12368  Biso   1.000  N
  N11      1.0000 0.86360  0.28930  0.62368  Biso   1.000  N
  N12      1.0000 0.36360  0.78930  0.62368  Biso   1.000  N
  N13      1.0000 0.13640  0.28930  0.87632  Biso   1.000  N
  N14      1.0000 0.63640  0.78930  0.87632  Biso   1.000  N
  N15      1.0000 0.13640  0.71070  0.37632  Biso   1.000  N
  N16      1.0000 0.63640  0.21070  0.37632  Biso   1.000  N
  N17      1.0000 0.87540  0.60730  0.17094  Biso   1.000  N
  N18      1.0000 0.37540  0.10730  0.17094  Biso   1.000  N
  N19      1.0000 0.87540  0.39270  0.67094  Biso   1.000  N
  N20      1.0000 0.37540  0.89270  0.67094  Biso   1.000  N
  N21      1.0000 0.12460  0.39270  0.82906  Biso   1.000  N
  N22      1.0000 0.62460  0.89270  0.82906  Biso   1.000  N
  N23      1.0000 0.12460  0.60730  0.32906  Biso   1.000  N
  N24      1.0000 0.62460  0.10730  0.32906  Biso   1.000  N
  N25      1.0000 0.85660  0.92480  0.19374  Biso   1.000  N
  N26      1.0000 0.35660  0.42480  0.19374  Biso   1.000  N
  N27      1.0000 0.85660  0.07520  0.69374  Biso   1.000  N
  N28      1.0000 0.35660  0.57520  0.69374  Biso   1.000  N
  N29      1.0000 0.14340  0.07520  0.80626  Biso   1.000  N
  N30      1.0000 0.64340  0.57520  0.80626  Biso   1.000  N
  N31      1.0000 0.14340  0.92480  0.30626  Biso   1.000  N
  N32      1.0000 0.64340  0.42480  0.30626  Biso   1.000  N
  N33      1.0000 0.84000  0.85070  0.13469  Biso   1.000  N
  N34      1.0000 0.34000  0.35070  0.13469  Biso   1.000  N
  N35      1.0000 0.84000  0.14930  0.63469  Biso   1.000  N
  N36      1.0000 0.34000  0.64930  0.63469  Biso   1.000  N
  N37      1.0000 0.16000  0.14930  0.86531  Biso   1.000  N
  N38      1.0000 0.66000  0.64930  0.86531  Biso   1.000  N
  N39      1.0000 0.16000  0.85070  0.36531  Biso   1.000  N
  N40      1.0000 0.66000  0.35070  0.36531  Biso   1.000  N
  N41      1.0000 0.84070  0.95430  0.08685  Biso   1.000  N
  N42      1.0000 0.34070  0.45430  0.08685  Biso   1.000  N
  N43      1.0000 0.84070  0.04570  0.58685  Biso   1.000  N
  N44      1.0000 0.34070  0.54570  0.58685  Biso   1.000  N
  N45      1.0000 0.15930  0.04570  0.91315  Biso   1.000  N
  N46      1.0000 0.65930  0.54570  0.91315  Biso   1.000  N
  N47      1.0000 0.15930  0.95430  0.41315  Biso   1.000  N
  N48      1.0000 0.65930  0.45430  0.41315  Biso   1.000  N
  C1       1.0000 0.95560  0.60250  0.03960  Biso   1.000  C
  C2       1.0000 0.45560  0.10250  0.03960  Biso   1.000  C
  C3       1.0000 0.95560  0.39750  0.53960  Biso   1.000  C
  C4       1.0000 0.45560  0.89750  0.53960  Biso   1.000  C
  C5       1.0000 0.04440  0.39750  0.96040  Biso   1.000  C
  C6       1.0000 0.54440  0.89750  0.96040  Biso   1.000  C
  C7       1.0000 0.04440  0.60250  0.46040  Biso   1.000  C
  C8       1.0000 0.54440  0.10250  0.46040  Biso   1.000  C
  H1       1.0000 0.96410  0.55150  0.04340  Biso   1.000  H
  H2       1.0000 0.46410  0.05150  0.04340  Biso   1.000  H
  H3       1.0000 0.96410  0.44850  0.54340  Biso   1.000  H
  H4       1.0000 0.46410  0.94850  0.54340  Biso   1.000  H
  H5       1.0000 0.03590  0.44850  0.95660  Biso   1.000  H
  H6       1.0000 0.53590  0.94850  0.95660  Biso   1.000  H
  H7       1.0000 0.03590  0.55150  0.45660  Biso   1.000  H
  H8       1.0000 0.53590  0.05150  0.45660  Biso   1.000  H
  C9       1.0000 0.98080  0.63110  0.00596  Biso   1.000  C
  C10      1.0000 0.48080  0.13110  0.00596  Biso   1.000  C
  C11      1.0000 0.98080  0.36890  0.50596  Biso   1.000  C
  C12      1.0000 0.48080  0.86890  0.50596  Biso   1.000  C
  C13      1.0000 0.01920  0.36890  0.99404  Biso   1.000  C
  C14      1.0000 0.51920  0.86890  0.99404  Biso   1.000  C
  C15      1.0000 0.01920  0.63110  0.49404  Biso   1.000  C
  C16      1.0000 0.51920  0.13110  0.49404  Biso   1.000  C
  H9       1.0000 0.00330  0.60050  0.98670  Biso   1.000  H
  H10      1.0000 0.50330  0.10050  0.98670  Biso   1.000  H
  H11      1.0000 0.00330  0.39950  0.48670  Biso   1.000  H
  H12      1.0000 0.50330  0.89950  0.48670  Biso   1.000  H
  H13      1.0000 0.99670  0.39950  0.01330  Biso   1.000  H
  H14      1.0000 0.49670  0.89950  0.01330  Biso   1.000  H
  H15      1.0000 0.99670  0.60050  0.51330  Biso   1.000  H
  H16      1.0000 0.49670  0.10050  0.51330  Biso   1.000  H
  C17      1.0000 0.97250  0.70530  0.00114  Biso   1.000  C
  C18      1.0000 0.47250  0.20530  0.00114  Biso   1.000  C
  C19      1.0000 0.97250  0.29470  0.50114  Biso   1.000  C
  C20      1.0000 0.47250  0.79470  0.50114  Biso   1.000  C
  C21      1.0000 0.02750  0.29470  0.99886  Biso   1.000  C
  C22      1.0000 0.52750  0.79470  0.99886  Biso   1.000  C
  C23      1.0000 0.02750  0.70530  0.49886  Biso   1.000  C
  C24      1.0000 0.52750  0.20530  0.49886  Biso   1.000  C
  H17      1.0000 0.99070  0.72680  0.97850  Biso   1.000  H
  H18      1.0000 0.49070  0.22680  0.97850  Biso   1.000  H
  H19      1.0000 0.99070  0.27320  0.47850  Biso   1.000  H
  H20      1.0000 0.49070  0.77320  0.47850  Biso   1.000  H
  H21      1.0000 0.00930  0.27320  0.02150  Biso   1.000  H
  H22      1.0000 0.50930  0.77320  0.02150  Biso   1.000  H
  H23      1.0000 0.00930  0.72680  0.52150  Biso   1.000  H
  H24      1.0000 0.50930  0.22680  0.52150  Biso   1.000  H
  C25      1.0000 0.93700  0.74870  0.02955  Biso   1.000  C
  C26      1.0000 0.43700  0.24870  0.02955  Biso   1.000  C
  C27      1.0000 0.93700  0.25130  0.52955  Biso   1.000  C
  C28      1.0000 0.43700  0.75130  0.52955  Biso   1.000  C
  C29      1.0000 0.06300  0.25130  0.97045  Biso   1.000  C
  C30      1.0000 0.56300  0.75130  0.97045  Biso   1.000  C
  C31      1.0000 0.06300  0.74870  0.47045  Biso   1.000  C
  C32      1.0000 0.56300  0.24870  0.47045  Biso   1.000  C
  H25      1.0000 0.93330  0.80020  0.02680  Biso   1.000  H
  H26      1.0000 0.43330  0.30020  0.02680  Biso   1.000  H
  H27      1.0000 0.93330  0.19980  0.52680  Biso   1.000  H
  H28      1.0000 0.43330  0.69980  0.52680  Biso   1.000  H
  H29      1.0000 0.06670  0.19980  0.97320  Biso   1.000  H
  H30      1.0000 0.56670  0.69980  0.97320  Biso   1.000  H
  H31      1.0000 0.06670  0.80020  0.47320  Biso   1.000  H
  H32      1.0000 0.56670  0.30020  0.47320  Biso   1.000  H
  C33      1.0000 0.90750  0.71610  0.06162  Biso   1.000  C
  C34      1.0000 0.40750  0.21610  0.06162  Biso   1.000  C
  C35      1.0000 0.90750  0.28390  0.56162  Biso   1.000  C
  C36      1.0000 0.40750  0.78390  0.56162  Biso   1.000  C
  C37      1.0000 0.09250  0.28390  0.93838  Biso   1.000  C
  C38      1.0000 0.59250  0.78390  0.93838  Biso   1.000  C
  C39      1.0000 0.09250  0.71610  0.43838  Biso   1.000  C
  C40      1.0000 0.59250  0.21610  0.43838  Biso   1.000  C
  C41      1.0000 0.86810  0.75410  0.09416  Biso   1.000  C
  C42      1.0000 0.36810  0.25410  0.09416  Biso   1.000  C
  C43      1.0000 0.86810  0.24590  0.59416  Biso   1.000  C
  C44      1.0000 0.36810  0.74590  0.59416  Biso   1.000  C
  C45      1.0000 0.13190  0.24590  0.90584  Biso   1.000  C
  C46      1.0000 0.63190  0.74590  0.90584  Biso   1.000  C
  C47      1.0000 0.13190  0.75410  0.40584  Biso   1.000  C
  C48      1.0000 0.63190  0.25410  0.40584  Biso   1.000  C
  C49      1.0000 0.84670  0.73340  0.15813  Biso   1.000  C
  C50      1.0000 0.34670  0.23340  0.15813  Biso   1.000  C
  C51      1.0000 0.84670  0.26660  0.65813  Biso   1.000  C
  C52      1.0000 0.34670  0.76660  0.65813  Biso   1.000  C
  C53      1.0000 0.15330  0.26660  0.84187  Biso   1.000  C
  C54      1.0000 0.65330  0.76660  0.84187  Biso   1.000  C
  C55      1.0000 0.15330  0.73340  0.34187  Biso   1.000  C
  C56      1.0000 0.65330  0.23340  0.34187  Biso   1.000  C
  C57      1.0000 0.84800  0.80840  0.16471  Biso   1.000  C
  C58      1.0000 0.34800  0.30840  0.16471  Biso   1.000  C
  C59      1.0000 0.84800  0.19160  0.66471  Biso   1.000  C
  C60      1.0000 0.34800  0.69160  0.66471  Biso   1.000  C
  C61      1.0000 0.15200  0.19160  0.83529  Biso   1.000  C
  C62      1.0000 0.65200  0.69160  0.83529  Biso   1.000  C
  C63      1.0000 0.15200  0.80840  0.33529  Biso   1.000  C
  C64      1.0000 0.65200  0.30840  0.33529  Biso   1.000  C
  C65      1.0000 0.83480  0.67060  0.18378  Biso   1.000  C
  C66      1.0000 0.33480  0.17060  0.18378  Biso   1.000  C
  C67      1.0000 0.83480  0.32940  0.68378  Biso   1.000  C
  C68      1.0000 0.33480  0.82940  0.68378  Biso   1.000  C
  C69      1.0000 0.16520  0.32940  0.81622  Biso   1.000  C
  C70      1.0000 0.66520  0.82940  0.81622  Biso   1.000  C
  C71      1.0000 0.16520  0.67060  0.31622  Biso   1.000  C
  C72      1.0000 0.66520  0.17060  0.31622  Biso   1.000  C
  C73      1.0000 0.78220  0.67290  0.21621  Biso   1.000  C
  C74      1.0000 0.28220  0.17290  0.21621  Biso   1.000  C
  C75      1.0000 0.78220  0.32710  0.71621  Biso   1.000  C
  C76      1.0000 0.28220  0.82710  0.71621  Biso   1.000  C
  C77      1.0000 0.21780  0.32710  0.78379  Biso   1.000  C
  C78      1.0000 0.71780  0.82710  0.78379  Biso   1.000  C
  C79      1.0000 0.21780  0.67290  0.28379  Biso   1.000  C
  C80      1.0000 0.71780  0.17290  0.28379  Biso   1.000  C
  H33      1.0000 0.74280  0.71490  0.22270  Biso   1.000  H
  H34      1.0000 0.24280  0.21490  0.22270  Biso   1.000  H
  H35      1.0000 0.74280  0.28510  0.72270  Biso   1.000  H
  H36      1.0000 0.24280  0.78510  0.72270  Biso   1.000  H
  H37      1.0000 0.25720  0.28510  0.77730  Biso   1.000  H
  H38      1.0000 0.75720  0.78510  0.77730  Biso   1.000  H
  H39      1.0000 0.25720  0.71490  0.27730  Biso   1.000  H
  H40      1.0000 0.75720  0.21490  0.27730  Biso   1.000  H
  C81      1.0000 0.78760  0.61270  0.23931  Biso   1.000  C
  C82      1.0000 0.28760  0.11270  0.23931  Biso   1.000  C
  C83      1.0000 0.78760  0.38730  0.73931  Biso   1.000  C
  C84      1.0000 0.28760  0.88730  0.73931  Biso   1.000  C
  C85      1.0000 0.21240  0.38730  0.76069  Biso   1.000  C
  C86      1.0000 0.71240  0.88730  0.76069  Biso   1.000  C
  C87      1.0000 0.21240  0.61270  0.26069  Biso   1.000  C
  C88      1.0000 0.71240  0.11270  0.26069  Biso   1.000  C
  H41      1.0000 0.75540  0.61380  0.26250  Biso   1.000  H
  H42      1.0000 0.25540  0.11380  0.26250  Biso   1.000  H
  H43      1.0000 0.75540  0.38620  0.76250  Biso   1.000  H
  H44      1.0000 0.25540  0.88620  0.76250  Biso   1.000  H
  H45      1.0000 0.24460  0.38620  0.73750  Biso   1.000  H
  H46      1.0000 0.74460  0.88620  0.73750  Biso   1.000  H
  H47      1.0000 0.24460  0.61380  0.23750  Biso   1.000  H
  H48      1.0000 0.74460  0.11380  0.23750  Biso   1.000  H
  C89      1.0000 0.84040  0.55150  0.22806  Biso   1.000  C
  C90      1.0000 0.34040  0.05150  0.22806  Biso   1.000  C
  C91      1.0000 0.84040  0.44850  0.72806  Biso   1.000  C
  C92      1.0000 0.34040  0.94850  0.72806  Biso   1.000  C
  C93      1.0000 0.15960  0.44850  0.77194  Biso   1.000  C
  C94      1.0000 0.65960  0.94850  0.77194  Biso   1.000  C
  C95      1.0000 0.15960  0.55150  0.27194  Biso   1.000  C
  C96      1.0000 0.65960  0.05150  0.27194  Biso   1.000  C
  H49      1.0000 0.84980  0.51120  0.24420  Biso   1.000  H
  H50      1.0000 0.34980  0.01120  0.24420  Biso   1.000  H
  H51      1.0000 0.84980  0.48880  0.74420  Biso   1.000  H
  H52      1.0000 0.34980  0.98880  0.74420  Biso   1.000  H
  H53      1.0000 0.15020  0.48880  0.75580  Biso   1.000  H
  H54      1.0000 0.65020  0.98880  0.75580  Biso   1.000  H
  H55      1.0000 0.15020  0.51120  0.25580  Biso   1.000  H
  H56      1.0000 0.65020  0.01120  0.25580  Biso   1.000  H
  C97      1.0000 0.87970  0.54860  0.19324  Biso   1.000  C
  C98      1.0000 0.37970  0.04860  0.19324  Biso   1.000  C
  C99      1.0000 0.87970  0.45140  0.69324  Biso   1.000  C
  C100     1.0000 0.37970  0.95140  0.69324  Biso   1.000  C
  C101     1.0000 0.12030  0.45140  0.80676  Biso   1.000  C
  C102     1.0000 0.62030  0.95140  0.80676  Biso   1.000  C
  C103     1.0000 0.12030  0.54860  0.30676  Biso   1.000  C
  C104     1.0000 0.62030  0.04860  0.30676  Biso   1.000  C
  H57      1.0000 0.91030  0.50450  0.18480  Biso   1.000  H
  H58      1.0000 0.41030  0.00450  0.18480  Biso   1.000  H
  H59      1.0000 0.91030  0.49550  0.68480  Biso   1.000  H
  H60      1.0000 0.41030  0.99550  0.68480  Biso   1.000  H
  H61      1.0000 0.08970  0.49550  0.81520  Biso   1.000  H
  H62      1.0000 0.58970  0.99550  0.81520  Biso   1.000  H
  H63      1.0000 0.08970  0.50450  0.31520  Biso   1.000  H
  H64      1.0000 0.58970  0.00450  0.31520  Biso   1.000  H
  C105     1.0000 0.83120  0.01240  0.06470  Biso   1.000  C
  C106     1.0000 0.33120  0.51240  0.06470  Biso   1.000  C
  C107     1.0000 0.83120  0.98760  0.56470  Biso   1.000  C
  C108     1.0000 0.33120  0.48760  0.56470  Biso   1.000  C
  C109     1.0000 0.16880  0.98760  0.93530  Biso   1.000  C
  C110     1.0000 0.66880  0.48760  0.93530  Biso   1.000  C
  C111     1.0000 0.16880  0.01240  0.43530  Biso   1.000  C
  C112     1.0000 0.66880  0.51240  0.43530  Biso   1.000  C
  H65      1.0000 0.84520  0.05950  0.07460  Biso   1.000  H
  H66      1.0000 0.34520  0.55950  0.07460  Biso   1.000  H
  H67      1.0000 0.84520  0.94050  0.57460  Biso   1.000  H
  H68      1.0000 0.34520  0.44050  0.57460  Biso   1.000  H
  H69      1.0000 0.15480  0.94050  0.92540  Biso   1.000  H
  H70      1.0000 0.65480  0.44050  0.92540  Biso   1.000  H
  H71      1.0000 0.15480  0.05950  0.42540  Biso   1.000  H
  H72      1.0000 0.65480  0.55950  0.42540  Biso   1.000  H
  C113     1.0000 0.80210  0.00630  0.02820  Biso   1.000  C
  C114     1.0000 0.30210  0.50630  0.02820  Biso   1.000  C
  C115     1.0000 0.80210  0.99370  0.52820  Biso   1.000  C
  C116     1.0000 0.30210  0.49370  0.52820  Biso   1.000  C
  C117     1.0000 0.19790  0.99370  0.97180  Biso   1.000  C
  C118     1.0000 0.69790  0.49370  0.97180  Biso   1.000  C
  C119     1.0000 0.19790  0.00630  0.47180  Biso   1.000  C
  C120     1.0000 0.69790  0.50630  0.47180  Biso   1.000  C
  H73      1.0000 0.80180  0.04770  0.01260  Biso   1.000  H
  H74      1.0000 0.30180  0.54770  0.01260  Biso   1.000  H
  H75      1.0000 0.80180  0.95230  0.51260  Biso   1.000  H
  H76      1.0000 0.30180  0.45230  0.51260  Biso   1.000  H
  H77      1.0000 0.19820  0.95230  0.98740  Biso   1.000  H
  H78      1.0000 0.69820  0.45230  0.98740  Biso   1.000  H
  H79      1.0000 0.19820  0.04770  0.48740  Biso   1.000  H
  H80      1.0000 0.69820  0.54770  0.48740  Biso   1.000  H
  C121     1.0000 0.77320  0.93840  0.01489  Biso   1.000  C
  C122     1.0000 0.27320  0.43840  0.01489  Biso   1.000  C
  C123     1.0000 0.77320  0.06160  0.51489  Biso   1.000  C
  C124     1.0000 0.27320  0.56160  0.51489  Biso   1.000  C
  C125     1.0000 0.22680  0.06160  0.98511  Biso   1.000  C
  C126     1.0000 0.72680  0.56160  0.98511  Biso   1.000  C
  C127     1.0000 0.22680  0.93840  0.48511  Biso   1.000  C
  C128     1.0000 0.72680  0.43840  0.48511  Biso   1.000  C
  H81      1.0000 0.74840  0.93320  0.99020  Biso   1.000  H
  H82      1.0000 0.24840  0.43320  0.99020  Biso   1.000  H
  H83      1.0000 0.74840  0.06680  0.49020  Biso   1.000  H
  H84      1.0000 0.24840  0.56680  0.49020  Biso   1.000  H
  H85      1.0000 0.25160  0.06680  0.00980  Biso   1.000  H
  H86      1.0000 0.75160  0.56680  0.00980  Biso   1.000  H
  H87      1.0000 0.25160  0.93320  0.50980  Biso   1.000  H
  H88      1.0000 0.75160  0.43320  0.50980  Biso   1.000  H
  C129     1.0000 0.78060  0.87760  0.03760  Biso   1.000  C
  C130     1.0000 0.28060  0.37760  0.03760  Biso   1.000  C
  C131     1.0000 0.78060  0.12240  0.53760  Biso   1.000  C
  C132     1.0000 0.28060  0.62240  0.53760  Biso   1.000  C
  C133     1.0000 0.21940  0.12240  0.96240  Biso   1.000  C
  C134     1.0000 0.71940  0.62240  0.96240  Biso   1.000  C
  C135     1.0000 0.21940  0.87760  0.46240  Biso   1.000  C
  C136     1.0000 0.71940  0.37760  0.46240  Biso   1.000  C
  H89      1.0000 0.75920  0.83080  0.02900  Biso   1.000  H
  H90      1.0000 0.25920  0.33080  0.02900  Biso   1.000  H
  H91      1.0000 0.75920  0.16920  0.52900  Biso   1.000  H
  H92      1.0000 0.25920  0.66920  0.52900  Biso   1.000  H
  H93      1.0000 0.24080  0.16920  0.97100  Biso   1.000  H
  H94      1.0000 0.74080  0.66920  0.97100  Biso   1.000  H
  H95      1.0000 0.24080  0.83080  0.47100  Biso   1.000  H
  H96      1.0000 0.74080  0.33080  0.47100  Biso   1.000  H
  C137     1.0000 0.81990  0.88750  0.07299  Biso   1.000  C
  C138     1.0000 0.31990  0.38750  0.07299  Biso   1.000  C
  C139     1.0000 0.81990  0.11250  0.57299  Biso   1.000  C
  C140     1.0000 0.31990  0.61250  0.57299  Biso   1.000  C
  C141     1.0000 0.18010  0.11250  0.92701  Biso   1.000  C
  C142     1.0000 0.68010  0.61250  0.92701  Biso   1.000  C
  C143     1.0000 0.18010  0.88750  0.42701  Biso   1.000  C
  C144     1.0000 0.68010  0.38750  0.42701  Biso   1.000  C
  C145     1.0000 0.84110  0.82780  0.09976  Biso   1.000  C
  C146     1.0000 0.34110  0.32780  0.09976  Biso   1.000  C
  C147     1.0000 0.84110  0.17220  0.59976  Biso   1.000  C
  C148     1.0000 0.34110  0.67220  0.59976  Biso   1.000  C
  C149     1.0000 0.15890  0.17220  0.90024  Biso   1.000  C
  C150     1.0000 0.65890  0.67220  0.90024  Biso   1.000  C
  C151     1.0000 0.15890  0.82780  0.40024  Biso   1.000  C
  C152     1.0000 0.65890  0.32780  0.40024  Biso   1.000  C
  C153     1.0000 0.85970  0.85130  0.19917  Biso   1.000  C
  C154     1.0000 0.35970  0.35130  0.19917  Biso   1.000  C
  C155     1.0000 0.85970  0.14870  0.69917  Biso   1.000  C
  C156     1.0000 0.35970  0.64870  0.69917  Biso   1.000  C
  C157     1.0000 0.14030  0.14870  0.80083  Biso   1.000  C
  C158     1.0000 0.64030  0.64870  0.80083  Biso   1.000  C
  C159     1.0000 0.14030  0.85130  0.30083  Biso   1.000  C
  C160     1.0000 0.64030  0.35130  0.30083  Biso   1.000  C
  C161     1.0000 0.87960  0.82370  0.23438  Biso   1.000  C
  C162     1.0000 0.37960  0.32370  0.23438  Biso   1.000  C
  C163     1.0000 0.87960  0.17630  0.73438  Biso   1.000  C
  C164     1.0000 0.37960  0.67630  0.73438  Biso   1.000  C
  C165     1.0000 0.12040  0.17630  0.76562  Biso   1.000  C
  C166     1.0000 0.62040  0.67630  0.76562  Biso   1.000  C
  C167     1.0000 0.12040  0.82370  0.26562  Biso   1.000  C
  C168     1.0000 0.62040  0.32370  0.26562  Biso   1.000  C
  H97      1.0000 0.89090  0.77290  0.23790  Biso   1.000  H
  H98      1.0000 0.39090  0.27290  0.23790  Biso   1.000  H
  H99      1.0000 0.89090  0.22710  0.73790  Biso   1.000  H
  H100     1.0000 0.39090  0.72710  0.73790  Biso   1.000  H
  H101     1.0000 0.10910  0.22710  0.76210  Biso   1.000  H
  H102     1.0000 0.60910  0.72710  0.76210  Biso   1.000  H
  H103     1.0000 0.10910  0.77290  0.26210  Biso   1.000  H
  H104     1.0000 0.60910  0.27290  0.26210  Biso   1.000  H
  C169     1.0000 0.88270  0.87030  0.26416  Biso   1.000  C
  C170     1.0000 0.38270  0.37030  0.26416  Biso   1.000  C
  C171     1.0000 0.88270  0.12970  0.76416  Biso   1.000  C
  C172     1.0000 0.38270  0.62970  0.76416  Biso   1.000  C
  C173     1.0000 0.11730  0.12970  0.73584  Biso   1.000  C
  C174     1.0000 0.61730  0.62970  0.73584  Biso   1.000  C
  C175     1.0000 0.11730  0.87030  0.23584  Biso   1.000  C
  C176     1.0000 0.61730  0.37030  0.23584  Biso   1.000  C
  H105     1.0000 0.88970  0.85130  0.28840  Biso   1.000  H
  H106     1.0000 0.38970  0.35130  0.28840  Biso   1.000  H
  H107     1.0000 0.88970  0.14870  0.78840  Biso   1.000  H
  H108     1.0000 0.38970  0.64870  0.78840  Biso   1.000  H
  H109     1.0000 0.11030  0.14870  0.71160  Biso   1.000  H
  H110     1.0000 0.61030  0.64870  0.71160  Biso   1.000  H
  H111     1.0000 0.11030  0.85130  0.21160  Biso   1.000  H
  H112     1.0000 0.61030  0.35130  0.21160  Biso   1.000  H
  C177     1.0000 0.87570  0.94480  0.25851  Biso   1.000  C
  C178     1.0000 0.37570  0.44480  0.25851  Biso   1.000  C
  C179     1.0000 0.87570  0.05520  0.75851  Biso   1.000  C
  C180     1.0000 0.37570  0.55520  0.75851  Biso   1.000  C
  C181     1.0000 0.12430  0.05520  0.74149  Biso   1.000  C
  C182     1.0000 0.62430  0.55520  0.74149  Biso   1.000  C
  C183     1.0000 0.12430  0.94480  0.24149  Biso   1.000  C
  C184     1.0000 0.62430  0.44480  0.24149  Biso   1.000  C
  H113     1.0000 0.87820  0.97790  0.27860  Biso   1.000  H
  H114     1.0000 0.37820  0.47790  0.27860  Biso   1.000  H
  H115     1.0000 0.87820  0.02210  0.77860  Biso   1.000  H
  H116     1.0000 0.37820  0.52210  0.77860  Biso   1.000  H
  H117     1.0000 0.12180  0.02210  0.72140  Biso   1.000  H
  H118     1.0000 0.62180  0.52210  0.72140  Biso   1.000  H
  H119     1.0000 0.12180  0.97790  0.22140  Biso   1.000  H
  H120     1.0000 0.62180  0.47790  0.22140  Biso   1.000  H
  C185     1.0000 0.86490  0.96960  0.22282  Biso   1.000  C
  C186     1.0000 0.36490  0.46960  0.22282  Biso   1.000  C
  C187     1.0000 0.86490  0.03040  0.72282  Biso   1.000  C
  C188     1.0000 0.36490  0.53040  0.72282  Biso   1.000  C
  C189     1.0000 0.13510  0.03040  0.77718  Biso   1.000  C
  C190     1.0000 0.63510  0.53040  0.77718  Biso   1.000  C
  C191     1.0000 0.13510  0.96960  0.27718  Biso   1.000  C
  C192     1.0000 0.63510  0.46960  0.27718  Biso   1.000  C
  H121     1.0000 0.86320  0.02080  0.21860  Biso   1.000  H
  H122     1.0000 0.36320  0.52080  0.21860  Biso   1.000  H
  H123     1.0000 0.86320  0.97920  0.71860  Biso   1.000  H
  H124     1.0000 0.36320  0.47920  0.71860  Biso   1.000  H
  H125     1.0000 0.13680  0.97920  0.78140  Biso   1.000  H
  H126     1.0000 0.63680  0.47920  0.78140  Biso   1.000  H
  H127     1.0000 0.13680  0.02080  0.28140  Biso   1.000  H
  H128     1.0000 0.63680  0.52080  0.28140  Biso   1.000  H
  C193     1.0000 0.71640  0.19900  0.04500  Biso   1.000  C
  C194     1.0000 0.21640  0.69900  0.04500  Biso   1.000  C
  C195     1.0000 0.71640  0.80100  0.54500  Biso   1.000  C
  C196     1.0000 0.21640  0.30100  0.54500  Biso   1.000  C
  C197     1.0000 0.28360  0.80100  0.95500  Biso   1.000  C
  C198     1.0000 0.78360  0.30100  0.95500  Biso   1.000  C
  C199     1.0000 0.28360  0.19900  0.45500  Biso   1.000  C
  C200     1.0000 0.78360  0.69900  0.45500  Biso   1.000  C
  H129     1.0000 0.70660  0.14600  0.04900  Biso   1.000  H
  H130     1.0000 0.20660  0.64600  0.04900  Biso   1.000  H
  H131     1.0000 0.70660  0.85400  0.54900  Biso   1.000  H
  H132     1.0000 0.20660  0.35400  0.54900  Biso   1.000  H
  H133     1.0000 0.29340  0.85400  0.95100  Biso   1.000  H
  H134     1.0000 0.79340  0.35400  0.95100  Biso   1.000  H
  H135     1.0000 0.29340  0.14600  0.45100  Biso   1.000  H
  H136     1.0000 0.79340  0.64600  0.45100  Biso   1.000  H
  H137     1.0000 0.64600  0.22240  0.04720  Biso   1.000  H
  H138     1.0000 0.14600  0.72240  0.04720  Biso   1.000  H
  H139     1.0000 0.64600  0.77760  0.54720  Biso   1.000  H
  H140     1.0000 0.14600  0.27760  0.54720  Biso   1.000  H
  H141     1.0000 0.35400  0.77760  0.95280  Biso   1.000  H
  H142     1.0000 0.85400  0.27760  0.95280  Biso   1.000  H
  H143     1.0000 0.35400  0.22240  0.45280  Biso   1.000  H
  H144     1.0000 0.85400  0.72240  0.45280  Biso   1.000  H
  C201     1.0000 0.75250  0.21020  0.00581  Biso   1.000  C
  C202     1.0000 0.25250  0.71020  0.00581  Biso   1.000  C
  C203     1.0000 0.75250  0.78980  0.50581  Biso   1.000  C
  C204     1.0000 0.25250  0.28980  0.50581  Biso   1.000  C
  C205     1.0000 0.24750  0.78980  0.99419  Biso   1.000  C
  C206     1.0000 0.74750  0.28980  0.99419  Biso   1.000  C
  C207     1.0000 0.24750  0.21020  0.49419  Biso   1.000  C
  C208     1.0000 0.74750  0.71020  0.49419  Biso   1.000  C
  H145     1.0000 0.82650  0.19240  0.00400  Biso   1.000  H
  H146     1.0000 0.32650  0.69240  0.00400  Biso   1.000  H
  H147     1.0000 0.82650  0.80760  0.50400  Biso   1.000  H
  H148     1.0000 0.32650  0.30760  0.50400  Biso   1.000  H
  H149     1.0000 0.17350  0.80760  0.99600  Biso   1.000  H
  H150     1.0000 0.67350  0.30760  0.99600  Biso   1.000  H
  H151     1.0000 0.17350  0.19240  0.49600  Biso   1.000  H
  H152     1.0000 0.67350  0.69240  0.49600  Biso   1.000  H
  H153     1.0000 0.70680  0.18090  0.98880  Biso   1.000  H
  H154     1.0000 0.20680  0.68090  0.98880  Biso   1.000  H
  H155     1.0000 0.70680  0.81910  0.48880  Biso   1.000  H
  H156     1.0000 0.20680  0.31910  0.48880  Biso   1.000  H
  H157     1.0000 0.29320  0.81910  0.01120  Biso   1.000  H
  H158     1.0000 0.79320  0.31910  0.01120  Biso   1.000  H
  H159     1.0000 0.29320  0.18090  0.51120  Biso   1.000  H
  H160     1.0000 0.79320  0.68090  0.51120  Biso   1.000  H
  C209     1.0000 0.87360  0.32450  0.21852  Biso   1.000  C
  C210     1.0000 0.37360  0.82450  0.21852  Biso   1.000  C
  C211     1.0000 0.87360  0.67550  0.71852  Biso   1.000  C
  C212     1.0000 0.37360  0.17550  0.71852  Biso   1.000  C
  C213     1.0000 0.12640  0.67550  0.78148  Biso   1.000  C
  C214     1.0000 0.62640  0.17550  0.78148  Biso   1.000  C
  C215     1.0000 0.12640  0.32450  0.28148  Biso   1.000  C
  C216     1.0000 0.62640  0.82450  0.28148  Biso   1.000  C
  H161     1.0000 0.83630  0.36640  0.22940  Biso   1.000  H
  H162     1.0000 0.33630  0.86640  0.22940  Biso   1.000  H
  H163     1.0000 0.83630  0.63360  0.72940  Biso   1.000  H
  H164     1.0000 0.33630  0.13360  0.72940  Biso   1.000  H
  H165     1.0000 0.16370  0.63360  0.77060  Biso   1.000  H
  H166     1.0000 0.66370  0.13360  0.77060  Biso   1.000  H
  H167     1.0000 0.16370  0.36640  0.27060  Biso   1.000  H
  H168     1.0000 0.66370  0.86640  0.27060  Biso   1.000  H
  H169     1.0000 0.84340  0.27930  0.22870  Biso   1.000  H
  H170     1.0000 0.34340  0.77930  0.22870  Biso   1.000  H
  H171     1.0000 0.84340  0.72070  0.72870  Biso   1.000  H
  H172     1.0000 0.34340  0.22070  0.72870  Biso   1.000  H
  H173     1.0000 0.15660  0.72070  0.77130  Biso   1.000  H
  H174     1.0000 0.65660  0.22070  0.77130  Biso   1.000  H
  H175     1.0000 0.15660  0.27930  0.27130  Biso   1.000  H
  H176     1.0000 0.65660  0.77930  0.27130  Biso   1.000  H
  C217     1.0000 0.99160  0.32860  0.22933  Biso   1.000  C
  C218     1.0000 0.49160  0.82860  0.22933  Biso   1.000  C
  C219     1.0000 0.99160  0.67140  0.72933  Biso   1.000  C
  C220     1.0000 0.49160  0.17140  0.72933  Biso   1.000  C
  C221     1.0000 0.00840  0.67140  0.77067  Biso   1.000  C
  C222     1.0000 0.50840  0.17140  0.77067  Biso   1.000  C
  C223     1.0000 0.00840  0.32860  0.27067  Biso   1.000  C
  C224     1.0000 0.50840  0.82860  0.27067  Biso   1.000  C
  H177     1.0000 0.02910  0.28640  0.21880  Biso   1.000  H
  H178     1.0000 0.52910  0.78640  0.21880  Biso   1.000  H
  H179     1.0000 0.02910  0.71360  0.71880  Biso   1.000  H
  H180     1.0000 0.52910  0.21360  0.71880  Biso   1.000  H
  H181     1.0000 0.97090  0.71360  0.78120  Biso   1.000  H
  H182     1.0000 0.47090  0.21360  0.78120  Biso   1.000  H
  H183     1.0000 0.97090  0.28640  0.28120  Biso   1.000  H
  H184     1.0000 0.47090  0.78640  0.28120  Biso   1.000  H
  H185     1.0000 0.02230  0.37370  0.21910  Biso   1.000  H
  H186     1.0000 0.52230  0.87370  0.21910  Biso   1.000  H
  H187     1.0000 0.02230  0.62630  0.71910  Biso   1.000  H
  H188     1.0000 0.52230  0.12630  0.71910  Biso   1.000  H
  H189     1.0000 0.97770  0.62630  0.78090  Biso   1.000  H
  H190     1.0000 0.47770  0.12630  0.78090  Biso   1.000  H
  H191     1.0000 0.97770  0.37370  0.28090  Biso   1.000  H
  H192     1.0000 0.47770  0.87370  0.28090  Biso   1.000  H
