data_image0
_cell_length_a       12.8366
_cell_length_b       18.4221
_cell_length_c       34.3256
_cell_angle_alpha    90
_cell_angle_beta     100.546
_cell_angle_gamma    90

_symmetry_space_group_name_H-M    "P 1"
_symmetry_int_tables_number       1

loop_
  _symmetry_equiv_pos_as_xyz
  'x, y, z'

loop_
  _atom_site_label
  _atom_site_occupancy
  _atom_site_fract_x
  _atom_site_fract_y
  _atom_site_fract_z
  _atom_site_thermal_displace_type
  _atom_site_B_iso_or_equiv
  _atom_site_type_symbol
  Mo1      1.0000 0.38291  0.42412  0.10075  Biso   1.000  Mo
  Mo2      1.0000 0.88291  0.92412  0.10075  Biso   1.000  Mo
  Mo3      1.0000 0.38291  0.57588  0.60075  Biso   1.000  Mo
  Mo4      1.0000 0.88291  0.07588  0.60075  Biso   1.000  Mo
  Mo5      1.0000 0.61709  0.57588  0.89925  Biso   1.000  Mo
  Mo6      1.0000 0.11709  0.07588  0.89925  Biso   1.000  Mo
  Mo7      1.0000 0.61709  0.42412  0.39925  Biso   1.000  Mo
  Mo8      1.0000 0.11709  0.92412  0.39925  Biso   1.000  Mo
  Mo9      1.0000 0.56286  0.26926  0.12066  Biso   1.000  Mo
  Mo10     1.0000 0.06286  0.76926  0.12066  Biso   1.000  Mo
  Mo11     1.0000 0.56286  0.73074  0.62066  Biso   1.000  Mo
  Mo12     1.0000 0.06286  0.23074  0.62066  Biso   1.000  Mo
  Mo13     1.0000 0.43714  0.73074  0.87934  Biso   1.000  Mo
  Mo14     1.0000 0.93714  0.23074  0.87934  Biso   1.000  Mo
  Mo15     1.0000 0.43714  0.26926  0.37934  Biso   1.000  Mo
  Mo16     1.0000 0.93714  0.76926  0.37934  Biso   1.000  Mo
  Mo17     1.0000 0.14201  0.36429  0.10876  Biso   1.000  Mo
  Mo18     1.0000 0.64201  0.86429  0.10876  Biso   1.000  Mo
  Mo19     1.0000 0.14201  0.63571  0.60876  Biso   1.000  Mo
  Mo20     1.0000 0.64201  0.13571  0.60876  Biso   1.000  Mo
  Mo21     1.0000 0.85799  0.63571  0.89124  Biso   1.000  Mo
  Mo22     1.0000 0.35799  0.13571  0.89124  Biso   1.000  Mo
  Mo23     1.0000 0.85799  0.36429  0.39124  Biso   1.000  Mo
  Mo24     1.0000 0.35799  0.86429  0.39124  Biso   1.000  Mo
  Mo25     1.0000 0.17154  0.19879  0.15259  Biso   1.000  Mo
  Mo26     1.0000 0.67154  0.69879  0.15259  Biso   1.000  Mo
  Mo27     1.0000 0.17154  0.80121  0.65259  Biso   1.000  Mo
  Mo28     1.0000 0.67154  0.30121  0.65259  Biso   1.000  Mo
  Mo29     1.0000 0.82846  0.80121  0.84742  Biso   1.000  Mo
  Mo30     1.0000 0.32846  0.30121  0.84742  Biso   1.000  Mo
  Mo31     1.0000 0.82846  0.19879  0.34742  Biso   1.000  Mo
  Mo32     1.0000 0.32846  0.69879  0.34742  Biso   1.000  Mo
  Mo33     1.0000 0.43021  0.14506  0.16308  Biso   1.000  Mo
  Mo34     1.0000 0.93021  0.64506  0.16308  Biso   1.000  Mo
  Mo35     1.0000 0.43021  0.85494  0.66308  Biso   1.000  Mo
  Mo36     1.0000 0.93021  0.35494  0.66308  Biso   1.000  Mo
  Mo37     1.0000 0.56979  0.85494  0.83692  Biso   1.000  Mo
  Mo38     1.0000 0.06979  0.35494  0.83692  Biso   1.000  Mo
  Mo39     1.0000 0.56979  0.14506  0.33692  Biso   1.000  Mo
  Mo40     1.0000 0.06979  0.64506  0.33692  Biso   1.000  Mo
  Cu1      1.0000 0.41505  0.61034  0.11967  Biso   1.000  Cu
  Cu2      1.0000 0.91505  0.11034  0.11967  Biso   1.000  Cu
  Cu3      1.0000 0.41505  0.38966  0.61967  Biso   1.000  Cu
  Cu4      1.0000 0.91505  0.88966  0.61967  Biso   1.000  Cu
  Cu5      1.0000 0.58495  0.38966  0.88033  Biso   1.000  Cu
  Cu6      1.0000 0.08495  0.88966  0.88033  Biso   1.000  Cu
  Cu7      1.0000 0.58495  0.61034  0.38034  Biso   1.000  Cu
  Cu8      1.0000 0.08495  0.11034  0.38034  Biso   1.000  Cu
  Cu9      1.0000 0.35870  0.95850  0.13461  Biso   1.000  Cu
  Cu10     1.0000 0.85870  0.45850  0.13461  Biso   1.000  Cu
  Cu11     1.0000 0.35870  0.04150  0.63461  Biso   1.000  Cu
  Cu12     1.0000 0.85870  0.54150  0.63461  Biso   1.000  Cu
  Cu13     1.0000 0.64130  0.04150  0.86539  Biso   1.000  Cu
  Cu14     1.0000 0.14130  0.54150  0.86539  Biso   1.000  Cu
  Cu15     1.0000 0.64130  0.95850  0.36539  Biso   1.000  Cu
  Cu16     1.0000 0.14130  0.45850  0.36539  Biso   1.000  Cu
  P1       1.0000 0.37222  0.32175  0.17952  Biso   1.000  P
  P2       1.0000 0.87222  0.82175  0.17952  Biso   1.000  P
  P3       1.0000 0.37222  0.67825  0.67952  Biso   1.000  P
  P4       1.0000 0.87222  0.17825  0.67952  Biso   1.000  P
  P5       1.0000 0.62778  0.67825  0.82048  Biso   1.000  P
  P6       1.0000 0.12778  0.17825  0.82048  Biso   1.000  P
  P7       1.0000 0.62778  0.32175  0.32048  Biso   1.000  P
  P8       1.0000 0.12778  0.82175  0.32048  Biso   1.000  P
  P9       1.0000 0.31488  0.24220  0.07848  Biso   1.000  P
  P10      1.0000 0.81488  0.74220  0.07848  Biso   1.000  P
  P11      1.0000 0.31488  0.75780  0.57848  Biso   1.000  P
  P12      1.0000 0.81488  0.25780  0.57848  Biso   1.000  P
  P13      1.0000 0.68512  0.75780  0.92152  Biso   1.000  P
  P14      1.0000 0.18512  0.25780  0.92152  Biso   1.000  P
  P15      1.0000 0.68512  0.24220  0.42152  Biso   1.000  P
  P16      1.0000 0.18512  0.74220  0.42152  Biso   1.000  P
  O1       1.0000 0.43860  0.50808  0.11677  Biso   1.000  O
  O2       1.0000 0.93860  0.00808  0.11677  Biso   1.000  O
  O3       1.0000 0.43860  0.49192  0.61677  Biso   1.000  O
  O4       1.0000 0.93860  0.99192  0.61677  Biso   1.000  O
  O5       1.0000 0.56140  0.49192  0.88323  Biso   1.000  O
  O6       1.0000 0.06140  0.99192  0.88323  Biso   1.000  O
  O7       1.0000 0.56140  0.50808  0.38323  Biso   1.000  O
  O8       1.0000 0.06140  0.00808  0.38323  Biso   1.000  O
  O9       1.0000 0.39990  0.05796  0.14390  Biso   1.000  O
  O10      1.0000 0.89990  0.55796  0.14390  Biso   1.000  O
  O11      1.0000 0.39990  0.94204  0.64390  Biso   1.000  O
  O12      1.0000 0.89990  0.44204  0.64390  Biso   1.000  O
  O13      1.0000 0.60010  0.94204  0.85610  Biso   1.000  O
  O14      1.0000 0.10010  0.44204  0.85610  Biso   1.000  O
  O15      1.0000 0.60010  0.05796  0.35610  Biso   1.000  O
  O16      1.0000 0.10010  0.55796  0.35610  Biso   1.000  O
  O17      1.0000 0.24430  0.44136  0.11249  Biso   1.000  O
  O18      1.0000 0.74430  0.94136  0.11249  Biso   1.000  O
  O19      1.0000 0.24430  0.55864  0.61249  Biso   1.000  O
  O20      1.0000 0.74430  0.05864  0.61249  Biso   1.000  O
  O21      1.0000 0.75570  0.55864  0.88751  Biso   1.000  O
  O22      1.0000 0.25570  0.05864  0.88751  Biso   1.000  O
  O23      1.0000 0.75570  0.44136  0.38751  Biso   1.000  O
  O24      1.0000 0.25570  0.94136  0.38751  Biso   1.000  O
  O25      1.0000 0.25310  0.30820  0.16551  Biso   1.000  O
  O26      1.0000 0.75310  0.80820  0.16551  Biso   1.000  O
  O27      1.0000 0.25310  0.69180  0.66551  Biso   1.000  O
  O28      1.0000 0.75310  0.19180  0.66551  Biso   1.000  O
  O29      1.0000 0.74690  0.69180  0.83449  Biso   1.000  O
  O30      1.0000 0.24690  0.19180  0.83449  Biso   1.000  O
  O31      1.0000 0.74690  0.30820  0.33449  Biso   1.000  O
  O32      1.0000 0.24690  0.80820  0.33449  Biso   1.000  O
  O33      1.0000 0.29520  0.18745  0.11012  Biso   1.000  O
  O34      1.0000 0.79520  0.68745  0.11012  Biso   1.000  O
  O35      1.0000 0.29520  0.81255  0.61012  Biso   1.000  O
  O36      1.0000 0.79520  0.31255  0.61012  Biso   1.000  O
  O37      1.0000 0.70480  0.81255  0.88988  Biso   1.000  O
  O38      1.0000 0.20480  0.31255  0.88988  Biso   1.000  O
  O39      1.0000 0.70480  0.18745  0.38988  Biso   1.000  O
  O40      1.0000 0.20480  0.68745  0.38988  Biso   1.000  O
  O41      1.0000 0.43830  0.26193  0.16319  Biso   1.000  O
  O42      1.0000 0.93830  0.76193  0.16319  Biso   1.000  O
  O43      1.0000 0.43830  0.73807  0.66319  Biso   1.000  O
  O44      1.0000 0.93830  0.23807  0.66319  Biso   1.000  O
  O45      1.0000 0.56170  0.73807  0.83681  Biso   1.000  O
  O46      1.0000 0.06170  0.23807  0.83681  Biso   1.000  O
  O47      1.0000 0.56170  0.26193  0.33681  Biso   1.000  O
  O48      1.0000 0.06170  0.76193  0.33681  Biso   1.000  O
  O49      1.0000 0.40480  0.39446  0.16580  Biso   1.000  O
  O50      1.0000 0.90480  0.89446  0.16580  Biso   1.000  O
  O51      1.0000 0.40480  0.60554  0.66580  Biso   1.000  O
  O52      1.0000 0.90480  0.10554  0.66580  Biso   1.000  O
  O53      1.0000 0.59520  0.60554  0.83420  Biso   1.000  O
  O54      1.0000 0.09520  0.10554  0.83420  Biso   1.000  O
  O55      1.0000 0.59520  0.39446  0.33420  Biso   1.000  O
  O56      1.0000 0.09520  0.89446  0.33420  Biso   1.000  O
  O57      1.0000 0.50190  0.36423  0.10558  Biso   1.000  O
  O58      1.0000 0.00190  0.86423  0.10558  Biso   1.000  O
  O59      1.0000 0.50190  0.63577  0.60558  Biso   1.000  O
  O60      1.0000 0.00190  0.13577  0.60558  Biso   1.000  O
  O61      1.0000 0.49810  0.63577  0.89442  Biso   1.000  O
  O62      1.0000 0.99810  0.13577  0.89442  Biso   1.000  O
  O63      1.0000 0.49810  0.36423  0.39442  Biso   1.000  O
  O64      1.0000 0.99810  0.86423  0.39442  Biso   1.000  O
  O65      1.0000 0.53830  0.16944  0.13348  Biso   1.000  O
  O66      1.0000 0.03830  0.66944  0.13348  Biso   1.000  O
  O67      1.0000 0.53830  0.83056  0.63348  Biso   1.000  O
  O68      1.0000 0.03830  0.33056  0.63348  Biso   1.000  O
  O69      1.0000 0.46170  0.83056  0.86652  Biso   1.000  O
  O70      1.0000 0.96170  0.33056  0.86652  Biso   1.000  O
  O71      1.0000 0.46170  0.16944  0.36652  Biso   1.000  O
  O72      1.0000 0.96170  0.66944  0.36652  Biso   1.000  O
  O73      1.0000 0.30170  0.16368  0.18311  Biso   1.000  O
  O74      1.0000 0.80170  0.66368  0.18311  Biso   1.000  O
  O75      1.0000 0.30170  0.83632  0.68311  Biso   1.000  O
  O76      1.0000 0.80170  0.33632  0.68311  Biso   1.000  O
  O77      1.0000 0.69830  0.83632  0.81689  Biso   1.000  O
  O78      1.0000 0.19830  0.33632  0.81689  Biso   1.000  O
  O79      1.0000 0.69830  0.16368  0.31689  Biso   1.000  O
  O80      1.0000 0.19830  0.66368  0.31689  Biso   1.000  O
  O81      1.0000 0.10820  0.26283  0.11120  Biso   1.000  O
  O82      1.0000 0.60820  0.76283  0.11120  Biso   1.000  O
  O83      1.0000 0.10820  0.73717  0.61120  Biso   1.000  O
  O84      1.0000 0.60820  0.23717  0.61120  Biso   1.000  O
  O85      1.0000 0.89180  0.73717  0.88880  Biso   1.000  O
  O86      1.0000 0.39180  0.23717  0.88880  Biso   1.000  O
  O87      1.0000 0.89180  0.26283  0.38880  Biso   1.000  O
  O88      1.0000 0.39180  0.76283  0.38880  Biso   1.000  O
  O89      1.0000 0.28820  0.32072  0.09033  Biso   1.000  O
  O90      1.0000 0.78820  0.82072  0.09033  Biso   1.000  O
  O91      1.0000 0.28820  0.67928  0.59033  Biso   1.000  O
  O92      1.0000 0.78820  0.17928  0.59033  Biso   1.000  O
  O93      1.0000 0.71180  0.67928  0.90967  Biso   1.000  O
  O94      1.0000 0.21180  0.17928  0.90967  Biso   1.000  O
  O95      1.0000 0.71180  0.32072  0.40967  Biso   1.000  O
  O96      1.0000 0.21180  0.82072  0.40967  Biso   1.000  O
  O97      1.0000 0.42970  0.24033  0.07340  Biso   1.000  O
  O98      1.0000 0.92970  0.74033  0.07340  Biso   1.000  O
  O99      1.0000 0.42970  0.75967  0.57340  Biso   1.000  O
  O100     1.0000 0.92970  0.25967  0.57340  Biso   1.000  O
  O101     1.0000 0.57030  0.75967  0.92660  Biso   1.000  O
  O102     1.0000 0.07030  0.25967  0.92660  Biso   1.000  O
  O103     1.0000 0.57030  0.24033  0.42660  Biso   1.000  O
  O104     1.0000 0.07030  0.74033  0.42660  Biso   1.000  O
  O105     1.0000 0.35730  0.43659  0.05079  Biso   1.000  O
  O106     1.0000 0.85730  0.93659  0.05079  Biso   1.000  O
  O107     1.0000 0.35730  0.56341  0.55079  Biso   1.000  O
  O108     1.0000 0.85730  0.06341  0.55079  Biso   1.000  O
  O109     1.0000 0.64270  0.56341  0.94921  Biso   1.000  O
  O110     1.0000 0.14270  0.06341  0.94921  Biso   1.000  O
  O111     1.0000 0.64270  0.43659  0.44921  Biso   1.000  O
  O112     1.0000 0.14270  0.93659  0.44921  Biso   1.000  O
  O113     1.0000 0.07330  0.37890  0.06222  Biso   1.000  O
  O114     1.0000 0.57330  0.87890  0.06222  Biso   1.000  O
  O115     1.0000 0.07330  0.62110  0.56222  Biso   1.000  O
  O116     1.0000 0.57330  0.12110  0.56222  Biso   1.000  O
  O117     1.0000 0.92670  0.62110  0.93778  Biso   1.000  O
  O118     1.0000 0.42670  0.12110  0.93778  Biso   1.000  O
  O119     1.0000 0.92670  0.37890  0.43778  Biso   1.000  O
  O120     1.0000 0.42670  0.87890  0.43778  Biso   1.000  O
  O121     1.0000 0.06390  0.40043  0.13929  Biso   1.000  O
  O122     1.0000 0.56390  0.90043  0.13929  Biso   1.000  O
  O123     1.0000 0.06390  0.59957  0.63929  Biso   1.000  O
  O124     1.0000 0.56390  0.09957  0.63929  Biso   1.000  O
  O125     1.0000 0.93610  0.59957  0.86071  Biso   1.000  O
  O126     1.0000 0.43610  0.09957  0.86071  Biso   1.000  O
  O127     1.0000 0.93610  0.40043  0.36071  Biso   1.000  O
  O128     1.0000 0.43610  0.90043  0.36071  Biso   1.000  O
  O129     1.0000 0.10250  0.21879  0.18911  Biso   1.000  O
  O130     1.0000 0.60250  0.71879  0.18911  Biso   1.000  O
  O131     1.0000 0.10250  0.78121  0.68911  Biso   1.000  O
  O132     1.0000 0.60250  0.28121  0.68911  Biso   1.000  O
  O133     1.0000 0.89750  0.78121  0.81089  Biso   1.000  O
  O134     1.0000 0.39750  0.28121  0.81089  Biso   1.000  O
  O135     1.0000 0.89750  0.21879  0.31089  Biso   1.000  O
  O136     1.0000 0.39750  0.71879  0.31089  Biso   1.000  O
  O137     1.0000 0.61030  0.61999  0.13268  Biso   1.000  O
  O138     1.0000 0.11030  0.11999  0.13268  Biso   1.000  O
  O139     1.0000 0.61030  0.38001  0.63268  Biso   1.000  O
  O140     1.0000 0.11030  0.88001  0.63268  Biso   1.000  O
  O141     1.0000 0.38970  0.38001  0.86732  Biso   1.000  O
  O142     1.0000 0.88970  0.88001  0.86732  Biso   1.000  O
  O143     1.0000 0.38970  0.61999  0.36732  Biso   1.000  O
  O144     1.0000 0.88970  0.11999  0.36732  Biso   1.000  O
  O145     1.0000 0.50810  0.12949  0.20752  Biso   1.000  O
  O146     1.0000 0.00810  0.62949  0.20752  Biso   1.000  O
  O147     1.0000 0.50810  0.87051  0.70752  Biso   1.000  O
  O148     1.0000 0.00810  0.37051  0.70752  Biso   1.000  O
  O149     1.0000 0.49190  0.87051  0.79248  Biso   1.000  O
  O150     1.0000 0.99190  0.37051  0.79248  Biso   1.000  O
  O151     1.0000 0.49190  0.12949  0.29248  Biso   1.000  O
  O152     1.0000 0.99190  0.62949  0.29248  Biso   1.000  O
  O153     1.0000 0.64560  0.29709  0.16306  Biso   1.000  O
  O154     1.0000 0.14560  0.79709  0.16306  Biso   1.000  O
  O155     1.0000 0.64560  0.70291  0.66306  Biso   1.000  O
  O156     1.0000 0.14560  0.20291  0.66306  Biso   1.000  O
  O157     1.0000 0.35440  0.70291  0.83694  Biso   1.000  O
  O158     1.0000 0.85440  0.20291  0.83694  Biso   1.000  O
  O159     1.0000 0.35440  0.29709  0.33694  Biso   1.000  O
  O160     1.0000 0.85440  0.79709  0.33694  Biso   1.000  O
  O161     1.0000 0.64820  0.25797  0.08884  Biso   1.000  O
  O162     1.0000 0.14820  0.75797  0.08884  Biso   1.000  O
  O163     1.0000 0.64820  0.74203  0.58884  Biso   1.000  O
  O164     1.0000 0.14820  0.24203  0.58884  Biso   1.000  O
  O165     1.0000 0.35180  0.74203  0.91116  Biso   1.000  O
  O166     1.0000 0.85180  0.24203  0.91116  Biso   1.000  O
  O167     1.0000 0.35180  0.25797  0.41116  Biso   1.000  O
  O168     1.0000 0.85180  0.75797  0.41116  Biso   1.000  O
  O169     1.0000 0.21420  0.58886  0.10470  Biso   1.000  O
  O170     1.0000 0.71420  0.08886  0.10470  Biso   1.000  O
  O171     1.0000 0.21420  0.41114  0.60470  Biso   1.000  O
  O172     1.0000 0.71420  0.91114  0.60470  Biso   1.000  O
  O173     1.0000 0.78580  0.41114  0.89530  Biso   1.000  O
  O174     1.0000 0.28580  0.91114  0.89530  Biso   1.000  O
  O175     1.0000 0.78580  0.58886  0.39530  Biso   1.000  O
  O176     1.0000 0.28580  0.08886  0.39530  Biso   1.000  O
  O177     1.0000 0.18510  0.98061  0.12102  Biso   1.000  O
  O178     1.0000 0.68510  0.48061  0.12102  Biso   1.000  O
  O179     1.0000 0.18510  0.01939  0.62102  Biso   1.000  O
  O180     1.0000 0.68510  0.51939  0.62102  Biso   1.000  O
  O181     1.0000 0.81490  0.01939  0.87898  Biso   1.000  O
  O182     1.0000 0.31490  0.51939  0.87898  Biso   1.000  O
  O183     1.0000 0.81490  0.98061  0.37898  Biso   1.000  O
  O184     1.0000 0.31490  0.48061  0.37898  Biso   1.000  O
  O185     1.0000 0.61790  0.43330  0.19050  Biso   1.000  O
  O186     1.0000 0.11790  0.93330  0.19050  Biso   1.000  O
  O187     1.0000 0.61790  0.56670  0.69050  Biso   1.000  O
  O188     1.0000 0.11790  0.06670  0.69050  Biso   1.000  O
  O189     1.0000 0.38210  0.56670  0.80950  Biso   1.000  O
  O190     1.0000 0.88210  0.06670  0.80950  Biso   1.000  O
  O191     1.0000 0.38210  0.43330  0.30950  Biso   1.000  O
  O192     1.0000 0.88210  0.93330  0.30950  Biso   1.000  O
  O193     1.0000 0.47000  0.87270  0.96080  Biso   1.000  O
  O194     1.0000 0.97000  0.37270  0.96080  Biso   1.000  O
  O195     1.0000 0.47000  0.12730  0.46080  Biso   1.000  O
  O196     1.0000 0.97000  0.62730  0.46080  Biso   1.000  O
  O197     1.0000 0.53000  0.12730  0.03920  Biso   1.000  O
  O198     1.0000 0.03000  0.62730  0.03920  Biso   1.000  O
  O199     1.0000 0.53000  0.87270  0.53920  Biso   1.000  O
  O200     1.0000 0.03000  0.37270  0.53920  Biso   1.000  O
  N1       1.0000 0.36130  0.92950  0.19056  Biso   1.000  N
  N2       1.0000 0.86130  0.42950  0.19056  Biso   1.000  N
  N3       1.0000 0.36130  0.07050  0.69056  Biso   1.000  N
  N4       1.0000 0.86130  0.57050  0.69056  Biso   1.000  N
  N5       1.0000 0.63870  0.07050  0.80944  Biso   1.000  N
  N6       1.0000 0.13870  0.57050  0.80944  Biso   1.000  N
  N7       1.0000 0.63870  0.92950  0.30944  Biso   1.000  N
  N8       1.0000 0.13870  0.42950  0.30944  Biso   1.000  N
  N9       1.0000 0.35060  0.85291  0.12808  Biso   1.000  N
  N10      1.0000 0.85060  0.35291  0.12808  Biso   1.000  N
  N11      1.0000 0.35060  0.14709  0.62808  Biso   1.000  N
  N12      1.0000 0.85060  0.64709  0.62808  Biso   1.000  N
  N13      1.0000 0.64940  0.14709  0.87192  Biso   1.000  N
  N14      1.0000 0.14940  0.64709  0.87192  Biso   1.000  N
  N15      1.0000 0.64940  0.85291  0.37192  Biso   1.000  N
  N16      1.0000 0.14940  0.35291  0.37192  Biso   1.000  N
  N17      1.0000 0.36320  0.95280  0.07709  Biso   1.000  N
  N18      1.0000 0.86320  0.45280  0.07709  Biso   1.000  N
  N19      1.0000 0.36320  0.04720  0.57709  Biso   1.000  N
  N20      1.0000 0.86320  0.54720  0.57709  Biso   1.000  N
  N21      1.0000 0.63680  0.04720  0.92291  Biso   1.000  N
  N22      1.0000 0.13680  0.54720  0.92291  Biso   1.000  N
  N23      1.0000 0.63680  0.95280  0.42291  Biso   1.000  N
  N24      1.0000 0.13680  0.45280  0.42291  Biso   1.000  N
  N25      1.0000 0.42380  0.63845  0.06479  Biso   1.000  N
  N26      1.0000 0.92380  0.13845  0.06479  Biso   1.000  N
  N27      1.0000 0.42380  0.36155  0.56479  Biso   1.000  N
  N28      1.0000 0.92380  0.86155  0.56479  Biso   1.000  N
  N29      1.0000 0.57620  0.36155  0.93521  Biso   1.000  N
  N30      1.0000 0.07620  0.86155  0.93521  Biso   1.000  N
  N31      1.0000 0.57620  0.63845  0.43521  Biso   1.000  N
  N32      1.0000 0.07620  0.13845  0.43521  Biso   1.000  N
  N33      1.0000 0.37930  0.71310  0.12159  Biso   1.000  N
  N34      1.0000 0.87930  0.21310  0.12159  Biso   1.000  N
  N35      1.0000 0.37930  0.28690  0.62159  Biso   1.000  N
  N36      1.0000 0.87930  0.78690  0.62159  Biso   1.000  N
  N37      1.0000 0.62070  0.28690  0.87841  Biso   1.000  N
  N38      1.0000 0.12070  0.78690  0.87841  Biso   1.000  N
  N39      1.0000 0.62070  0.71310  0.37841  Biso   1.000  N
  N40      1.0000 0.12070  0.21310  0.37841  Biso   1.000  N
  N41      1.0000 0.39330  0.61422  0.17542  Biso   1.000  N
  N42      1.0000 0.89330  0.11422  0.17542  Biso   1.000  N
  N43      1.0000 0.39330  0.38578  0.67542  Biso   1.000  N
  N44      1.0000 0.89330  0.88578  0.67542  Biso   1.000  N
  N45      1.0000 0.60670  0.38578  0.82458  Biso   1.000  N
  N46      1.0000 0.10670  0.88578  0.82458  Biso   1.000  N
  N47      1.0000 0.60670  0.61422  0.32458  Biso   1.000  N
  N48      1.0000 0.10670  0.11422  0.32458  Biso   1.000  N
  C1       1.0000 0.36640  0.97560  0.22102  Biso   1.000  C
  C2       1.0000 0.86640  0.47560  0.22102  Biso   1.000  C
  C3       1.0000 0.36640  0.02440  0.72102  Biso   1.000  C
  C4       1.0000 0.86640  0.52440  0.72102  Biso   1.000  C
  C5       1.0000 0.63360  0.02440  0.77898  Biso   1.000  C
  C6       1.0000 0.13360  0.52440  0.77898  Biso   1.000  C
  C7       1.0000 0.63360  0.97560  0.27898  Biso   1.000  C
  C8       1.0000 0.13360  0.47560  0.27898  Biso   1.000  C
  H1       1.0000 0.36410  0.02630  0.21580  Biso   1.000  H
  H2       1.0000 0.86410  0.52630  0.21580  Biso   1.000  H
  H3       1.0000 0.36410  0.97370  0.71580  Biso   1.000  H
  H4       1.0000 0.86410  0.47370  0.71580  Biso   1.000  H
  H5       1.0000 0.63590  0.97370  0.78420  Biso   1.000  H
  H6       1.0000 0.13590  0.47370  0.78420  Biso   1.000  H
  H7       1.0000 0.63590  0.02630  0.28420  Biso   1.000  H
  H8       1.0000 0.13590  0.52630  0.28420  Biso   1.000  H
  C9       1.0000 0.37490  0.95210  0.25977  Biso   1.000  C
  C10      1.0000 0.87490  0.45210  0.25977  Biso   1.000  C
  C11      1.0000 0.37490  0.04790  0.75977  Biso   1.000  C
  C12      1.0000 0.87490  0.54790  0.75977  Biso   1.000  C
  C13      1.0000 0.62510  0.04790  0.74023  Biso   1.000  C
  C14      1.0000 0.12510  0.54790  0.74023  Biso   1.000  C
  C15      1.0000 0.62510  0.95210  0.24023  Biso   1.000  C
  C16      1.0000 0.12510  0.45210  0.24023  Biso   1.000  C
  H9       1.0000 0.37610  0.98590  0.28080  Biso   1.000  H
  H10      1.0000 0.87610  0.48590  0.28080  Biso   1.000  H
  H11      1.0000 0.37610  0.01410  0.78080  Biso   1.000  H
  H12      1.0000 0.87610  0.51410  0.78080  Biso   1.000  H
  H13      1.0000 0.62390  0.01410  0.71920  Biso   1.000  H
  H14      1.0000 0.12390  0.51410  0.71920  Biso   1.000  H
  H15      1.0000 0.62390  0.98590  0.21920  Biso   1.000  H
  H16      1.0000 0.12390  0.48590  0.21920  Biso   1.000  H
  C17      1.0000 0.38150  0.87820  0.26729  Biso   1.000  C
  C18      1.0000 0.88150  0.37820  0.26729  Biso   1.000  C
  C19      1.0000 0.38150  0.12180  0.76729  Biso   1.000  C
  C20      1.0000 0.88150  0.62180  0.76729  Biso   1.000  C
  C21      1.0000 0.61850  0.12180  0.73271  Biso   1.000  C
  C22      1.0000 0.11850  0.62180  0.73271  Biso   1.000  C
  C23      1.0000 0.61850  0.87820  0.23271  Biso   1.000  C
  C24      1.0000 0.11850  0.37820  0.23271  Biso   1.000  C
  H17      1.0000 0.38890  0.86040  0.29360  Biso   1.000  H
  H18      1.0000 0.88890  0.36040  0.29360  Biso   1.000  H
  H19      1.0000 0.38890  0.13960  0.79360  Biso   1.000  H
  H20      1.0000 0.88890  0.63960  0.79360  Biso   1.000  H
  H21      1.0000 0.61110  0.13960  0.70640  Biso   1.000  H
  H22      1.0000 0.11110  0.63960  0.70640  Biso   1.000  H
  H23      1.0000 0.61110  0.86040  0.20640  Biso   1.000  H
  H24      1.0000 0.11110  0.36040  0.20640  Biso   1.000  H
  C25      1.0000 0.37720  0.83050  0.23569  Biso   1.000  C
  C26      1.0000 0.87720  0.33050  0.23569  Biso   1.000  C
  C27      1.0000 0.37720  0.16950  0.73569  Biso   1.000  C
  C28      1.0000 0.87720  0.66950  0.73569  Biso   1.000  C
  C29      1.0000 0.62280  0.16950  0.76431  Biso   1.000  C
  C30      1.0000 0.12280  0.66950  0.76431  Biso   1.000  C
  C31      1.0000 0.62280  0.83050  0.26431  Biso   1.000  C
  C32      1.0000 0.12280  0.33050  0.26431  Biso   1.000  C
  H25      1.0000 0.38320  0.77970  0.24040  Biso   1.000  H
  H26      1.0000 0.88320  0.27970  0.24040  Biso   1.000  H
  H27      1.0000 0.38320  0.22030  0.74040  Biso   1.000  H
  H28      1.0000 0.88320  0.72030  0.74040  Biso   1.000  H
  H29      1.0000 0.61680  0.22030  0.75960  Biso   1.000  H
  H30      1.0000 0.11680  0.72030  0.75960  Biso   1.000  H
  H31      1.0000 0.61680  0.77970  0.25960  Biso   1.000  H
  H32      1.0000 0.11680  0.27970  0.25960  Biso   1.000  H
  C33      1.0000 0.36420  0.85690  0.19759  Biso   1.000  C
  C34      1.0000 0.86420  0.35690  0.19759  Biso   1.000  C
  C35      1.0000 0.36420  0.14310  0.69759  Biso   1.000  C
  C36      1.0000 0.86420  0.64310  0.69759  Biso   1.000  C
  C37      1.0000 0.63580  0.14310  0.80241  Biso   1.000  C
  C38      1.0000 0.13580  0.64310  0.80241  Biso   1.000  C
  C39      1.0000 0.63580  0.85690  0.30241  Biso   1.000  C
  C40      1.0000 0.13580  0.35690  0.30241  Biso   1.000  C
  C41      1.0000 0.35550  0.81250  0.16089  Biso   1.000  C
  C42      1.0000 0.85550  0.31250  0.16089  Biso   1.000  C
  C43      1.0000 0.35550  0.18750  0.66089  Biso   1.000  C
  C44      1.0000 0.85550  0.68750  0.66089  Biso   1.000  C
  C45      1.0000 0.64450  0.18750  0.83911  Biso   1.000  C
  C46      1.0000 0.14450  0.68750  0.83911  Biso   1.000  C
  C47      1.0000 0.64450  0.81250  0.33911  Biso   1.000  C
  C48      1.0000 0.14450  0.31250  0.33911  Biso   1.000  C
  C49      1.0000 0.35660  0.82740  0.09196  Biso   1.000  C
  C50      1.0000 0.85660  0.32740  0.09196  Biso   1.000  C
  C51      1.0000 0.35660  0.17260  0.59196  Biso   1.000  C
  C52      1.0000 0.85660  0.67260  0.59196  Biso   1.000  C
  C53      1.0000 0.64340  0.17260  0.90804  Biso   1.000  C
  C54      1.0000 0.14340  0.67260  0.90804  Biso   1.000  C
  C55      1.0000 0.64340  0.82740  0.40804  Biso   1.000  C
  C56      1.0000 0.14340  0.32740  0.40804  Biso   1.000  C
  C57      1.0000 0.38310  0.75360  0.08947  Biso   1.000  C
  C58      1.0000 0.88310  0.25360  0.08947  Biso   1.000  C
  C59      1.0000 0.38310  0.24640  0.58947  Biso   1.000  C
  C60      1.0000 0.88310  0.74640  0.58947  Biso   1.000  C
  C61      1.0000 0.61690  0.24640  0.91053  Biso   1.000  C
  C62      1.0000 0.11690  0.74640  0.91053  Biso   1.000  C
  C63      1.0000 0.61690  0.75360  0.41053  Biso   1.000  C
  C64      1.0000 0.11690  0.25360  0.41053  Biso   1.000  C
  C65      1.0000 0.34240  0.88570  0.06127  Biso   1.000  C
  C66      1.0000 0.84240  0.38570  0.06127  Biso   1.000  C
  C67      1.0000 0.34240  0.11430  0.56127  Biso   1.000  C
  C68      1.0000 0.84240  0.61430  0.56127  Biso   1.000  C
  C69      1.0000 0.65760  0.11430  0.93873  Biso   1.000  C
  C70      1.0000 0.15760  0.61430  0.93873  Biso   1.000  C
  C71      1.0000 0.65760  0.88570  0.43873  Biso   1.000  C
  C72      1.0000 0.15760  0.38570  0.43873  Biso   1.000  C
  C73      1.0000 0.30880  0.87620  0.02121  Biso   1.000  C
  C74      1.0000 0.80880  0.37620  0.02121  Biso   1.000  C
  C75      1.0000 0.30880  0.12380  0.52121  Biso   1.000  C
  C76      1.0000 0.80880  0.62380  0.52121  Biso   1.000  C
  C77      1.0000 0.69120  0.12380  0.97879  Biso   1.000  C
  C78      1.0000 0.19120  0.62380  0.97879  Biso   1.000  C
  C79      1.0000 0.69120  0.87620  0.47879  Biso   1.000  C
  C80      1.0000 0.19120  0.37620  0.47879  Biso   1.000  C
  H33      1.0000 0.28570  0.83000  0.01080  Biso   1.000  H
  H34      1.0000 0.78570  0.33000  0.01080  Biso   1.000  H
  H35      1.0000 0.28570  0.17000  0.51080  Biso   1.000  H
  H36      1.0000 0.78570  0.67000  0.51080  Biso   1.000  H
  H37      1.0000 0.71430  0.17000  0.98920  Biso   1.000  H
  H38      1.0000 0.21430  0.67000  0.98920  Biso   1.000  H
  H39      1.0000 0.71430  0.83000  0.48920  Biso   1.000  H
  H40      1.0000 0.21430  0.33000  0.48920  Biso   1.000  H
  C81      1.0000 0.30930  0.93560  0.99617  Biso   1.000  C
  C82      1.0000 0.80930  0.43560  0.99617  Biso   1.000  C
  C83      1.0000 0.30930  0.06440  0.49617  Biso   1.000  C
  C84      1.0000 0.80930  0.56440  0.49617  Biso   1.000  C
  C85      1.0000 0.69070  0.06440  0.00383  Biso   1.000  C
  C86      1.0000 0.19070  0.56440  0.00383  Biso   1.000  C
  C87      1.0000 0.69070  0.93560  0.50383  Biso   1.000  C
  C88      1.0000 0.19070  0.43560  0.50383  Biso   1.000  C
  H41      1.0000 0.28850  0.92980  0.96830  Biso   1.000  H
  H42      1.0000 0.78850  0.42980  0.96830  Biso   1.000  H
  H43      1.0000 0.28850  0.07020  0.46830  Biso   1.000  H
  H44      1.0000 0.78850  0.57020  0.46830  Biso   1.000  H
  H45      1.0000 0.71150  0.07020  0.03170  Biso   1.000  H
  H46      1.0000 0.21150  0.57020  0.03170  Biso   1.000  H
  H47      1.0000 0.71150  0.92980  0.53170  Biso   1.000  H
  H48      1.0000 0.21150  0.42980  0.53170  Biso   1.000  H
  C89      1.0000 0.34010  0.00310  0.01192  Biso   1.000  C
  C90      1.0000 0.84010  0.50310  0.01192  Biso   1.000  C
  C91      1.0000 0.34010  0.99690  0.51192  Biso   1.000  C
  C92      1.0000 0.84010  0.49690  0.51192  Biso   1.000  C
  C93      1.0000 0.65990  0.99690  0.98808  Biso   1.000  C
  C94      1.0000 0.15990  0.49690  0.98808  Biso   1.000  C
  C95      1.0000 0.65990  0.00310  0.48808  Biso   1.000  C
  C96      1.0000 0.15990  0.50310  0.48808  Biso   1.000  C
  H49      1.0000 0.34530  0.04350  0.99520  Biso   1.000  H
  H50      1.0000 0.84530  0.54350  0.99520  Biso   1.000  H
  H51      1.0000 0.34530  0.95650  0.49520  Biso   1.000  H
  H52      1.0000 0.84530  0.45650  0.49520  Biso   1.000  H
  H53      1.0000 0.65470  0.95650  0.00480  Biso   1.000  H
  H54      1.0000 0.15470  0.45650  0.00480  Biso   1.000  H
  H55      1.0000 0.65470  0.04350  0.50480  Biso   1.000  H
  H56      1.0000 0.15470  0.54350  0.50480  Biso   1.000  H
  C97      1.0000 0.36290  0.00980  0.05263  Biso   1.000  C
  C98      1.0000 0.86290  0.50980  0.05263  Biso   1.000  C
  C99      1.0000 0.36290  0.99020  0.55263  Biso   1.000  C
  C100     1.0000 0.86290  0.49020  0.55263  Biso   1.000  C
  C101     1.0000 0.63710  0.99020  0.94737  Biso   1.000  C
  C102     1.0000 0.13710  0.49020  0.94737  Biso   1.000  C
  C103     1.0000 0.63710  0.00980  0.44737  Biso   1.000  C
  C104     1.0000 0.13710  0.50980  0.44737  Biso   1.000  C
  H57      1.0000 0.37900  0.05660  0.06380  Biso   1.000  H
  H58      1.0000 0.87900  0.55660  0.06380  Biso   1.000  H
  H59      1.0000 0.37900  0.94340  0.56380  Biso   1.000  H
  H60      1.0000 0.87900  0.44340  0.56380  Biso   1.000  H
  H61      1.0000 0.62100  0.94340  0.93620  Biso   1.000  H
  H62      1.0000 0.12100  0.44340  0.93620  Biso   1.000  H
  H63      1.0000 0.62100  0.05660  0.43620  Biso   1.000  H
  H64      1.0000 0.12100  0.55660  0.43620  Biso   1.000  H
  C105     1.0000 0.45230  0.59330  0.03814  Biso   1.000  C
  C106     1.0000 0.95230  0.09330  0.03814  Biso   1.000  C
  C107     1.0000 0.45230  0.40670  0.53814  Biso   1.000  C
  C108     1.0000 0.95230  0.90670  0.53814  Biso   1.000  C
  C109     1.0000 0.54770  0.40670  0.96186  Biso   1.000  C
  C110     1.0000 0.04770  0.90670  0.96186  Biso   1.000  C
  C111     1.0000 0.54770  0.59330  0.46186  Biso   1.000  C
  C112     1.0000 0.04770  0.09330  0.46186  Biso   1.000  C
  H65      1.0000 0.45660  0.54280  0.04390  Biso   1.000  H
  H66      1.0000 0.95660  0.04280  0.04390  Biso   1.000  H
  H67      1.0000 0.45660  0.45720  0.54390  Biso   1.000  H
  H68      1.0000 0.95660  0.95720  0.54390  Biso   1.000  H
  H69      1.0000 0.54340  0.45720  0.95610  Biso   1.000  H
  H70      1.0000 0.04340  0.95720  0.95610  Biso   1.000  H
  H71      1.0000 0.54340  0.54280  0.45610  Biso   1.000  H
  H72      1.0000 0.04340  0.04280  0.45610  Biso   1.000  H
  C113     1.0000 0.47580  0.61730  0.00259  Biso   1.000  C
  C114     1.0000 0.97580  0.11730  0.00259  Biso   1.000  C
  C115     1.0000 0.47580  0.38270  0.50259  Biso   1.000  C
  C116     1.0000 0.97580  0.88270  0.50259  Biso   1.000  C
  C117     1.0000 0.52420  0.38270  0.99741  Biso   1.000  C
  C118     1.0000 0.02420  0.88270  0.99741  Biso   1.000  C
  C119     1.0000 0.52420  0.61730  0.49741  Biso   1.000  C
  C120     1.0000 0.02420  0.11730  0.49741  Biso   1.000  C
  H73      1.0000 0.49200  0.58380  0.98350  Biso   1.000  H
  H74      1.0000 0.99200  0.08380  0.98350  Biso   1.000  H
  H75      1.0000 0.49200  0.41620  0.48350  Biso   1.000  H
  H76      1.0000 0.99200  0.91620  0.48350  Biso   1.000  H
  H77      1.0000 0.50800  0.41620  0.01650  Biso   1.000  H
  H78      1.0000 0.00800  0.91620  0.01650  Biso   1.000  H
  H79      1.0000 0.50800  0.58380  0.51650  Biso   1.000  H
  H80      1.0000 0.00800  0.08380  0.51650  Biso   1.000  H
  C121     1.0000 0.47500  0.69060  0.99555  Biso   1.000  C
  C122     1.0000 0.97500  0.19060  0.99555  Biso   1.000  C
  C123     1.0000 0.47500  0.30940  0.49555  Biso   1.000  C
  C124     1.0000 0.97500  0.80940  0.49555  Biso   1.000  C
  C125     1.0000 0.52500  0.30940  0.00445  Biso   1.000  C
  C126     1.0000 0.02500  0.80940  0.00445  Biso   1.000  C
  C127     1.0000 0.52500  0.69060  0.50445  Biso   1.000  C
  C128     1.0000 0.02500  0.19060  0.50445  Biso   1.000  C
  H81      1.0000 0.49360  0.70860  0.97180  Biso   1.000  H
  H82      1.0000 0.99360  0.20860  0.97180  Biso   1.000  H
  H83      1.0000 0.49360  0.29140  0.47180  Biso   1.000  H
  H84      1.0000 0.99360  0.79140  0.47180  Biso   1.000  H
  H85      1.0000 0.50640  0.29140  0.02820  Biso   1.000  H
  H86      1.0000 0.00640  0.79140  0.02820  Biso   1.000  H
  H87      1.0000 0.50640  0.70860  0.52820  Biso   1.000  H
  H88      1.0000 0.00640  0.20860  0.52820  Biso   1.000  H
  C129     1.0000 0.44680  0.73880  0.02329  Biso   1.000  C
  C130     1.0000 0.94680  0.23880  0.02329  Biso   1.000  C
  C131     1.0000 0.44680  0.26120  0.52329  Biso   1.000  C
  C132     1.0000 0.94680  0.76120  0.52329  Biso   1.000  C
  C133     1.0000 0.55320  0.26120  0.97671  Biso   1.000  C
  C134     1.0000 0.05320  0.76120  0.97671  Biso   1.000  C
  C135     1.0000 0.55320  0.73880  0.47671  Biso   1.000  C
  C136     1.0000 0.05320  0.23880  0.47671  Biso   1.000  C
  H89      1.0000 0.44760  0.78970  0.01900  Biso   1.000  H
  H90      1.0000 0.94760  0.28970  0.01900  Biso   1.000  H
  H91      1.0000 0.44760  0.21030  0.51900  Biso   1.000  H
  H92      1.0000 0.94760  0.71030  0.51900  Biso   1.000  H
  H93      1.0000 0.55240  0.21030  0.98100  Biso   1.000  H
  H94      1.0000 0.05240  0.71030  0.98100  Biso   1.000  H
  H95      1.0000 0.55240  0.78970  0.48100  Biso   1.000  H
  H96      1.0000 0.05240  0.28970  0.48100  Biso   1.000  H
  C137     1.0000 0.41750  0.71070  0.05744  Biso   1.000  C
  C138     1.0000 0.91750  0.21070  0.05744  Biso   1.000  C
  C139     1.0000 0.41750  0.28930  0.55744  Biso   1.000  C
  C140     1.0000 0.91750  0.78930  0.55744  Biso   1.000  C
  C141     1.0000 0.58250  0.28930  0.94256  Biso   1.000  C
  C142     1.0000 0.08250  0.78930  0.94256  Biso   1.000  C
  C143     1.0000 0.58250  0.71070  0.44256  Biso   1.000  C
  C144     1.0000 0.08250  0.21070  0.44256  Biso   1.000  C
  C145     1.0000 0.35860  0.73690  0.15595  Biso   1.000  C
  C146     1.0000 0.85860  0.23690  0.15595  Biso   1.000  C
  C147     1.0000 0.35860  0.26310  0.65595  Biso   1.000  C
  C148     1.0000 0.85860  0.76310  0.65595  Biso   1.000  C
  C149     1.0000 0.64140  0.26310  0.84405  Biso   1.000  C
  C150     1.0000 0.14140  0.76310  0.84405  Biso   1.000  C
  C151     1.0000 0.64140  0.73690  0.34405  Biso   1.000  C
  C152     1.0000 0.14140  0.23690  0.34405  Biso   1.000  C
  C153     1.0000 0.34500  0.67670  0.18338  Biso   1.000  C
  C154     1.0000 0.84500  0.17670  0.18338  Biso   1.000  C
  C155     1.0000 0.34500  0.32330  0.68338  Biso   1.000  C
  C156     1.0000 0.84500  0.82330  0.68338  Biso   1.000  C
  C157     1.0000 0.65500  0.32330  0.81662  Biso   1.000  C
  C158     1.0000 0.15500  0.82330  0.81662  Biso   1.000  C
  C159     1.0000 0.65500  0.67670  0.31662  Biso   1.000  C
  C160     1.0000 0.15500  0.17670  0.31662  Biso   1.000  C
  C161     1.0000 0.28290  0.67960  0.21229  Biso   1.000  C
  C162     1.0000 0.78290  0.17960  0.21229  Biso   1.000  C
  C163     1.0000 0.28290  0.32040  0.71229  Biso   1.000  C
  C164     1.0000 0.78290  0.82040  0.71229  Biso   1.000  C
  C165     1.0000 0.71710  0.32040  0.78771  Biso   1.000  C
  C166     1.0000 0.21710  0.82040  0.78771  Biso   1.000  C
  C167     1.0000 0.71710  0.67960  0.28771  Biso   1.000  C
  C168     1.0000 0.21710  0.17960  0.28771  Biso   1.000  C
  H97      1.0000 0.24290  0.72190  0.21550  Biso   1.000  H
  H98      1.0000 0.74290  0.22190  0.21550  Biso   1.000  H
  H99      1.0000 0.24290  0.27810  0.71550  Biso   1.000  H
  H100     1.0000 0.74290  0.77810  0.71550  Biso   1.000  H
  H101     1.0000 0.75710  0.27810  0.78450  Biso   1.000  H
  H102     1.0000 0.25710  0.77810  0.78450  Biso   1.000  H
  H103     1.0000 0.75710  0.72190  0.28450  Biso   1.000  H
  H104     1.0000 0.25710  0.22190  0.28450  Biso   1.000  H
  C169     1.0000 0.28030  0.61940  0.23664  Biso   1.000  C
  C170     1.0000 0.78030  0.11940  0.23664  Biso   1.000  C
  C171     1.0000 0.28030  0.38060  0.73664  Biso   1.000  C
  C172     1.0000 0.78030  0.88060  0.73664  Biso   1.000  C
  C173     1.0000 0.71970  0.38060  0.76336  Biso   1.000  C
  C174     1.0000 0.21970  0.88060  0.76336  Biso   1.000  C
  C175     1.0000 0.71970  0.61940  0.26336  Biso   1.000  C
  C176     1.0000 0.21970  0.11940  0.26336  Biso   1.000  C
  H105     1.0000 0.23910  0.62030  0.25700  Biso   1.000  H
  H106     1.0000 0.73910  0.12030  0.25700  Biso   1.000  H
  H107     1.0000 0.23910  0.37970  0.75700  Biso   1.000  H
  H108     1.0000 0.73910  0.87970  0.75700  Biso   1.000  H
  H109     1.0000 0.76090  0.37970  0.74300  Biso   1.000  H
  H110     1.0000 0.26090  0.87970  0.74300  Biso   1.000  H
  H111     1.0000 0.76090  0.62030  0.24300  Biso   1.000  H
  H112     1.0000 0.26090  0.12030  0.24300  Biso   1.000  H
  C177     1.0000 0.33820  0.55840  0.23093  Biso   1.000  C
  C178     1.0000 0.83820  0.05840  0.23093  Biso   1.000  C
  C179     1.0000 0.33820  0.44160  0.73093  Biso   1.000  C
  C180     1.0000 0.83820  0.94160  0.73093  Biso   1.000  C
  C181     1.0000 0.66180  0.44160  0.76907  Biso   1.000  C
  C182     1.0000 0.16180  0.94160  0.76907  Biso   1.000  C
  C183     1.0000 0.66180  0.55840  0.26907  Biso   1.000  C
  C184     1.0000 0.16180  0.05840  0.26907  Biso   1.000  C
  H113     1.0000 0.34240  0.51840  0.24860  Biso   1.000  H
  H114     1.0000 0.84240  0.01840  0.24860  Biso   1.000  H
  H115     1.0000 0.34240  0.48160  0.74860  Biso   1.000  H
  H116     1.0000 0.84240  0.98160  0.74860  Biso   1.000  H
  H117     1.0000 0.65760  0.48160  0.75140  Biso   1.000  H
  H118     1.0000 0.15760  0.98160  0.75140  Biso   1.000  H
  H119     1.0000 0.65760  0.51840  0.25140  Biso   1.000  H
  H120     1.0000 0.15760  0.01840  0.25140  Biso   1.000  H
  C185     1.0000 0.39000  0.55660  0.19887  Biso   1.000  C
  C186     1.0000 0.89000  0.05660  0.19887  Biso   1.000  C
  C187     1.0000 0.39000  0.44340  0.69887  Biso   1.000  C
  C188     1.0000 0.89000  0.94340  0.69887  Biso   1.000  C
  C189     1.0000 0.61000  0.44340  0.80113  Biso   1.000  C
  C190     1.0000 0.11000  0.94340  0.80113  Biso   1.000  C
  C191     1.0000 0.61000  0.55660  0.30113  Biso   1.000  C
  C192     1.0000 0.11000  0.05660  0.30113  Biso   1.000  C
  H121     1.0000 0.42440  0.51300  0.19340  Biso   1.000  H
  H122     1.0000 0.92440  0.01300  0.19340  Biso   1.000  H
  H123     1.0000 0.42440  0.48700  0.69340  Biso   1.000  H
  H124     1.0000 0.92440  0.98700  0.69340  Biso   1.000  H
  H125     1.0000 0.57560  0.48700  0.80660  Biso   1.000  H
  H126     1.0000 0.07560  0.98700  0.80660  Biso   1.000  H
  H127     1.0000 0.57560  0.51300  0.30660  Biso   1.000  H
  H128     1.0000 0.07560  0.01300  0.30660  Biso   1.000  H
  C193     1.0000 0.40290  0.31790  0.23239  Biso   1.000  C
  C194     1.0000 0.90290  0.81790  0.23239  Biso   1.000  C
  C195     1.0000 0.40290  0.68210  0.73239  Biso   1.000  C
  C196     1.0000 0.90290  0.18210  0.73239  Biso   1.000  C
  C197     1.0000 0.59710  0.68210  0.76761  Biso   1.000  C
  C198     1.0000 0.09710  0.18210  0.76761  Biso   1.000  C
  C199     1.0000 0.59710  0.31790  0.26761  Biso   1.000  C
  C200     1.0000 0.09710  0.81790  0.26761  Biso   1.000  C
  H129     1.0000 0.33390  0.32450  0.24090  Biso   1.000  H
  H130     1.0000 0.83390  0.82450  0.24090  Biso   1.000  H
  H131     1.0000 0.33390  0.67550  0.74090  Biso   1.000  H
  H132     1.0000 0.83390  0.17550  0.74090  Biso   1.000  H
  H133     1.0000 0.66610  0.67550  0.75910  Biso   1.000  H
  H134     1.0000 0.16610  0.17550  0.75910  Biso   1.000  H
  H135     1.0000 0.66610  0.32450  0.25910  Biso   1.000  H
  H136     1.0000 0.16610  0.82450  0.25910  Biso   1.000  H
  H137     1.0000 0.42330  0.26670  0.23850  Biso   1.000  H
  H138     1.0000 0.92330  0.76670  0.23850  Biso   1.000  H
  H139     1.0000 0.42330  0.73330  0.73850  Biso   1.000  H
  H140     1.0000 0.92330  0.23330  0.73850  Biso   1.000  H
  H141     1.0000 0.57670  0.73330  0.76150  Biso   1.000  H
  H142     1.0000 0.07670  0.23330  0.76150  Biso   1.000  H
  H143     1.0000 0.57670  0.26670  0.26150  Biso   1.000  H
  H144     1.0000 0.07670  0.76670  0.26150  Biso   1.000  H
  C201     1.0000 0.47170  0.35690  0.25840  Biso   1.000  C
  C202     1.0000 0.97170  0.85690  0.25840  Biso   1.000  C
  C203     1.0000 0.47170  0.64310  0.75840  Biso   1.000  C
  C204     1.0000 0.97170  0.14310  0.75840  Biso   1.000  C
  C205     1.0000 0.52830  0.64310  0.74160  Biso   1.000  C
  C206     1.0000 0.02830  0.14310  0.74160  Biso   1.000  C
  C207     1.0000 0.52830  0.35690  0.24160  Biso   1.000  C
  C208     1.0000 0.02830  0.85690  0.24160  Biso   1.000  C
  H145     1.0000 0.44490  0.36090  0.28360  Biso   1.000  H
  H146     1.0000 0.94490  0.86090  0.28360  Biso   1.000  H
  H147     1.0000 0.44490  0.63910  0.78360  Biso   1.000  H
  H148     1.0000 0.94490  0.13910  0.78360  Biso   1.000  H
  H149     1.0000 0.55510  0.63910  0.71640  Biso   1.000  H
  H150     1.0000 0.05510  0.13910  0.71640  Biso   1.000  H
  H151     1.0000 0.55510  0.36090  0.21640  Biso   1.000  H
  H152     1.0000 0.05510  0.86090  0.21640  Biso   1.000  H
  H153     1.0000 0.47660  0.40650  0.24780  Biso   1.000  H
  H154     1.0000 0.97660  0.90650  0.24780  Biso   1.000  H
  H155     1.0000 0.47660  0.59350  0.74780  Biso   1.000  H
  H156     1.0000 0.97660  0.09350  0.74780  Biso   1.000  H
  H157     1.0000 0.52340  0.59350  0.75220  Biso   1.000  H
  H158     1.0000 0.02340  0.09350  0.75220  Biso   1.000  H
  H159     1.0000 0.52340  0.40650  0.25220  Biso   1.000  H
  H160     1.0000 0.02340  0.90650  0.25220  Biso   1.000  H
  C209     1.0000 0.22860  0.22150  0.03244  Biso   1.000  C
  C210     1.0000 0.72860  0.72150  0.03244  Biso   1.000  C
  C211     1.0000 0.22860  0.77850  0.53244  Biso   1.000  C
  C212     1.0000 0.72860  0.27850  0.53244  Biso   1.000  C
  C213     1.0000 0.77140  0.77850  0.96756  Biso   1.000  C
  C214     1.0000 0.27140  0.27850  0.96756  Biso   1.000  C
  C215     1.0000 0.77140  0.22150  0.46756  Biso   1.000  C
  C216     1.0000 0.27140  0.72150  0.46756  Biso   1.000  C
  H161     1.0000 0.19400  0.18650  0.03600  Biso   1.000  H
  H162     1.0000 0.69400  0.68650  0.03600  Biso   1.000  H
  H163     1.0000 0.19400  0.81350  0.53600  Biso   1.000  H
  H164     1.0000 0.69400  0.31350  0.53600  Biso   1.000  H
  H165     1.0000 0.80600  0.81350  0.96400  Biso   1.000  H
  H166     1.0000 0.30600  0.31350  0.96400  Biso   1.000  H
  H167     1.0000 0.80600  0.18650  0.46400  Biso   1.000  H
  H168     1.0000 0.30600  0.68650  0.46400  Biso   1.000  H
  H169     1.0000 0.18820  0.25480  0.02710  Biso   1.000  H
  H170     1.0000 0.68820  0.75480  0.02710  Biso   1.000  H
  H171     1.0000 0.18820  0.74520  0.52710  Biso   1.000  H
  H172     1.0000 0.68820  0.24520  0.52710  Biso   1.000  H
  H173     1.0000 0.81180  0.74520  0.97290  Biso   1.000  H
  H174     1.0000 0.31180  0.24520  0.97290  Biso   1.000  H
  H175     1.0000 0.81180  0.25480  0.47290  Biso   1.000  H
  H176     1.0000 0.31180  0.75480  0.47290  Biso   1.000  H
  C217     1.0000 0.27900  0.20660  0.99670  Biso   1.000  C
  C218     1.0000 0.77900  0.70660  0.99670  Biso   1.000  C
  C219     1.0000 0.27900  0.79340  0.49670  Biso   1.000  C
  C220     1.0000 0.77900  0.29340  0.49670  Biso   1.000  C
  C221     1.0000 0.72100  0.79340  0.00330  Biso   1.000  C
  C222     1.0000 0.22100  0.29340  0.00330  Biso   1.000  C
  C223     1.0000 0.72100  0.20660  0.50330  Biso   1.000  C
  C224     1.0000 0.22100  0.70660  0.50330  Biso   1.000  C
  H177     1.0000 0.24270  0.16510  0.98160  Biso   1.000  H
  H178     1.0000 0.74270  0.66510  0.98160  Biso   1.000  H
  H179     1.0000 0.24270  0.83490  0.48160  Biso   1.000  H
  H180     1.0000 0.74270  0.33490  0.48160  Biso   1.000  H
  H181     1.0000 0.75730  0.83490  0.01840  Biso   1.000  H
  H182     1.0000 0.25730  0.33490  0.01840  Biso   1.000  H
  H183     1.0000 0.75730  0.16510  0.51840  Biso   1.000  H
  H184     1.0000 0.25730  0.66510  0.51840  Biso   1.000  H
  H185     1.0000 0.35430  0.19320  0.00560  Biso   1.000  H
  H186     1.0000 0.85430  0.69320  0.00560  Biso   1.000  H
  H187     1.0000 0.35430  0.80680  0.50560  Biso   1.000  H
  H188     1.0000 0.85430  0.30680  0.50560  Biso   1.000  H
  H189     1.0000 0.64570  0.80680  0.99440  Biso   1.000  H
  H190     1.0000 0.14570  0.30680  0.99440  Biso   1.000  H
  H191     1.0000 0.64570  0.19320  0.49440  Biso   1.000  H
  H192     1.0000 0.14570  0.69320  0.49440  Biso   1.000  H
