data_image0
_cell_length_a       26.808
_cell_length_b       47.57
_cell_length_c       10.818
_cell_angle_alpha    90
_cell_angle_beta     90
_cell_angle_gamma    90

_symmetry_space_group_name_H-M    "P 1"
_symmetry_int_tables_number       1

loop_
  _symmetry_equiv_pos_as_xyz
  'x, y, z'

loop_
  _atom_site_label
  _atom_site_occupancy
  _atom_site_fract_x
  _atom_site_fract_y
  _atom_site_fract_z
  _atom_site_thermal_displace_type
  _atom_site_B_iso_or_equiv
  _atom_site_type_symbol
  Cu1      1.0000 0.25000  0.25000  0.00000  Biso   1.000  Cu
  Cu2      1.0000 0.75000  0.75000  0.00000  Biso   1.000  Cu
  Cu3      1.0000 0.25000  0.75000  0.00000  Biso   1.000  Cu
  Cu4      1.0000 0.75000  0.25000  0.50000  Biso   1.000  Cu
  Cu5      1.0000 0.25000  0.25000  0.50000  Biso   1.000  Cu
  Cu6      1.0000 0.75000  0.25000  0.00000  Biso   1.000  Cu
  Cu7      1.0000 0.25000  0.75000  0.50000  Biso   1.000  Cu
  Cu8      1.0000 0.75000  0.75000  0.50000  Biso   1.000  Cu
  Cu9      1.0000 0.00000  0.00000  0.00000  Biso   1.000  Cu
  Cu10     1.0000 0.50000  0.50000  0.00000  Biso   1.000  Cu
  Cu11     1.0000 0.00000  0.50000  0.00000  Biso   1.000  Cu
  Cu12     1.0000 0.00000  0.00000  0.50000  Biso   1.000  Cu
  Cu13     1.0000 0.00000  0.50000  0.50000  Biso   1.000  Cu
  Cu14     1.0000 0.50000  0.00000  0.00000  Biso   1.000  Cu
  Cu15     1.0000 0.50000  0.50000  0.50000  Biso   1.000  Cu
  Cu16     1.0000 0.50000  0.00000  0.50000  Biso   1.000  Cu
  P1       1.0000 0.17175  0.29859  0.02150  Biso   1.000  P
  P2       1.0000 0.67175  0.79859  0.02150  Biso   1.000  P
  P3       1.0000 0.17175  0.79859  0.97850  Biso   1.000  P
  P4       1.0000 0.82825  0.29859  0.52150  Biso   1.000  P
  P5       1.0000 0.17175  0.20141  0.52150  Biso   1.000  P
  P6       1.0000 0.67175  0.29859  0.97850  Biso   1.000  P
  P7       1.0000 0.32825  0.79859  0.52150  Biso   1.000  P
  P8       1.0000 0.67175  0.70141  0.52150  Biso   1.000  P
  P9       1.0000 0.82825  0.70141  0.97850  Biso   1.000  P
  P10      1.0000 0.32825  0.20141  0.97850  Biso   1.000  P
  P11      1.0000 0.82825  0.20141  0.02150  Biso   1.000  P
  P12      1.0000 0.17175  0.70141  0.47850  Biso   1.000  P
  P13      1.0000 0.82825  0.79859  0.47850  Biso   1.000  P
  P14      1.0000 0.32825  0.70141  0.02150  Biso   1.000  P
  P15      1.0000 0.67175  0.20141  0.47850  Biso   1.000  P
  P16      1.0000 0.32825  0.29859  0.47850  Biso   1.000  P
  P17      1.0000 0.07824  0.04870  0.00380  Biso   1.000  P
  P18      1.0000 0.57824  0.54870  0.00380  Biso   1.000  P
  P19      1.0000 0.07824  0.54870  0.99620  Biso   1.000  P
  P20      1.0000 0.92176  0.04870  0.50380  Biso   1.000  P
  P21      1.0000 0.07824  0.45130  0.50380  Biso   1.000  P
  P22      1.0000 0.57824  0.04870  0.99620  Biso   1.000  P
  P23      1.0000 0.42176  0.54870  0.50380  Biso   1.000  P
  P24      1.0000 0.57824  0.95130  0.50380  Biso   1.000  P
  P25      1.0000 0.92176  0.95130  0.99620  Biso   1.000  P
  P26      1.0000 0.42176  0.45130  0.99620  Biso   1.000  P
  P27      1.0000 0.92176  0.45130  0.00380  Biso   1.000  P
  P28      1.0000 0.07824  0.95130  0.49620  Biso   1.000  P
  P29      1.0000 0.92176  0.54870  0.49620  Biso   1.000  P
  P30      1.0000 0.42176  0.95130  0.00380  Biso   1.000  P
  P31      1.0000 0.57824  0.45130  0.49620  Biso   1.000  P
  P32      1.0000 0.42176  0.04870  0.49620  Biso   1.000  P
  N1       1.0000 0.18950  0.22676  0.03510  Biso   1.000  N
  N2       1.0000 0.68950  0.72676  0.03510  Biso   1.000  N
  N3       1.0000 0.18950  0.72676  0.96490  Biso   1.000  N
  N4       1.0000 0.81050  0.22676  0.53510  Biso   1.000  N
  N5       1.0000 0.18950  0.27324  0.53510  Biso   1.000  N
  N6       1.0000 0.68950  0.22676  0.96490  Biso   1.000  N
  N7       1.0000 0.31050  0.72676  0.53510  Biso   1.000  N
  N8       1.0000 0.68950  0.77324  0.53510  Biso   1.000  N
  N9       1.0000 0.81050  0.77324  0.96490  Biso   1.000  N
  N10      1.0000 0.31050  0.27324  0.96490  Biso   1.000  N
  N11      1.0000 0.81050  0.27324  0.03510  Biso   1.000  N
  N12      1.0000 0.18950  0.77324  0.46490  Biso   1.000  N
  N13      1.0000 0.81050  0.72676  0.46490  Biso   1.000  N
  N14      1.0000 0.31050  0.77324  0.03510  Biso   1.000  N
  N15      1.0000 0.68950  0.27324  0.46490  Biso   1.000  N
  N16      1.0000 0.31050  0.22676  0.46490  Biso   1.000  N
  O1       1.0000 0.20950  0.28238  0.95350  Biso   1.000  O
  O2       1.0000 0.70950  0.78238  0.95350  Biso   1.000  O
  O3       1.0000 0.20950  0.78238  0.04650  Biso   1.000  O
  O4       1.0000 0.79050  0.28238  0.45350  Biso   1.000  O
  O5       1.0000 0.20950  0.21762  0.45350  Biso   1.000  O
  O6       1.0000 0.70950  0.28238  0.04650  Biso   1.000  O
  O7       1.0000 0.29050  0.78238  0.45350  Biso   1.000  O
  O8       1.0000 0.70950  0.71762  0.45350  Biso   1.000  O
  O9       1.0000 0.79050  0.71762  0.04650  Biso   1.000  O
  O10      1.0000 0.29050  0.21762  0.04650  Biso   1.000  O
  O11      1.0000 0.79050  0.21762  0.95350  Biso   1.000  O
  O12      1.0000 0.20950  0.71762  0.54650  Biso   1.000  O
  O13      1.0000 0.79050  0.78238  0.54650  Biso   1.000  O
  O14      1.0000 0.29050  0.71762  0.95350  Biso   1.000  O
  O15      1.0000 0.70950  0.21762  0.54650  Biso   1.000  O
  O16      1.0000 0.29050  0.28238  0.54650  Biso   1.000  O
  O17      1.0000 0.17500  0.29788  0.16050  Biso   1.000  O
  O18      1.0000 0.67500  0.79788  0.16050  Biso   1.000  O
  O19      1.0000 0.17500  0.79788  0.83950  Biso   1.000  O
  O20      1.0000 0.82500  0.29788  0.66050  Biso   1.000  O
  O21      1.0000 0.17500  0.20212  0.66050  Biso   1.000  O
  O22      1.0000 0.67500  0.29788  0.83950  Biso   1.000  O
  O23      1.0000 0.32500  0.79788  0.66050  Biso   1.000  O
  O24      1.0000 0.67500  0.70212  0.66050  Biso   1.000  O
  O25      1.0000 0.82500  0.70212  0.83950  Biso   1.000  O
  O26      1.0000 0.32500  0.20212  0.83950  Biso   1.000  O
  O27      1.0000 0.82500  0.20212  0.16050  Biso   1.000  O
  O28      1.0000 0.17500  0.70212  0.33950  Biso   1.000  O
  O29      1.0000 0.82500  0.79788  0.33950  Biso   1.000  O
  O30      1.0000 0.32500  0.70212  0.16050  Biso   1.000  O
  O31      1.0000 0.67500  0.20212  0.33950  Biso   1.000  O
  O32      1.0000 0.32500  0.29788  0.33950  Biso   1.000  O
  O33      1.0000 0.11891  0.28778  0.97760  Biso   1.000  O
  O34      1.0000 0.61891  0.78778  0.97760  Biso   1.000  O
  O35      1.0000 0.11891  0.78778  0.02240  Biso   1.000  O
  O36      1.0000 0.88109  0.28778  0.47760  Biso   1.000  O
  O37      1.0000 0.11891  0.21222  0.47760  Biso   1.000  O
  O38      1.0000 0.61891  0.28778  0.02240  Biso   1.000  O
  O39      1.0000 0.38109  0.78778  0.47760  Biso   1.000  O
  O40      1.0000 0.61891  0.71222  0.47760  Biso   1.000  O
  O41      1.0000 0.88109  0.71222  0.02240  Biso   1.000  O
  O42      1.0000 0.38109  0.21222  0.02240  Biso   1.000  O
  O43      1.0000 0.88109  0.21222  0.97760  Biso   1.000  O
  O44      1.0000 0.11891  0.71222  0.52240  Biso   1.000  O
  O45      1.0000 0.88109  0.78778  0.52240  Biso   1.000  O
  O46      1.0000 0.38109  0.71222  0.97760  Biso   1.000  O
  O47      1.0000 0.61891  0.21222  0.52240  Biso   1.000  O
  O48      1.0000 0.38109  0.28778  0.52240  Biso   1.000  O
  O49      1.0000 0.17070  0.32995  0.97450  Biso   1.000  O
  O50      1.0000 0.67070  0.82995  0.97450  Biso   1.000  O
  O51      1.0000 0.17070  0.82995  0.02550  Biso   1.000  O
  O52      1.0000 0.82930  0.32995  0.47450  Biso   1.000  O
  O53      1.0000 0.17070  0.17005  0.47450  Biso   1.000  O
  O54      1.0000 0.67070  0.32995  0.02550  Biso   1.000  O
  O55      1.0000 0.32930  0.82995  0.47450  Biso   1.000  O
  O56      1.0000 0.67070  0.67005  0.47450  Biso   1.000  O
  O57      1.0000 0.82930  0.67005  0.02550  Biso   1.000  O
  O58      1.0000 0.32930  0.17005  0.02550  Biso   1.000  O
  O59      1.0000 0.82930  0.17005  0.97450  Biso   1.000  O
  O60      1.0000 0.17070  0.67005  0.52550  Biso   1.000  O
  O61      1.0000 0.82930  0.82995  0.52550  Biso   1.000  O
  O62      1.0000 0.32930  0.67005  0.97450  Biso   1.000  O
  O63      1.0000 0.67070  0.17005  0.52550  Biso   1.000  O
  O64      1.0000 0.32930  0.32995  0.52550  Biso   1.000  O
  O65      1.0000 0.25000  0.26771  0.25000  Biso   1.000  O
  O66      1.0000 0.75000  0.76771  0.25000  Biso   1.000  O
  O67      1.0000 0.25000  0.76771  0.75000  Biso   1.000  O
  O68      1.0000 0.75000  0.26771  0.75000  Biso   1.000  O
  O69      1.0000 0.25000  0.23229  0.75000  Biso   1.000  O
  O70      1.0000 0.75000  0.73229  0.75000  Biso   1.000  O
  O71      1.0000 0.75000  0.23229  0.25000  Biso   1.000  O
  O72      1.0000 0.25000  0.73229  0.25000  Biso   1.000  O
  O73      1.0000 0.04290  0.03251  0.00050  Biso   1.000  O
  O74      1.0000 0.54290  0.53251  0.00050  Biso   1.000  O
  O75      1.0000 0.04290  0.53251  0.99950  Biso   1.000  O
  O76      1.0000 0.95710  0.03251  0.50050  Biso   1.000  O
  O77      1.0000 0.04290  0.46749  0.50050  Biso   1.000  O
  O78      1.0000 0.54290  0.03251  0.99950  Biso   1.000  O
  O79      1.0000 0.45710  0.53251  0.50050  Biso   1.000  O
  O80      1.0000 0.54290  0.96749  0.50050  Biso   1.000  O
  O81      1.0000 0.95710  0.96749  0.99950  Biso   1.000  O
  O82      1.0000 0.45710  0.46749  0.99950  Biso   1.000  O
  O83      1.0000 0.95710  0.46749  0.00050  Biso   1.000  O
  O84      1.0000 0.04290  0.96749  0.49950  Biso   1.000  O
  O85      1.0000 0.95710  0.53251  0.49950  Biso   1.000  O
  O86      1.0000 0.45710  0.96749  0.00050  Biso   1.000  O
  O87      1.0000 0.54290  0.46749  0.49950  Biso   1.000  O
  O88      1.0000 0.45710  0.03251  0.49950  Biso   1.000  O
  O89      1.0000 0.07850  0.04840  0.17900  Biso   1.000  O
  O90      1.0000 0.57850  0.54840  0.17900  Biso   1.000  O
  O91      1.0000 0.07850  0.54840  0.82100  Biso   1.000  O
  O92      1.0000 0.92150  0.04840  0.67900  Biso   1.000  O
  O93      1.0000 0.07850  0.45160  0.67900  Biso   1.000  O
  O94      1.0000 0.57850  0.04840  0.82100  Biso   1.000  O
  O95      1.0000 0.42150  0.54840  0.67900  Biso   1.000  O
  O96      1.0000 0.57850  0.95160  0.67900  Biso   1.000  O
  O97      1.0000 0.92150  0.95160  0.82100  Biso   1.000  O
  O98      1.0000 0.42150  0.45160  0.82100  Biso   1.000  O
  O99      1.0000 0.92150  0.45160  0.17900  Biso   1.000  O
  O100     1.0000 0.07850  0.95160  0.32100  Biso   1.000  O
  O101     1.0000 0.92150  0.54840  0.32100  Biso   1.000  O
  O102     1.0000 0.42150  0.95160  0.17900  Biso   1.000  O
  O103     1.0000 0.57850  0.45160  0.32100  Biso   1.000  O
  O104     1.0000 0.42150  0.04840  0.32100  Biso   1.000  O
  O105     1.0000 0.07800  0.04800  0.83000  Biso   1.000  O
  O106     1.0000 0.57800  0.54800  0.83000  Biso   1.000  O
  O107     1.0000 0.07800  0.54800  0.17000  Biso   1.000  O
  O108     1.0000 0.92200  0.04800  0.33000  Biso   1.000  O
  O109     1.0000 0.07800  0.45200  0.33000  Biso   1.000  O
  O110     1.0000 0.57800  0.04800  0.17000  Biso   1.000  O
  O111     1.0000 0.42200  0.54800  0.33000  Biso   1.000  O
  O112     1.0000 0.57800  0.95200  0.33000  Biso   1.000  O
  O113     1.0000 0.92200  0.95200  0.17000  Biso   1.000  O
  O114     1.0000 0.42200  0.45200  0.17000  Biso   1.000  O
  O115     1.0000 0.92200  0.45200  0.83000  Biso   1.000  O
  O116     1.0000 0.07800  0.95200  0.67000  Biso   1.000  O
  O117     1.0000 0.92200  0.54800  0.67000  Biso   1.000  O
  O118     1.0000 0.42200  0.95200  0.83000  Biso   1.000  O
  O119     1.0000 0.57800  0.45200  0.67000  Biso   1.000  O
  O120     1.0000 0.42200  0.04800  0.67000  Biso   1.000  O
  O121     1.0000 0.08040  0.07931  0.00190  Biso   1.000  O
  O122     1.0000 0.58040  0.57931  0.00190  Biso   1.000  O
  O123     1.0000 0.08040  0.57931  0.99810  Biso   1.000  O
  O124     1.0000 0.91960  0.07931  0.50190  Biso   1.000  O
  O125     1.0000 0.08040  0.42069  0.50190  Biso   1.000  O
  O126     1.0000 0.58040  0.07931  0.99810  Biso   1.000  O
  O127     1.0000 0.41960  0.57931  0.50190  Biso   1.000  O
  O128     1.0000 0.58040  0.92069  0.50190  Biso   1.000  O
  O129     1.0000 0.91960  0.92069  0.99810  Biso   1.000  O
  O130     1.0000 0.41960  0.42069  0.99810  Biso   1.000  O
  O131     1.0000 0.91960  0.42069  0.00190  Biso   1.000  O
  O132     1.0000 0.08040  0.92069  0.49810  Biso   1.000  O
  O133     1.0000 0.91960  0.57931  0.49810  Biso   1.000  O
  O134     1.0000 0.41960  0.92069  0.00190  Biso   1.000  O
  O135     1.0000 0.58040  0.42069  0.49810  Biso   1.000  O
  O136     1.0000 0.41960  0.07931  0.49810  Biso   1.000  O
  O137     1.0000 0.13080  0.03818  0.00180  Biso   1.000  O
  O138     1.0000 0.63080  0.53818  0.00180  Biso   1.000  O
  O139     1.0000 0.13080  0.53818  0.99820  Biso   1.000  O
  O140     1.0000 0.86920  0.03818  0.50180  Biso   1.000  O
  O141     1.0000 0.13080  0.46182  0.50180  Biso   1.000  O
  O142     1.0000 0.63080  0.03818  0.99820  Biso   1.000  O
  O143     1.0000 0.36920  0.53818  0.50180  Biso   1.000  O
  O144     1.0000 0.63080  0.96182  0.50180  Biso   1.000  O
  O145     1.0000 0.86920  0.96182  0.99820  Biso   1.000  O
  O146     1.0000 0.36920  0.46182  0.99820  Biso   1.000  O
  O147     1.0000 0.86920  0.46182  0.00180  Biso   1.000  O
  O148     1.0000 0.13080  0.96182  0.49820  Biso   1.000  O
  O149     1.0000 0.86920  0.53818  0.49820  Biso   1.000  O
  O150     1.0000 0.36920  0.96182  0.00180  Biso   1.000  O
  O151     1.0000 0.63080  0.46182  0.49820  Biso   1.000  O
  O152     1.0000 0.36920  0.03818  0.49820  Biso   1.000  O
  O153     1.0000 0.99810  0.98300  0.75900  Biso   1.000  O
  O154     1.0000 0.49810  0.48300  0.75900  Biso   1.000  O
  O155     1.0000 0.99810  0.48300  0.24100  Biso   1.000  O
  O156     1.0000 0.00190  0.98300  0.25900  Biso   1.000  O
  O157     1.0000 0.99810  0.51700  0.25900  Biso   1.000  O
  O158     1.0000 0.49810  0.98300  0.24100  Biso   1.000  O
  O159     1.0000 0.50190  0.48300  0.25900  Biso   1.000  O
  O160     1.0000 0.49810  0.01700  0.25900  Biso   1.000  O
  O161     1.0000 0.00190  0.01700  0.24100  Biso   1.000  O
  O162     1.0000 0.50190  0.51700  0.24100  Biso   1.000  O
  O163     1.0000 0.00190  0.51700  0.75900  Biso   1.000  O
  O164     1.0000 0.99810  0.01700  0.74100  Biso   1.000  O
  O165     1.0000 0.00190  0.48300  0.74100  Biso   1.000  O
  O166     1.0000 0.50190  0.01700  0.75900  Biso   1.000  O
  O167     1.0000 0.49810  0.51700  0.74100  Biso   1.000  O
  O168     1.0000 0.50190  0.98300  0.74100  Biso   1.000  O
  C1       1.0000 0.15700  0.22120  0.94550  Biso   1.000  C
  C2       1.0000 0.65700  0.72120  0.94550  Biso   1.000  C
  C3       1.0000 0.15700  0.72120  0.05450  Biso   1.000  C
  C4       1.0000 0.84300  0.22120  0.44550  Biso   1.000  C
  C5       1.0000 0.15700  0.27880  0.44550  Biso   1.000  C
  C6       1.0000 0.65700  0.22120  0.05450  Biso   1.000  C
  C7       1.0000 0.34300  0.72120  0.44550  Biso   1.000  C
  C8       1.0000 0.65700  0.77880  0.44550  Biso   1.000  C
  C9       1.0000 0.84300  0.77880  0.05450  Biso   1.000  C
  C10      1.0000 0.34300  0.27880  0.05450  Biso   1.000  C
  C11      1.0000 0.84300  0.27880  0.94550  Biso   1.000  C
  C12      1.0000 0.15700  0.77880  0.55450  Biso   1.000  C
  C13      1.0000 0.84300  0.72120  0.55450  Biso   1.000  C
  C14      1.0000 0.34300  0.77880  0.94550  Biso   1.000  C
  C15      1.0000 0.65700  0.27880  0.55450  Biso   1.000  C
  C16      1.0000 0.34300  0.22120  0.55450  Biso   1.000  C
  H1       1.0000 0.16070  0.22970  0.86870  Biso   1.000  H
  H2       1.0000 0.66070  0.72970  0.86870  Biso   1.000  H
  H3       1.0000 0.16070  0.72970  0.13130  Biso   1.000  H
  H4       1.0000 0.83930  0.22970  0.36870  Biso   1.000  H
  H5       1.0000 0.16070  0.27030  0.36870  Biso   1.000  H
  H6       1.0000 0.66070  0.22970  0.13130  Biso   1.000  H
  H7       1.0000 0.33930  0.72970  0.36870  Biso   1.000  H
  H8       1.0000 0.66070  0.77030  0.36870  Biso   1.000  H
  H9       1.0000 0.83930  0.77030  0.13130  Biso   1.000  H
  H10      1.0000 0.33930  0.27030  0.13130  Biso   1.000  H
  H11      1.0000 0.83930  0.27030  0.86870  Biso   1.000  H
  H12      1.0000 0.16070  0.77030  0.63130  Biso   1.000  H
  H13      1.0000 0.83930  0.72970  0.63130  Biso   1.000  H
  H14      1.0000 0.33930  0.77030  0.86870  Biso   1.000  H
  H15      1.0000 0.66070  0.27030  0.63130  Biso   1.000  H
  H16      1.0000 0.33930  0.22970  0.63130  Biso   1.000  H
  C17      1.0000 0.11740  0.20270  0.96490  Biso   1.000  C
  C18      1.0000 0.61740  0.70270  0.96490  Biso   1.000  C
  C19      1.0000 0.11740  0.70270  0.03510  Biso   1.000  C
  C20      1.0000 0.88260  0.20270  0.46490  Biso   1.000  C
  C21      1.0000 0.11740  0.29730  0.46490  Biso   1.000  C
  C22      1.0000 0.61740  0.20270  0.03510  Biso   1.000  C
  C23      1.0000 0.38260  0.70270  0.46490  Biso   1.000  C
  C24      1.0000 0.61740  0.79730  0.46490  Biso   1.000  C
  C25      1.0000 0.88260  0.79730  0.03510  Biso   1.000  C
  C26      1.0000 0.38260  0.29730  0.03510  Biso   1.000  C
  C27      1.0000 0.88260  0.29730  0.96490  Biso   1.000  C
  C28      1.0000 0.11740  0.79730  0.53510  Biso   1.000  C
  C29      1.0000 0.88260  0.70270  0.53510  Biso   1.000  C
  C30      1.0000 0.38260  0.79730  0.96490  Biso   1.000  C
  C31      1.0000 0.61740  0.29730  0.53510  Biso   1.000  C
  C32      1.0000 0.38260  0.20270  0.53510  Biso   1.000  C
  H17      1.0000 0.09690  0.19750  0.89940  Biso   1.000  H
  H18      1.0000 0.59690  0.69750  0.89940  Biso   1.000  H
  H19      1.0000 0.09690  0.69750  0.10060  Biso   1.000  H
  H20      1.0000 0.90310  0.19750  0.39940  Biso   1.000  H
  H21      1.0000 0.09690  0.30250  0.39940  Biso   1.000  H
  H22      1.0000 0.59690  0.19750  0.10060  Biso   1.000  H
  H23      1.0000 0.40310  0.69750  0.39940  Biso   1.000  H
  H24      1.0000 0.59690  0.80250  0.39940  Biso   1.000  H
  H25      1.0000 0.90310  0.80250  0.10060  Biso   1.000  H
  H26      1.0000 0.40310  0.30250  0.10060  Biso   1.000  H
  H27      1.0000 0.90310  0.30250  0.89940  Biso   1.000  H
  H28      1.0000 0.09690  0.80250  0.60060  Biso   1.000  H
  H29      1.0000 0.90310  0.69750  0.60060  Biso   1.000  H
  H30      1.0000 0.40310  0.80250  0.89940  Biso   1.000  H
  H31      1.0000 0.59690  0.30250  0.60060  Biso   1.000  H
  H32      1.0000 0.40310  0.19750  0.60060  Biso   1.000  H
  C33      1.0000 0.10910  0.19240  0.07780  Biso   1.000  C
  C34      1.0000 0.60910  0.69240  0.07780  Biso   1.000  C
  C35      1.0000 0.10910  0.69240  0.92220  Biso   1.000  C
  C36      1.0000 0.89090  0.19240  0.57780  Biso   1.000  C
  C37      1.0000 0.10910  0.30760  0.57780  Biso   1.000  C
  C38      1.0000 0.60910  0.19240  0.92220  Biso   1.000  C
  C39      1.0000 0.39090  0.69240  0.57780  Biso   1.000  C
  C40      1.0000 0.60910  0.80760  0.57780  Biso   1.000  C
  C41      1.0000 0.89090  0.80760  0.92220  Biso   1.000  C
  C42      1.0000 0.39090  0.30760  0.92220  Biso   1.000  C
  C43      1.0000 0.89090  0.30760  0.07780  Biso   1.000  C
  C44      1.0000 0.10910  0.80760  0.42220  Biso   1.000  C
  C45      1.0000 0.89090  0.69240  0.42220  Biso   1.000  C
  C46      1.0000 0.39090  0.80760  0.07780  Biso   1.000  C
  C47      1.0000 0.60910  0.30760  0.42220  Biso   1.000  C
  C48      1.0000 0.39090  0.19240  0.42220  Biso   1.000  C
  H33      1.0000 0.08140  0.18120  0.09260  Biso   1.000  H
  H34      1.0000 0.58140  0.68120  0.09260  Biso   1.000  H
  H35      1.0000 0.08140  0.68120  0.90740  Biso   1.000  H
  H36      1.0000 0.91860  0.18120  0.59260  Biso   1.000  H
  H37      1.0000 0.08140  0.31880  0.59260  Biso   1.000  H
  H38      1.0000 0.58140  0.18120  0.90740  Biso   1.000  H
  H39      1.0000 0.41860  0.68120  0.59260  Biso   1.000  H
  H40      1.0000 0.58140  0.81880  0.59260  Biso   1.000  H
  H41      1.0000 0.91860  0.81880  0.90740  Biso   1.000  H
  H42      1.0000 0.41860  0.31880  0.90740  Biso   1.000  H
  H43      1.0000 0.91860  0.31880  0.09260  Biso   1.000  H
  H44      1.0000 0.08140  0.81880  0.40740  Biso   1.000  H
  H45      1.0000 0.91860  0.68120  0.40740  Biso   1.000  H
  H46      1.0000 0.41860  0.81880  0.09260  Biso   1.000  H
  H47      1.0000 0.58140  0.31880  0.40740  Biso   1.000  H
  H48      1.0000 0.41860  0.18120  0.40740  Biso   1.000  H
  C49      1.0000 0.14120  0.19850  0.17120  Biso   1.000  C
  C50      1.0000 0.64120  0.69850  0.17120  Biso   1.000  C
  C51      1.0000 0.14120  0.69850  0.82880  Biso   1.000  C
  C52      1.0000 0.85880  0.19850  0.67120  Biso   1.000  C
  C53      1.0000 0.14120  0.30150  0.67120  Biso   1.000  C
  C54      1.0000 0.64120  0.19850  0.82880  Biso   1.000  C
  C55      1.0000 0.35880  0.69850  0.67120  Biso   1.000  C
  C56      1.0000 0.64120  0.80150  0.67120  Biso   1.000  C
  C57      1.0000 0.85880  0.80150  0.82880  Biso   1.000  C
  C58      1.0000 0.35880  0.30150  0.82880  Biso   1.000  C
  C59      1.0000 0.85880  0.30150  0.17120  Biso   1.000  C
  C60      1.0000 0.14120  0.80150  0.32880  Biso   1.000  C
  C61      1.0000 0.85880  0.69850  0.32880  Biso   1.000  C
  C62      1.0000 0.35880  0.80150  0.17120  Biso   1.000  C
  C63      1.0000 0.64120  0.30150  0.32880  Biso   1.000  C
  C64      1.0000 0.35880  0.19850  0.32880  Biso   1.000  C
  H49      1.0000 0.13620  0.19120  0.24980  Biso   1.000  H
  H50      1.0000 0.63620  0.69120  0.24980  Biso   1.000  H
  H51      1.0000 0.13620  0.69120  0.75020  Biso   1.000  H
  H52      1.0000 0.86380  0.19120  0.74980  Biso   1.000  H
  H53      1.0000 0.13620  0.30880  0.74980  Biso   1.000  H
  H54      1.0000 0.63620  0.19120  0.75020  Biso   1.000  H
  H55      1.0000 0.36380  0.69120  0.74980  Biso   1.000  H
  H56      1.0000 0.63620  0.80880  0.74980  Biso   1.000  H
  H57      1.0000 0.86380  0.80880  0.75020  Biso   1.000  H
  H58      1.0000 0.36380  0.30880  0.75020  Biso   1.000  H
  H59      1.0000 0.86380  0.30880  0.24980  Biso   1.000  H
  H60      1.0000 0.13620  0.80880  0.25020  Biso   1.000  H
  H61      1.0000 0.86380  0.69120  0.25020  Biso   1.000  H
  H62      1.0000 0.36380  0.80880  0.24980  Biso   1.000  H
  H63      1.0000 0.63620  0.30880  0.25020  Biso   1.000  H
  H64      1.0000 0.36380  0.19120  0.25020  Biso   1.000  H
  C65      1.0000 0.18150  0.21595  0.14670  Biso   1.000  C
  C66      1.0000 0.68150  0.71595  0.14670  Biso   1.000  C
  C67      1.0000 0.18150  0.71595  0.85330  Biso   1.000  C
  C68      1.0000 0.81850  0.21595  0.64670  Biso   1.000  C
  C69      1.0000 0.18150  0.28405  0.64670  Biso   1.000  C
  C70      1.0000 0.68150  0.21595  0.85330  Biso   1.000  C
  C71      1.0000 0.31850  0.71595  0.64670  Biso   1.000  C
  C72      1.0000 0.68150  0.78405  0.64670  Biso   1.000  C
  C73      1.0000 0.81850  0.78405  0.85330  Biso   1.000  C
  C74      1.0000 0.31850  0.28405  0.85330  Biso   1.000  C
  C75      1.0000 0.81850  0.28405  0.14670  Biso   1.000  C
  C76      1.0000 0.18150  0.78405  0.35330  Biso   1.000  C
  C77      1.0000 0.81850  0.71595  0.35330  Biso   1.000  C
  C78      1.0000 0.31850  0.78405  0.14670  Biso   1.000  C
  C79      1.0000 0.68150  0.28405  0.35330  Biso   1.000  C
  C80      1.0000 0.31850  0.21595  0.35330  Biso   1.000  C
  H65      1.0000 0.20360  0.22020  0.21030  Biso   1.000  H
  H66      1.0000 0.70360  0.72020  0.21030  Biso   1.000  H
  H67      1.0000 0.20360  0.72020  0.78970  Biso   1.000  H
  H68      1.0000 0.79640  0.22020  0.71030  Biso   1.000  H
  H69      1.0000 0.20360  0.27980  0.71030  Biso   1.000  H
  H70      1.0000 0.70360  0.22020  0.78970  Biso   1.000  H
  H71      1.0000 0.29640  0.72020  0.71030  Biso   1.000  H
  H72      1.0000 0.70360  0.77980  0.71030  Biso   1.000  H
  H73      1.0000 0.79640  0.77980  0.78970  Biso   1.000  H
  H74      1.0000 0.29640  0.27980  0.78970  Biso   1.000  H
  H75      1.0000 0.79640  0.27980  0.21030  Biso   1.000  H
  H76      1.0000 0.20360  0.77980  0.28970  Biso   1.000  H
  H77      1.0000 0.79640  0.72020  0.28970  Biso   1.000  H
  H78      1.0000 0.29640  0.77980  0.21030  Biso   1.000  H
  H79      1.0000 0.70360  0.27980  0.28970  Biso   1.000  H
  H80      1.0000 0.29640  0.22020  0.28970  Biso   1.000  H
  C81      1.0000 0.07040  0.29270  0.02800  Biso   1.000  C
  C82      1.0000 0.57040  0.79270  0.02800  Biso   1.000  C
  C83      1.0000 0.07040  0.79270  0.97200  Biso   1.000  C
  C84      1.0000 0.92960  0.29270  0.52800  Biso   1.000  C
  C85      1.0000 0.07040  0.20730  0.52800  Biso   1.000  C
  C86      1.0000 0.57040  0.29270  0.97200  Biso   1.000  C
  C87      1.0000 0.42960  0.79270  0.52800  Biso   1.000  C
  C88      1.0000 0.57040  0.70730  0.52800  Biso   1.000  C
  C89      1.0000 0.92960  0.70730  0.97200  Biso   1.000  C
  C90      1.0000 0.42960  0.20730  0.97200  Biso   1.000  C
  C91      1.0000 0.92960  0.20730  0.02800  Biso   1.000  C
  C92      1.0000 0.07040  0.70730  0.47200  Biso   1.000  C
  C93      1.0000 0.92960  0.79270  0.47200  Biso   1.000  C
  C94      1.0000 0.42960  0.70730  0.02800  Biso   1.000  C
  C95      1.0000 0.57040  0.20730  0.47200  Biso   1.000  C
  C96      1.0000 0.42960  0.29270  0.47200  Biso   1.000  C
  C97      1.0000 0.06240  0.27060  0.12590  Biso   1.000  C
  C98      1.0000 0.56240  0.77060  0.12590  Biso   1.000  C
  C99      1.0000 0.06240  0.77060  0.87410  Biso   1.000  C
  C100     1.0000 0.93760  0.27060  0.62590  Biso   1.000  C
  C101     1.0000 0.06240  0.22940  0.62590  Biso   1.000  C
  C102     1.0000 0.56240  0.27060  0.87410  Biso   1.000  C
  C103     1.0000 0.43760  0.77060  0.62590  Biso   1.000  C
  C104     1.0000 0.56240  0.72940  0.62590  Biso   1.000  C
  C105     1.0000 0.93760  0.72940  0.87410  Biso   1.000  C
  C106     1.0000 0.43760  0.22940  0.87410  Biso   1.000  C
  C107     1.0000 0.93760  0.22940  0.12590  Biso   1.000  C
  C108     1.0000 0.06240  0.72940  0.37410  Biso   1.000  C
  C109     1.0000 0.93760  0.77060  0.37410  Biso   1.000  C
  C110     1.0000 0.43760  0.72940  0.12590  Biso   1.000  C
  C111     1.0000 0.56240  0.22940  0.37410  Biso   1.000  C
  C112     1.0000 0.43760  0.27060  0.37410  Biso   1.000  C
  H81      1.0000 0.06650  0.25230  0.09000  Biso   1.000  H
  H82      1.0000 0.56650  0.75230  0.09000  Biso   1.000  H
  H83      1.0000 0.06650  0.75230  0.91000  Biso   1.000  H
  H84      1.0000 0.93350  0.25230  0.59000  Biso   1.000  H
  H85      1.0000 0.06650  0.24770  0.59000  Biso   1.000  H
  H86      1.0000 0.56650  0.25230  0.91000  Biso   1.000  H
  H87      1.0000 0.43350  0.75230  0.59000  Biso   1.000  H
  H88      1.0000 0.56650  0.74770  0.59000  Biso   1.000  H
  H89      1.0000 0.93350  0.74770  0.91000  Biso   1.000  H
  H90      1.0000 0.43350  0.24770  0.91000  Biso   1.000  H
  H91      1.0000 0.93350  0.24770  0.09000  Biso   1.000  H
  H92      1.0000 0.06650  0.74770  0.41000  Biso   1.000  H
  H93      1.0000 0.93350  0.75230  0.41000  Biso   1.000  H
  H94      1.0000 0.43350  0.74770  0.09000  Biso   1.000  H
  H95      1.0000 0.56650  0.24770  0.41000  Biso   1.000  H
  H96      1.0000 0.43350  0.25230  0.41000  Biso   1.000  H
  H97      1.0000 0.02930  0.27230  0.15880  Biso   1.000  H
  H98      1.0000 0.52930  0.77230  0.15880  Biso   1.000  H
  H99      1.0000 0.02930  0.77230  0.84120  Biso   1.000  H
  H100     1.0000 0.97070  0.27230  0.65880  Biso   1.000  H
  H101     1.0000 0.02930  0.22770  0.65880  Biso   1.000  H
  H102     1.0000 0.52930  0.27230  0.84120  Biso   1.000  H
  H103     1.0000 0.47070  0.77230  0.65880  Biso   1.000  H
  H104     1.0000 0.52930  0.72770  0.65880  Biso   1.000  H
  H105     1.0000 0.97070  0.72770  0.84120  Biso   1.000  H
  H106     1.0000 0.47070  0.22770  0.84120  Biso   1.000  H
  H107     1.0000 0.97070  0.22770  0.15880  Biso   1.000  H
  H108     1.0000 0.02930  0.72770  0.34120  Biso   1.000  H
  H109     1.0000 0.97070  0.77230  0.34120  Biso   1.000  H
  H110     1.0000 0.47070  0.72770  0.15880  Biso   1.000  H
  H111     1.0000 0.52930  0.22770  0.34120  Biso   1.000  H
  H112     1.0000 0.47070  0.27230  0.34120  Biso   1.000  H
  H113     1.0000 0.08630  0.27310  0.19100  Biso   1.000  H
  H114     1.0000 0.58630  0.77310  0.19100  Biso   1.000  H
  H115     1.0000 0.08630  0.77310  0.80900  Biso   1.000  H
  H116     1.0000 0.91370  0.27310  0.69100  Biso   1.000  H
  H117     1.0000 0.08630  0.22690  0.69100  Biso   1.000  H
  H118     1.0000 0.58630  0.27310  0.80900  Biso   1.000  H
  H119     1.0000 0.41370  0.77310  0.69100  Biso   1.000  H
  H120     1.0000 0.58630  0.72690  0.69100  Biso   1.000  H
  H121     1.0000 0.91370  0.72690  0.80900  Biso   1.000  H
  H122     1.0000 0.41370  0.22690  0.80900  Biso   1.000  H
  H123     1.0000 0.91370  0.22690  0.19100  Biso   1.000  H
  H124     1.0000 0.08630  0.72690  0.30900  Biso   1.000  H
  H125     1.0000 0.91370  0.77310  0.30900  Biso   1.000  H
  H126     1.0000 0.41370  0.72690  0.19100  Biso   1.000  H
  H127     1.0000 0.58630  0.22690  0.30900  Biso   1.000  H
  H128     1.0000 0.41370  0.27310  0.30900  Biso   1.000  H
  C113     1.0000 0.03680  0.28690  0.92090  Biso   1.000  C
  C114     1.0000 0.53680  0.78690  0.92090  Biso   1.000  C
  C115     1.0000 0.03680  0.78690  0.07910  Biso   1.000  C
  C116     1.0000 0.96320  0.28690  0.42090  Biso   1.000  C
  C117     1.0000 0.03680  0.21310  0.42090  Biso   1.000  C
  C118     1.0000 0.53680  0.28690  0.07910  Biso   1.000  C
  C119     1.0000 0.46320  0.78690  0.42090  Biso   1.000  C
  C120     1.0000 0.53680  0.71310  0.42090  Biso   1.000  C
  C121     1.0000 0.96320  0.71310  0.07910  Biso   1.000  C
  C122     1.0000 0.46320  0.21310  0.07910  Biso   1.000  C
  C123     1.0000 0.96320  0.21310  0.92090  Biso   1.000  C
  C124     1.0000 0.03680  0.71310  0.57910  Biso   1.000  C
  C125     1.0000 0.96320  0.78690  0.57910  Biso   1.000  C
  C126     1.0000 0.46320  0.71310  0.92090  Biso   1.000  C
  C127     1.0000 0.53680  0.21310  0.57910  Biso   1.000  C
  C128     1.0000 0.46320  0.28690  0.57910  Biso   1.000  C
  H129     1.0000 0.04260  0.26820  0.89140  Biso   1.000  H
  H130     1.0000 0.54260  0.76820  0.89140  Biso   1.000  H
  H131     1.0000 0.04260  0.76820  0.10860  Biso   1.000  H
  H132     1.0000 0.95740  0.26820  0.39140  Biso   1.000  H
  H133     1.0000 0.04260  0.23180  0.39140  Biso   1.000  H
  H134     1.0000 0.54260  0.26820  0.10860  Biso   1.000  H
  H135     1.0000 0.45740  0.76820  0.39140  Biso   1.000  H
  H136     1.0000 0.54260  0.73180  0.39140  Biso   1.000  H
  H137     1.0000 0.95740  0.73180  0.10860  Biso   1.000  H
  H138     1.0000 0.45740  0.23180  0.10860  Biso   1.000  H
  H139     1.0000 0.95740  0.23180  0.89140  Biso   1.000  H
  H140     1.0000 0.04260  0.73180  0.60860  Biso   1.000  H
  H141     1.0000 0.95740  0.76820  0.60860  Biso   1.000  H
  H142     1.0000 0.45740  0.73180  0.89140  Biso   1.000  H
  H143     1.0000 0.54260  0.23180  0.60860  Biso   1.000  H
  H144     1.0000 0.45740  0.26820  0.60860  Biso   1.000  H
  H145     1.0000 0.04370  0.30010  0.85590  Biso   1.000  H
  H146     1.0000 0.54370  0.80010  0.85590  Biso   1.000  H
  H147     1.0000 0.04370  0.80010  0.14410  Biso   1.000  H
  H148     1.0000 0.95630  0.30010  0.35590  Biso   1.000  H
  H149     1.0000 0.04370  0.19990  0.35590  Biso   1.000  H
  H150     1.0000 0.54370  0.30010  0.14410  Biso   1.000  H
  H151     1.0000 0.45630  0.80010  0.35590  Biso   1.000  H
  H152     1.0000 0.54370  0.69990  0.35590  Biso   1.000  H
  H153     1.0000 0.95630  0.69990  0.14410  Biso   1.000  H
  H154     1.0000 0.45630  0.19990  0.14410  Biso   1.000  H
  H155     1.0000 0.95630  0.19990  0.85590  Biso   1.000  H
  H156     1.0000 0.04370  0.69990  0.64410  Biso   1.000  H
  H157     1.0000 0.95630  0.80010  0.64410  Biso   1.000  H
  H158     1.0000 0.45630  0.69990  0.85590  Biso   1.000  H
  H159     1.0000 0.54370  0.19990  0.64410  Biso   1.000  H
  H160     1.0000 0.45630  0.30010  0.64410  Biso   1.000  H
  H161     1.0000 0.00270  0.28880  0.94650  Biso   1.000  H
  H162     1.0000 0.50270  0.78880  0.94650  Biso   1.000  H
  H163     1.0000 0.00270  0.78880  0.05350  Biso   1.000  H
  H164     1.0000 0.99730  0.28880  0.44650  Biso   1.000  H
  H165     1.0000 0.00270  0.21120  0.44650  Biso   1.000  H
  H166     1.0000 0.50270  0.28880  0.05350  Biso   1.000  H
  H167     1.0000 0.49730  0.78880  0.44650  Biso   1.000  H
  H168     1.0000 0.50270  0.71120  0.44650  Biso   1.000  H
  H169     1.0000 0.99730  0.71120  0.05350  Biso   1.000  H
  H170     1.0000 0.49730  0.21120  0.05350  Biso   1.000  H
  H171     1.0000 0.99730  0.21120  0.94650  Biso   1.000  H
  H172     1.0000 0.00270  0.71120  0.55350  Biso   1.000  H
  H173     1.0000 0.99730  0.78880  0.55350  Biso   1.000  H
  H174     1.0000 0.49730  0.71120  0.94650  Biso   1.000  H
  H175     1.0000 0.50270  0.21120  0.55350  Biso   1.000  H
  H176     1.0000 0.49730  0.28880  0.55350  Biso   1.000  H
  C129     1.0000 0.06520  0.32150  0.08210  Biso   1.000  C
  C130     1.0000 0.56520  0.82150  0.08210  Biso   1.000  C
  C131     1.0000 0.06520  0.82150  0.91790  Biso   1.000  C
  C132     1.0000 0.93480  0.32150  0.58210  Biso   1.000  C
  C133     1.0000 0.06520  0.17850  0.58210  Biso   1.000  C
  C134     1.0000 0.56520  0.32150  0.91790  Biso   1.000  C
  C135     1.0000 0.43480  0.82150  0.58210  Biso   1.000  C
  C136     1.0000 0.56520  0.67850  0.58210  Biso   1.000  C
  C137     1.0000 0.93480  0.67850  0.91790  Biso   1.000  C
  C138     1.0000 0.43480  0.17850  0.91790  Biso   1.000  C
  C139     1.0000 0.93480  0.17850  0.08210  Biso   1.000  C
  C140     1.0000 0.06520  0.67850  0.41790  Biso   1.000  C
  C141     1.0000 0.93480  0.82150  0.41790  Biso   1.000  C
  C142     1.0000 0.43480  0.67850  0.08210  Biso   1.000  C
  C143     1.0000 0.56520  0.17850  0.41790  Biso   1.000  C
  C144     1.0000 0.43480  0.32150  0.41790  Biso   1.000  C
  H177     1.0000 0.08750  0.32350  0.15100  Biso   1.000  H
  H178     1.0000 0.58750  0.82350  0.15100  Biso   1.000  H
  H179     1.0000 0.08750  0.82350  0.84900  Biso   1.000  H
  H180     1.0000 0.91250  0.32350  0.65100  Biso   1.000  H
  H181     1.0000 0.08750  0.17650  0.65100  Biso   1.000  H
  H182     1.0000 0.58750  0.32350  0.84900  Biso   1.000  H
  H183     1.0000 0.41250  0.82350  0.65100  Biso   1.000  H
  H184     1.0000 0.58750  0.67650  0.65100  Biso   1.000  H
  H185     1.0000 0.91250  0.67650  0.84900  Biso   1.000  H
  H186     1.0000 0.41250  0.17650  0.84900  Biso   1.000  H
  H187     1.0000 0.91250  0.17650  0.15100  Biso   1.000  H
  H188     1.0000 0.08750  0.67650  0.34900  Biso   1.000  H
  H189     1.0000 0.91250  0.82350  0.34900  Biso   1.000  H
  H190     1.0000 0.41250  0.67650  0.15100  Biso   1.000  H
  H191     1.0000 0.58750  0.17650  0.34900  Biso   1.000  H
  H192     1.0000 0.41250  0.32350  0.34900  Biso   1.000  H
  H193     1.0000 0.03140  0.32430  0.10950  Biso   1.000  H
  H194     1.0000 0.53140  0.82430  0.10950  Biso   1.000  H
  H195     1.0000 0.03140  0.82430  0.89050  Biso   1.000  H
  H196     1.0000 0.96860  0.32430  0.60950  Biso   1.000  H
  H197     1.0000 0.03140  0.17570  0.60950  Biso   1.000  H
  H198     1.0000 0.53140  0.32430  0.89050  Biso   1.000  H
  H199     1.0000 0.46860  0.82430  0.60950  Biso   1.000  H
  H200     1.0000 0.53140  0.67570  0.60950  Biso   1.000  H
  H201     1.0000 0.96860  0.67570  0.89050  Biso   1.000  H
  H202     1.0000 0.46860  0.17570  0.89050  Biso   1.000  H
  H203     1.0000 0.96860  0.17570  0.10950  Biso   1.000  H
  H204     1.0000 0.03140  0.67570  0.39050  Biso   1.000  H
  H205     1.0000 0.96860  0.82430  0.39050  Biso   1.000  H
  H206     1.0000 0.46860  0.67570  0.10950  Biso   1.000  H
  H207     1.0000 0.53140  0.17570  0.39050  Biso   1.000  H
  H208     1.0000 0.46860  0.32430  0.39050  Biso   1.000  H
  H209     1.0000 0.07320  0.33530  0.02050  Biso   1.000  H
  H210     1.0000 0.57320  0.83530  0.02050  Biso   1.000  H
  H211     1.0000 0.07320  0.83530  0.97950  Biso   1.000  H
  H212     1.0000 0.92680  0.33530  0.52050  Biso   1.000  H
  H213     1.0000 0.07320  0.16470  0.52050  Biso   1.000  H
  H214     1.0000 0.57320  0.33530  0.97950  Biso   1.000  H
  H215     1.0000 0.42680  0.83530  0.52050  Biso   1.000  H
  H216     1.0000 0.57320  0.66470  0.52050  Biso   1.000  H
  H217     1.0000 0.92680  0.66470  0.97950  Biso   1.000  H
  H218     1.0000 0.42680  0.16470  0.97950  Biso   1.000  H
  H219     1.0000 0.92680  0.16470  0.02050  Biso   1.000  H
  H220     1.0000 0.07320  0.66470  0.47950  Biso   1.000  H
  H221     1.0000 0.92680  0.83530  0.47950  Biso   1.000  H
  H222     1.0000 0.42680  0.66470  0.02050  Biso   1.000  H
  H223     1.0000 0.57320  0.16470  0.47950  Biso   1.000  H
  H224     1.0000 0.42680  0.33530  0.47950  Biso   1.000  H
  C145     1.0000 0.20310  0.35228  0.00360  Biso   1.000  C
  C146     1.0000 0.70310  0.85228  0.00360  Biso   1.000  C
  C147     1.0000 0.20310  0.85228  0.99640  Biso   1.000  C
  C148     1.0000 0.79690  0.35228  0.50360  Biso   1.000  C
  C149     1.0000 0.20310  0.14772  0.50360  Biso   1.000  C
  C150     1.0000 0.70310  0.35228  0.99640  Biso   1.000  C
  C151     1.0000 0.29690  0.85228  0.50360  Biso   1.000  C
  C152     1.0000 0.70310  0.64772  0.50360  Biso   1.000  C
  C153     1.0000 0.79690  0.64772  0.99640  Biso   1.000  C
  C154     1.0000 0.29690  0.14772  0.99640  Biso   1.000  C
  C155     1.0000 0.79690  0.14772  0.00360  Biso   1.000  C
  C156     1.0000 0.20310  0.64772  0.49640  Biso   1.000  C
  C157     1.0000 0.79690  0.85228  0.49640  Biso   1.000  C
  C158     1.0000 0.29690  0.64772  0.00360  Biso   1.000  C
  C159     1.0000 0.70310  0.14772  0.49640  Biso   1.000  C
  C160     1.0000 0.29690  0.35228  0.49640  Biso   1.000  C
  C161     1.0000 0.25580  0.34290  0.01930  Biso   1.000  C
  C162     1.0000 0.75580  0.84290  0.01930  Biso   1.000  C
  C163     1.0000 0.25580  0.84290  0.98070  Biso   1.000  C
  C164     1.0000 0.74420  0.34290  0.51930  Biso   1.000  C
  C165     1.0000 0.25580  0.15710  0.51930  Biso   1.000  C
  C166     1.0000 0.75580  0.34290  0.98070  Biso   1.000  C
  C167     1.0000 0.24420  0.84290  0.51930  Biso   1.000  C
  C168     1.0000 0.75580  0.65710  0.51930  Biso   1.000  C
  C169     1.0000 0.74420  0.65710  0.98070  Biso   1.000  C
  C170     1.0000 0.24420  0.15710  0.98070  Biso   1.000  C
  C171     1.0000 0.74420  0.15710  0.01930  Biso   1.000  C
  C172     1.0000 0.25580  0.65710  0.48070  Biso   1.000  C
  C173     1.0000 0.74420  0.84290  0.48070  Biso   1.000  C
  C174     1.0000 0.24420  0.65710  0.01930  Biso   1.000  C
  C175     1.0000 0.75580  0.15710  0.48070  Biso   1.000  C
  C176     1.0000 0.24420  0.34290  0.48070  Biso   1.000  C
  H225     1.0000 0.25760  0.32920  0.08450  Biso   1.000  H
  H226     1.0000 0.75760  0.82920  0.08450  Biso   1.000  H
  H227     1.0000 0.25760  0.82920  0.91550  Biso   1.000  H
  H228     1.0000 0.74240  0.32920  0.58450  Biso   1.000  H
  H229     1.0000 0.25760  0.17080  0.58450  Biso   1.000  H
  H230     1.0000 0.75760  0.32920  0.91550  Biso   1.000  H
  H231     1.0000 0.24240  0.82920  0.58450  Biso   1.000  H
  H232     1.0000 0.75760  0.67080  0.58450  Biso   1.000  H
  H233     1.0000 0.74240  0.67080  0.91550  Biso   1.000  H
  H234     1.0000 0.24240  0.17080  0.91550  Biso   1.000  H
  H235     1.0000 0.74240  0.17080  0.08450  Biso   1.000  H
  H236     1.0000 0.25760  0.67080  0.41550  Biso   1.000  H
  H237     1.0000 0.74240  0.82920  0.41550  Biso   1.000  H
  H238     1.0000 0.24240  0.67080  0.08450  Biso   1.000  H
  H239     1.0000 0.75760  0.17080  0.41550  Biso   1.000  H
  H240     1.0000 0.24240  0.32920  0.41550  Biso   1.000  H
  H241     1.0000 0.27630  0.35880  0.03990  Biso   1.000  H
  H242     1.0000 0.77630  0.85880  0.03990  Biso   1.000  H
  H243     1.0000 0.27630  0.85880  0.96010  Biso   1.000  H
  H244     1.0000 0.72370  0.35880  0.53990  Biso   1.000  H
  H245     1.0000 0.27630  0.14120  0.53990  Biso   1.000  H
  H246     1.0000 0.77630  0.35880  0.96010  Biso   1.000  H
  H247     1.0000 0.22370  0.85880  0.53990  Biso   1.000  H
  H248     1.0000 0.77630  0.64120  0.53990  Biso   1.000  H
  H249     1.0000 0.72370  0.64120  0.96010  Biso   1.000  H
  H250     1.0000 0.22370  0.14120  0.96010  Biso   1.000  H
  H251     1.0000 0.72370  0.14120  0.03990  Biso   1.000  H
  H252     1.0000 0.27630  0.64120  0.46010  Biso   1.000  H
  H253     1.0000 0.72370  0.85880  0.46010  Biso   1.000  H
  H254     1.0000 0.22370  0.64120  0.03990  Biso   1.000  H
  H255     1.0000 0.77630  0.14120  0.46010  Biso   1.000  H
  H256     1.0000 0.22370  0.35880  0.46010  Biso   1.000  H
  H257     1.0000 0.26740  0.33460  0.94370  Biso   1.000  H
  H258     1.0000 0.76740  0.83460  0.94370  Biso   1.000  H
  H259     1.0000 0.26740  0.83460  0.05630  Biso   1.000  H
  H260     1.0000 0.73260  0.33460  0.44370  Biso   1.000  H
  H261     1.0000 0.26740  0.16540  0.44370  Biso   1.000  H
  H262     1.0000 0.76740  0.33460  0.05630  Biso   1.000  H
  H263     1.0000 0.23260  0.83460  0.44370  Biso   1.000  H
  H264     1.0000 0.76740  0.66540  0.44370  Biso   1.000  H
  H265     1.0000 0.73260  0.66540  0.05630  Biso   1.000  H
  H266     1.0000 0.23260  0.16540  0.05630  Biso   1.000  H
  H267     1.0000 0.73260  0.16540  0.94370  Biso   1.000  H
  H268     1.0000 0.26740  0.66540  0.55630  Biso   1.000  H
  H269     1.0000 0.73260  0.83460  0.55630  Biso   1.000  H
  H270     1.0000 0.23260  0.66540  0.94370  Biso   1.000  H
  H271     1.0000 0.76740  0.16540  0.55630  Biso   1.000  H
  H272     1.0000 0.23260  0.33460  0.55630  Biso   1.000  H
  C177     1.0000 0.18590  0.36660  0.11830  Biso   1.000  C
  C178     1.0000 0.68590  0.86660  0.11830  Biso   1.000  C
  C179     1.0000 0.18590  0.86660  0.88170  Biso   1.000  C
  C180     1.0000 0.81410  0.36660  0.61830  Biso   1.000  C
  C181     1.0000 0.18590  0.13340  0.61830  Biso   1.000  C
  C182     1.0000 0.68590  0.36660  0.88170  Biso   1.000  C
  C183     1.0000 0.31410  0.86660  0.61830  Biso   1.000  C
  C184     1.0000 0.68590  0.63340  0.61830  Biso   1.000  C
  C185     1.0000 0.81410  0.63340  0.88170  Biso   1.000  C
  C186     1.0000 0.31410  0.13340  0.88170  Biso   1.000  C
  C187     1.0000 0.81410  0.13340  0.11830  Biso   1.000  C
  C188     1.0000 0.18590  0.63340  0.38170  Biso   1.000  C
  C189     1.0000 0.81410  0.86660  0.38170  Biso   1.000  C
  C190     1.0000 0.31410  0.63340  0.11830  Biso   1.000  C
  C191     1.0000 0.68590  0.13340  0.38170  Biso   1.000  C
  C192     1.0000 0.31410  0.36660  0.38170  Biso   1.000  C
  H273     1.0000 0.18740  0.35370  0.18640  Biso   1.000  H
  H274     1.0000 0.68740  0.85370  0.18640  Biso   1.000  H
  H275     1.0000 0.18740  0.85370  0.81360  Biso   1.000  H
  H276     1.0000 0.81260  0.35370  0.68640  Biso   1.000  H
  H277     1.0000 0.18740  0.14630  0.68640  Biso   1.000  H
  H278     1.0000 0.68740  0.35370  0.81360  Biso   1.000  H
  H279     1.0000 0.31260  0.85370  0.68640  Biso   1.000  H
  H280     1.0000 0.68740  0.64630  0.68640  Biso   1.000  H
  H281     1.0000 0.81260  0.64630  0.81360  Biso   1.000  H
  H282     1.0000 0.31260  0.14630  0.81360  Biso   1.000  H
  H283     1.0000 0.81260  0.14630  0.18640  Biso   1.000  H
  H284     1.0000 0.18740  0.64630  0.31360  Biso   1.000  H
  H285     1.0000 0.81260  0.85370  0.31360  Biso   1.000  H
  H286     1.0000 0.31260  0.64630  0.18640  Biso   1.000  H
  H287     1.0000 0.68740  0.14630  0.31360  Biso   1.000  H
  H288     1.0000 0.31260  0.35370  0.31360  Biso   1.000  H
  H289     1.0000 0.15220  0.37300  0.10750  Biso   1.000  H
  H290     1.0000 0.65220  0.87300  0.10750  Biso   1.000  H
  H291     1.0000 0.15220  0.87300  0.89250  Biso   1.000  H
  H292     1.0000 0.84780  0.37300  0.60750  Biso   1.000  H
  H293     1.0000 0.15220  0.12700  0.60750  Biso   1.000  H
  H294     1.0000 0.65220  0.37300  0.89250  Biso   1.000  H
  H295     1.0000 0.34780  0.87300  0.60750  Biso   1.000  H
  H296     1.0000 0.65220  0.62700  0.60750  Biso   1.000  H
  H297     1.0000 0.84780  0.62700  0.89250  Biso   1.000  H
  H298     1.0000 0.34780  0.12700  0.89250  Biso   1.000  H
  H299     1.0000 0.84780  0.12700  0.10750  Biso   1.000  H
  H300     1.0000 0.15220  0.62700  0.39250  Biso   1.000  H
  H301     1.0000 0.84780  0.87300  0.39250  Biso   1.000  H
  H302     1.0000 0.34780  0.62700  0.10750  Biso   1.000  H
  H303     1.0000 0.65220  0.12700  0.39250  Biso   1.000  H
  H304     1.0000 0.34780  0.37300  0.39250  Biso   1.000  H
  H305     1.0000 0.20710  0.38250  0.13490  Biso   1.000  H
  H306     1.0000 0.70710  0.88250  0.13490  Biso   1.000  H
  H307     1.0000 0.20710  0.88250  0.86510  Biso   1.000  H
  H308     1.0000 0.79290  0.38250  0.63490  Biso   1.000  H
  H309     1.0000 0.20710  0.11750  0.63490  Biso   1.000  H
  H310     1.0000 0.70710  0.38250  0.86510  Biso   1.000  H
  H311     1.0000 0.29290  0.88250  0.63490  Biso   1.000  H
  H312     1.0000 0.70710  0.61750  0.63490  Biso   1.000  H
  H313     1.0000 0.79290  0.61750  0.86510  Biso   1.000  H
  H314     1.0000 0.29290  0.11750  0.86510  Biso   1.000  H
  H315     1.0000 0.79290  0.11750  0.13490  Biso   1.000  H
  H316     1.0000 0.20710  0.61750  0.36510  Biso   1.000  H
  H317     1.0000 0.79290  0.88250  0.36510  Biso   1.000  H
  H318     1.0000 0.29290  0.61750  0.13490  Biso   1.000  H
  H319     1.0000 0.70710  0.11750  0.36510  Biso   1.000  H
  H320     1.0000 0.29290  0.38250  0.36510  Biso   1.000  H
  C193     1.0000 0.20140  0.37290  0.90670  Biso   1.000  C
  C194     1.0000 0.70140  0.87290  0.90670  Biso   1.000  C
  C195     1.0000 0.20140  0.87290  0.09330  Biso   1.000  C
  C196     1.0000 0.79860  0.37290  0.40670  Biso   1.000  C
  C197     1.0000 0.20140  0.12710  0.40670  Biso   1.000  C
  C198     1.0000 0.70140  0.37290  0.09330  Biso   1.000  C
  C199     1.0000 0.29860  0.87290  0.40670  Biso   1.000  C
  C200     1.0000 0.70140  0.62710  0.40670  Biso   1.000  C
  C201     1.0000 0.79860  0.62710  0.09330  Biso   1.000  C
  C202     1.0000 0.29860  0.12710  0.09330  Biso   1.000  C
  C203     1.0000 0.79860  0.12710  0.90670  Biso   1.000  C
  C204     1.0000 0.20140  0.62710  0.59330  Biso   1.000  C
  C205     1.0000 0.79860  0.87290  0.59330  Biso   1.000  C
  C206     1.0000 0.29860  0.62710  0.90670  Biso   1.000  C
  C207     1.0000 0.70140  0.12710  0.59330  Biso   1.000  C
  C208     1.0000 0.29860  0.37290  0.59330  Biso   1.000  C
  H321     1.0000 0.16780  0.37940  0.89630  Biso   1.000  H
  H322     1.0000 0.66780  0.87940  0.89630  Biso   1.000  H
  H323     1.0000 0.16780  0.87940  0.10370  Biso   1.000  H
  H324     1.0000 0.83220  0.37940  0.39630  Biso   1.000  H
  H325     1.0000 0.16780  0.12060  0.39630  Biso   1.000  H
  H326     1.0000 0.66780  0.37940  0.10370  Biso   1.000  H
  H327     1.0000 0.33220  0.87940  0.39630  Biso   1.000  H
  H328     1.0000 0.66780  0.62060  0.39630  Biso   1.000  H
  H329     1.0000 0.83220  0.62060  0.10370  Biso   1.000  H
  H330     1.0000 0.33220  0.12060  0.10370  Biso   1.000  H
  H331     1.0000 0.83220  0.12060  0.89630  Biso   1.000  H
  H332     1.0000 0.16780  0.62060  0.60370  Biso   1.000  H
  H333     1.0000 0.83220  0.87940  0.60370  Biso   1.000  H
  H334     1.0000 0.33220  0.62060  0.89630  Biso   1.000  H
  H335     1.0000 0.66780  0.12060  0.60370  Biso   1.000  H
  H336     1.0000 0.33220  0.37940  0.60370  Biso   1.000  H
  H337     1.0000 0.21290  0.36460  0.83090  Biso   1.000  H
  H338     1.0000 0.71290  0.86460  0.83090  Biso   1.000  H
  H339     1.0000 0.21290  0.86460  0.16910  Biso   1.000  H
  H340     1.0000 0.78710  0.36460  0.33090  Biso   1.000  H
  H341     1.0000 0.21290  0.13540  0.33090  Biso   1.000  H
  H342     1.0000 0.71290  0.36460  0.16910  Biso   1.000  H
  H343     1.0000 0.28710  0.86460  0.33090  Biso   1.000  H
  H344     1.0000 0.71290  0.63540  0.33090  Biso   1.000  H
  H345     1.0000 0.78710  0.63540  0.16910  Biso   1.000  H
  H346     1.0000 0.28710  0.13540  0.16910  Biso   1.000  H
  H347     1.0000 0.78710  0.13540  0.83090  Biso   1.000  H
  H348     1.0000 0.21290  0.63540  0.66910  Biso   1.000  H
  H349     1.0000 0.78710  0.86460  0.66910  Biso   1.000  H
  H350     1.0000 0.28710  0.63540  0.83090  Biso   1.000  H
  H351     1.0000 0.71290  0.13540  0.66910  Biso   1.000  H
  H352     1.0000 0.28710  0.36460  0.66910  Biso   1.000  H
  H353     1.0000 0.22250  0.38850  0.92800  Biso   1.000  H
  H354     1.0000 0.72250  0.88850  0.92800  Biso   1.000  H
  H355     1.0000 0.22250  0.88850  0.07200  Biso   1.000  H
  H356     1.0000 0.77750  0.38850  0.42800  Biso   1.000  H
  H357     1.0000 0.22250  0.11150  0.42800  Biso   1.000  H
  H358     1.0000 0.72250  0.38850  0.07200  Biso   1.000  H
  H359     1.0000 0.27750  0.88850  0.42800  Biso   1.000  H
  H360     1.0000 0.72250  0.61150  0.42800  Biso   1.000  H
  H361     1.0000 0.77750  0.61150  0.07200  Biso   1.000  H
  H362     1.0000 0.27750  0.11150  0.07200  Biso   1.000  H
  H363     1.0000 0.77750  0.11150  0.92800  Biso   1.000  H
  H364     1.0000 0.22250  0.61150  0.57200  Biso   1.000  H
  H365     1.0000 0.77750  0.88850  0.57200  Biso   1.000  H
  H366     1.0000 0.27750  0.61150  0.92800  Biso   1.000  H
  H367     1.0000 0.72250  0.11150  0.57200  Biso   1.000  H
  H368     1.0000 0.27750  0.38850  0.57200  Biso   1.000  H
  N17      1.0000 0.06000  0.97655  0.99700  Biso   1.000  N
  N18      1.0000 0.56000  0.47655  0.99700  Biso   1.000  N
  N19      1.0000 0.06000  0.47655  0.00300  Biso   1.000  N
  N20      1.0000 0.94000  0.97655  0.49700  Biso   1.000  N
  N21      1.0000 0.06000  0.52345  0.49700  Biso   1.000  N
  N22      1.0000 0.56000  0.97655  0.00300  Biso   1.000  N
  N23      1.0000 0.44000  0.47655  0.49700  Biso   1.000  N
  N24      1.0000 0.56000  0.02345  0.49700  Biso   1.000  N
  N25      1.0000 0.94000  0.02345  0.00300  Biso   1.000  N
  N26      1.0000 0.44000  0.52345  0.00300  Biso   1.000  N
  N27      1.0000 0.94000  0.52345  0.99700  Biso   1.000  N
  N28      1.0000 0.06000  0.02345  0.50300  Biso   1.000  N
  N29      1.0000 0.94000  0.47655  0.50300  Biso   1.000  N
  N30      1.0000 0.44000  0.02345  0.99700  Biso   1.000  N
  N31      1.0000 0.56000  0.52345  0.50300  Biso   1.000  N
  N32      1.0000 0.44000  0.97655  0.50300  Biso   1.000  N
  C209     1.0000 0.06980  0.96464  0.88230  Biso   1.000  C
  C210     1.0000 0.56980  0.46464  0.88230  Biso   1.000  C
  C211     1.0000 0.06980  0.46464  0.11770  Biso   1.000  C
  C212     1.0000 0.93020  0.96464  0.38230  Biso   1.000  C
  C213     1.0000 0.06980  0.53536  0.38230  Biso   1.000  C
  C214     1.0000 0.56980  0.96464  0.11770  Biso   1.000  C
  C215     1.0000 0.43020  0.46464  0.38230  Biso   1.000  C
  C216     1.0000 0.56980  0.03536  0.38230  Biso   1.000  C
  C217     1.0000 0.93020  0.03536  0.11770  Biso   1.000  C
  C218     1.0000 0.43020  0.53536  0.11770  Biso   1.000  C
  C219     1.0000 0.93020  0.53536  0.88230  Biso   1.000  C
  C220     1.0000 0.06980  0.03536  0.61770  Biso   1.000  C
  C221     1.0000 0.93020  0.46464  0.61770  Biso   1.000  C
  C222     1.0000 0.43020  0.03536  0.88230  Biso   1.000  C
  C223     1.0000 0.56980  0.53536  0.61770  Biso   1.000  C
  C224     1.0000 0.43020  0.96464  0.61770  Biso   1.000  C
  H369     1.0000 0.04850  0.96800  0.81620  Biso   1.000  H
  H370     1.0000 0.54850  0.46800  0.81620  Biso   1.000  H
  H371     1.0000 0.04850  0.46800  0.18380  Biso   1.000  H
  H372     1.0000 0.95150  0.96800  0.31620  Biso   1.000  H
  H373     1.0000 0.04850  0.53200  0.31620  Biso   1.000  H
  H374     1.0000 0.54850  0.96800  0.18380  Biso   1.000  H
  H375     1.0000 0.45150  0.46800  0.31620  Biso   1.000  H
  H376     1.0000 0.54850  0.03200  0.31620  Biso   1.000  H
  H377     1.0000 0.95150  0.03200  0.18380  Biso   1.000  H
  H378     1.0000 0.45150  0.53200  0.18380  Biso   1.000  H
  H379     1.0000 0.95150  0.53200  0.81620  Biso   1.000  H
  H380     1.0000 0.04850  0.03200  0.68380  Biso   1.000  H
  H381     1.0000 0.95150  0.46800  0.68380  Biso   1.000  H
  H382     1.0000 0.45150  0.03200  0.81620  Biso   1.000  H
  H383     1.0000 0.54850  0.53200  0.68380  Biso   1.000  H
  H384     1.0000 0.45150  0.96800  0.68380  Biso   1.000  H
  C225     1.0000 0.11160  0.94770  0.86630  Biso   1.000  C
  C226     1.0000 0.61160  0.44770  0.86630  Biso   1.000  C
  C227     1.0000 0.11160  0.44770  0.13370  Biso   1.000  C
  C228     1.0000 0.88840  0.94770  0.36630  Biso   1.000  C
  C229     1.0000 0.11160  0.55230  0.36630  Biso   1.000  C
  C230     1.0000 0.61160  0.94770  0.13370  Biso   1.000  C
  C231     1.0000 0.38840  0.44770  0.36630  Biso   1.000  C
  C232     1.0000 0.61160  0.05230  0.36630  Biso   1.000  C
  C233     1.0000 0.88840  0.05230  0.13370  Biso   1.000  C
  C234     1.0000 0.38840  0.55230  0.13370  Biso   1.000  C
  C235     1.0000 0.88840  0.55230  0.86630  Biso   1.000  C
  C236     1.0000 0.11160  0.05230  0.63370  Biso   1.000  C
  C237     1.0000 0.88840  0.44770  0.63370  Biso   1.000  C
  C238     1.0000 0.38840  0.05230  0.86630  Biso   1.000  C
  C239     1.0000 0.61160  0.55230  0.63370  Biso   1.000  C
  C240     1.0000 0.38840  0.94770  0.63370  Biso   1.000  C
  H385     1.0000 0.11810  0.93970  0.78950  Biso   1.000  H
  H386     1.0000 0.61810  0.43970  0.78950  Biso   1.000  H
  H387     1.0000 0.11810  0.43970  0.21050  Biso   1.000  H
  H388     1.0000 0.88190  0.93970  0.28950  Biso   1.000  H
  H389     1.0000 0.11810  0.56030  0.28950  Biso   1.000  H
  H390     1.0000 0.61810  0.93970  0.21050  Biso   1.000  H
  H391     1.0000 0.38190  0.43970  0.28950  Biso   1.000  H
  H392     1.0000 0.61810  0.06030  0.28950  Biso   1.000  H
  H393     1.0000 0.88190  0.06030  0.21050  Biso   1.000  H
  H394     1.0000 0.38190  0.56030  0.21050  Biso   1.000  H
  H395     1.0000 0.88190  0.56030  0.78950  Biso   1.000  H
  H396     1.0000 0.11810  0.06030  0.71050  Biso   1.000  H
  H397     1.0000 0.88190  0.43970  0.71050  Biso   1.000  H
  H398     1.0000 0.38190  0.06030  0.78950  Biso   1.000  H
  H399     1.0000 0.61810  0.56030  0.71050  Biso   1.000  H
  H400     1.0000 0.38190  0.93970  0.71050  Biso   1.000  H
  C241     1.0000 0.14350  0.94267  0.96510  Biso   1.000  C
  C242     1.0000 0.64350  0.44267  0.96510  Biso   1.000  C
  C243     1.0000 0.14350  0.44267  0.03490  Biso   1.000  C
  C244     1.0000 0.85650  0.94267  0.46510  Biso   1.000  C
  C245     1.0000 0.14350  0.55733  0.46510  Biso   1.000  C
  C246     1.0000 0.64350  0.94267  0.03490  Biso   1.000  C
  C247     1.0000 0.35650  0.44267  0.46510  Biso   1.000  C
  C248     1.0000 0.64350  0.05733  0.46510  Biso   1.000  C
  C249     1.0000 0.85650  0.05733  0.03490  Biso   1.000  C
  C250     1.0000 0.35650  0.55733  0.03490  Biso   1.000  C
  C251     1.0000 0.85650  0.55733  0.96510  Biso   1.000  C
  C252     1.0000 0.14350  0.05733  0.53490  Biso   1.000  C
  C253     1.0000 0.85650  0.44267  0.53490  Biso   1.000  C
  C254     1.0000 0.35650  0.05733  0.96510  Biso   1.000  C
  C255     1.0000 0.64350  0.55733  0.53490  Biso   1.000  C
  C256     1.0000 0.35650  0.94267  0.53490  Biso   1.000  C
  H401     1.0000 0.17140  0.93130  0.95440  Biso   1.000  H
  H402     1.0000 0.67140  0.43130  0.95440  Biso   1.000  H
  H403     1.0000 0.17140  0.43130  0.04560  Biso   1.000  H
  H404     1.0000 0.82860  0.93130  0.45440  Biso   1.000  H
  H405     1.0000 0.17140  0.56870  0.45440  Biso   1.000  H
  H406     1.0000 0.67140  0.93130  0.04560  Biso   1.000  H
  H407     1.0000 0.32860  0.43130  0.45440  Biso   1.000  H
  H408     1.0000 0.67140  0.06870  0.45440  Biso   1.000  H
  H409     1.0000 0.82860  0.06870  0.04560  Biso   1.000  H
  H410     1.0000 0.32860  0.56870  0.04560  Biso   1.000  H
  H411     1.0000 0.82860  0.56870  0.95440  Biso   1.000  H
  H412     1.0000 0.17140  0.06870  0.54560  Biso   1.000  H
  H413     1.0000 0.82860  0.43130  0.54560  Biso   1.000  H
  H414     1.0000 0.32860  0.06870  0.95440  Biso   1.000  H
  H415     1.0000 0.67140  0.56870  0.54560  Biso   1.000  H
  H416     1.0000 0.32860  0.93130  0.54560  Biso   1.000  H
  C257     1.0000 0.13370  0.95458  0.07990  Biso   1.000  C
  C258     1.0000 0.63370  0.45458  0.07990  Biso   1.000  C
  C259     1.0000 0.13370  0.45458  0.92010  Biso   1.000  C
  C260     1.0000 0.86630  0.95458  0.57990  Biso   1.000  C
  C261     1.0000 0.13370  0.54542  0.57990  Biso   1.000  C
  C262     1.0000 0.63370  0.95458  0.92010  Biso   1.000  C
  C263     1.0000 0.36630  0.45458  0.57990  Biso   1.000  C
  C264     1.0000 0.63370  0.04542  0.57990  Biso   1.000  C
  C265     1.0000 0.86630  0.04542  0.92010  Biso   1.000  C
  C266     1.0000 0.36630  0.54542  0.92010  Biso   1.000  C
  C267     1.0000 0.86630  0.54542  0.07990  Biso   1.000  C
  C268     1.0000 0.13370  0.04542  0.42010  Biso   1.000  C
  C269     1.0000 0.86630  0.45458  0.42010  Biso   1.000  C
  C270     1.0000 0.36630  0.04542  0.07990  Biso   1.000  C
  C271     1.0000 0.63370  0.54542  0.42010  Biso   1.000  C
  C272     1.0000 0.36630  0.95458  0.42010  Biso   1.000  C
  H417     1.0000 0.15500  0.95120  0.14600  Biso   1.000  H
  H418     1.0000 0.65500  0.45120  0.14600  Biso   1.000  H
  H419     1.0000 0.15500  0.45120  0.85400  Biso   1.000  H
  H420     1.0000 0.84500  0.95120  0.64600  Biso   1.000  H
  H421     1.0000 0.15500  0.54880  0.64600  Biso   1.000  H
  H422     1.0000 0.65500  0.95120  0.85400  Biso   1.000  H
  H423     1.0000 0.34500  0.45120  0.64600  Biso   1.000  H
  H424     1.0000 0.65500  0.04880  0.64600  Biso   1.000  H
  H425     1.0000 0.84500  0.04880  0.85400  Biso   1.000  H
  H426     1.0000 0.34500  0.54880  0.85400  Biso   1.000  H
  H427     1.0000 0.84500  0.54880  0.14600  Biso   1.000  H
  H428     1.0000 0.15500  0.04880  0.35400  Biso   1.000  H
  H429     1.0000 0.84500  0.45120  0.35400  Biso   1.000  H
  H430     1.0000 0.34500  0.04880  0.14600  Biso   1.000  H
  H431     1.0000 0.65500  0.54880  0.35400  Biso   1.000  H
  H432     1.0000 0.34500  0.95120  0.35400  Biso   1.000  H
  C273     1.0000 0.09190  0.97152  0.09580  Biso   1.000  C
  C274     1.0000 0.59190  0.47152  0.09580  Biso   1.000  C
  C275     1.0000 0.09190  0.47152  0.90420  Biso   1.000  C
  C276     1.0000 0.90810  0.97152  0.59580  Biso   1.000  C
  C277     1.0000 0.09190  0.52848  0.59580  Biso   1.000  C
  C278     1.0000 0.59190  0.97152  0.90420  Biso   1.000  C
  C279     1.0000 0.40810  0.47152  0.59580  Biso   1.000  C
  C280     1.0000 0.59190  0.02848  0.59580  Biso   1.000  C
  C281     1.0000 0.90810  0.02848  0.90420  Biso   1.000  C
  C282     1.0000 0.40810  0.52848  0.90420  Biso   1.000  C
  C283     1.0000 0.90810  0.52848  0.09580  Biso   1.000  C
  C284     1.0000 0.09190  0.02848  0.40420  Biso   1.000  C
  C285     1.0000 0.90810  0.47152  0.40420  Biso   1.000  C
  C286     1.0000 0.40810  0.02848  0.09580  Biso   1.000  C
  C287     1.0000 0.59190  0.52848  0.40420  Biso   1.000  C
  C288     1.0000 0.40810  0.97152  0.40420  Biso   1.000  C
  H433     1.0000 0.08530  0.97950  0.17260  Biso   1.000  H
  H434     1.0000 0.58530  0.47950  0.17260  Biso   1.000  H
  H435     1.0000 0.08530  0.47950  0.82740  Biso   1.000  H
  H436     1.0000 0.91470  0.97950  0.67260  Biso   1.000  H
  H437     1.0000 0.08530  0.52050  0.67260  Biso   1.000  H
  H438     1.0000 0.58530  0.97950  0.82740  Biso   1.000  H
  H439     1.0000 0.41470  0.47950  0.67260  Biso   1.000  H
  H440     1.0000 0.58530  0.02050  0.67260  Biso   1.000  H
  H441     1.0000 0.91470  0.02050  0.82740  Biso   1.000  H
  H442     1.0000 0.41470  0.52050  0.82740  Biso   1.000  H
  H443     1.0000 0.91470  0.52050  0.17260  Biso   1.000  H
  H444     1.0000 0.08530  0.02050  0.32740  Biso   1.000  H
  H445     1.0000 0.91470  0.47950  0.32740  Biso   1.000  H
  H446     1.0000 0.41470  0.02050  0.17260  Biso   1.000  H
  H447     1.0000 0.58530  0.52050  0.32740  Biso   1.000  H
  H448     1.0000 0.41470  0.97950  0.32740  Biso   1.000  H
  C289     1.0000 0.04670  0.10320  0.01300  Biso   1.000  C
  C290     1.0000 0.54670  0.60320  0.01300  Biso   1.000  C
  C291     1.0000 0.04670  0.60320  0.98700  Biso   1.000  C
  C292     1.0000 0.95330  0.10320  0.51300  Biso   1.000  C
  C293     1.0000 0.04670  0.39680  0.51300  Biso   1.000  C
  C294     1.0000 0.54670  0.10320  0.98700  Biso   1.000  C
  C295     1.0000 0.45330  0.60320  0.51300  Biso   1.000  C
  C296     1.0000 0.54670  0.89680  0.51300  Biso   1.000  C
  C297     1.0000 0.95330  0.89680  0.98700  Biso   1.000  C
  C298     1.0000 0.45330  0.39680  0.98700  Biso   1.000  C
  C299     1.0000 0.95330  0.39680  0.01300  Biso   1.000  C
  C300     1.0000 0.04670  0.89680  0.48700  Biso   1.000  C
  C301     1.0000 0.95330  0.60320  0.48700  Biso   1.000  C
  C302     1.0000 0.45330  0.89680  0.01300  Biso   1.000  C
  C303     1.0000 0.54670  0.39680  0.48700  Biso   1.000  C
  C304     1.0000 0.45330  0.10320  0.48700  Biso   1.000  C
  C305     1.0000 0.05700  0.12120  0.90500  Biso   1.000  C
  C306     1.0000 0.55700  0.62120  0.90500  Biso   1.000  C
  C307     1.0000 0.05700  0.62120  0.09500  Biso   1.000  C
  C308     1.0000 0.94300  0.12120  0.40500  Biso   1.000  C
  C309     1.0000 0.05700  0.37880  0.40500  Biso   1.000  C
  C310     1.0000 0.55700  0.12120  0.09500  Biso   1.000  C
  C311     1.0000 0.44300  0.62120  0.40500  Biso   1.000  C
  C312     1.0000 0.55700  0.87880  0.40500  Biso   1.000  C
  C313     1.0000 0.94300  0.87880  0.09500  Biso   1.000  C
  C314     1.0000 0.44300  0.37880  0.09500  Biso   1.000  C
  C315     1.0000 0.94300  0.37880  0.90500  Biso   1.000  C
  C316     1.0000 0.05700  0.87880  0.59500  Biso   1.000  C
  C317     1.0000 0.94300  0.62120  0.59500  Biso   1.000  C
  C318     1.0000 0.44300  0.87880  0.90500  Biso   1.000  C
  C319     1.0000 0.55700  0.37880  0.59500  Biso   1.000  C
  C320     1.0000 0.44300  0.12120  0.59500  Biso   1.000  C
  H449     1.0000 0.09110  0.12740  0.90700  Biso   1.000  H
  H450     1.0000 0.59110  0.62740  0.90700  Biso   1.000  H
  H451     1.0000 0.09110  0.62740  0.09300  Biso   1.000  H
  H452     1.0000 0.90890  0.12740  0.40700  Biso   1.000  H
  H453     1.0000 0.09110  0.37260  0.40700  Biso   1.000  H
  H454     1.0000 0.59110  0.12740  0.09300  Biso   1.000  H
  H455     1.0000 0.40890  0.62740  0.40700  Biso   1.000  H
  H456     1.0000 0.59110  0.87260  0.40700  Biso   1.000  H
  H457     1.0000 0.90890  0.87260  0.09300  Biso   1.000  H
  H458     1.0000 0.40890  0.37260  0.09300  Biso   1.000  H
  H459     1.0000 0.90890  0.37260  0.90700  Biso   1.000  H
  H460     1.0000 0.09110  0.87260  0.59300  Biso   1.000  H
  H461     1.0000 0.90890  0.62740  0.59300  Biso   1.000  H
  H462     1.0000 0.40890  0.87260  0.90700  Biso   1.000  H
  H463     1.0000 0.59110  0.37260  0.59300  Biso   1.000  H
  H464     1.0000 0.40890  0.12740  0.59300  Biso   1.000  H
  H465     1.0000 0.03530  0.13730  0.90630  Biso   1.000  H
  H466     1.0000 0.53530  0.63730  0.90630  Biso   1.000  H
  H467     1.0000 0.03530  0.63730  0.09370  Biso   1.000  H
  H468     1.0000 0.96470  0.13730  0.40630  Biso   1.000  H
  H469     1.0000 0.03530  0.36270  0.40630  Biso   1.000  H
  H470     1.0000 0.53530  0.13730  0.09370  Biso   1.000  H
  H471     1.0000 0.46470  0.63730  0.40630  Biso   1.000  H
  H472     1.0000 0.53530  0.86270  0.40630  Biso   1.000  H
  H473     1.0000 0.96470  0.86270  0.09370  Biso   1.000  H
  H474     1.0000 0.46470  0.36270  0.09370  Biso   1.000  H
  H475     1.0000 0.96470  0.36270  0.90630  Biso   1.000  H
  H476     1.0000 0.03530  0.86270  0.59370  Biso   1.000  H
  H477     1.0000 0.96470  0.63730  0.59370  Biso   1.000  H
  H478     1.0000 0.46470  0.86270  0.90630  Biso   1.000  H
  H479     1.0000 0.53530  0.36270  0.59370  Biso   1.000  H
  H480     1.0000 0.46470  0.13730  0.59370  Biso   1.000  H
  H481     1.0000 0.05130  0.11070  0.83020  Biso   1.000  H
  H482     1.0000 0.55130  0.61070  0.83020  Biso   1.000  H
  H483     1.0000 0.05130  0.61070  0.16980  Biso   1.000  H
  H484     1.0000 0.94870  0.11070  0.33020  Biso   1.000  H
  H485     1.0000 0.05130  0.38930  0.33020  Biso   1.000  H
  H486     1.0000 0.55130  0.11070  0.16980  Biso   1.000  H
  H487     1.0000 0.44870  0.61070  0.33020  Biso   1.000  H
  H488     1.0000 0.55130  0.88930  0.33020  Biso   1.000  H
  H489     1.0000 0.94870  0.88930  0.16980  Biso   1.000  H
  H490     1.0000 0.44870  0.38930  0.16980  Biso   1.000  H
  H491     1.0000 0.94870  0.38930  0.83020  Biso   1.000  H
  H492     1.0000 0.05130  0.88930  0.66980  Biso   1.000  H
  H493     1.0000 0.94870  0.61070  0.66980  Biso   1.000  H
  H494     1.0000 0.44870  0.88930  0.83020  Biso   1.000  H
  H495     1.0000 0.55130  0.38930  0.66980  Biso   1.000  H
  H496     1.0000 0.44870  0.11070  0.66980  Biso   1.000  H
  C321     1.0000 0.99230  0.09250  0.00800  Biso   1.000  C
  C322     1.0000 0.49230  0.59250  0.00800  Biso   1.000  C
  C323     1.0000 0.99230  0.59250  0.99200  Biso   1.000  C
  C324     1.0000 0.00770  0.09250  0.50800  Biso   1.000  C
  C325     1.0000 0.99230  0.40750  0.50800  Biso   1.000  C
  C326     1.0000 0.49230  0.09250  0.99200  Biso   1.000  C
  C327     1.0000 0.50770  0.59250  0.50800  Biso   1.000  C
  C328     1.0000 0.49230  0.90750  0.50800  Biso   1.000  C
  C329     1.0000 0.00770  0.90750  0.99200  Biso   1.000  C
  C330     1.0000 0.50770  0.40750  0.99200  Biso   1.000  C
  C331     1.0000 0.00770  0.40750  0.00800  Biso   1.000  C
  C332     1.0000 0.99230  0.90750  0.49200  Biso   1.000  C
  C333     1.0000 0.00770  0.59250  0.49200  Biso   1.000  C
  C334     1.0000 0.50770  0.90750  0.00800  Biso   1.000  C
  C335     1.0000 0.49230  0.40750  0.49200  Biso   1.000  C
  C336     1.0000 0.50770  0.09250  0.49200  Biso   1.000  C
  H497     1.0000 0.98610  0.08040  0.07700  Biso   1.000  H
  H498     1.0000 0.48610  0.58040  0.07700  Biso   1.000  H
  H499     1.0000 0.98610  0.58040  0.92300  Biso   1.000  H
  H500     1.0000 0.01390  0.08040  0.57700  Biso   1.000  H
  H501     1.0000 0.98610  0.41960  0.57700  Biso   1.000  H
  H502     1.0000 0.48610  0.08040  0.92300  Biso   1.000  H
  H503     1.0000 0.51390  0.58040  0.57700  Biso   1.000  H
  H504     1.0000 0.48610  0.91960  0.57700  Biso   1.000  H
  H505     1.0000 0.01390  0.91960  0.92300  Biso   1.000  H
  H506     1.0000 0.51390  0.41960  0.92300  Biso   1.000  H
  H507     1.0000 0.01390  0.41960  0.07700  Biso   1.000  H
  H508     1.0000 0.98610  0.91960  0.42300  Biso   1.000  H
  H509     1.0000 0.01390  0.58040  0.42300  Biso   1.000  H
  H510     1.0000 0.51390  0.91960  0.07700  Biso   1.000  H
  H511     1.0000 0.48610  0.41960  0.42300  Biso   1.000  H
  H512     1.0000 0.51390  0.08040  0.42300  Biso   1.000  H
  H513     1.0000 0.98710  0.08230  0.93230  Biso   1.000  H
  H514     1.0000 0.48710  0.58230  0.93230  Biso   1.000  H
  H515     1.0000 0.98710  0.58230  0.06770  Biso   1.000  H
  H516     1.0000 0.01290  0.08230  0.43230  Biso   1.000  H
  H517     1.0000 0.98710  0.41770  0.43230  Biso   1.000  H
  H518     1.0000 0.48710  0.08230  0.06770  Biso   1.000  H
  H519     1.0000 0.51290  0.58230  0.43230  Biso   1.000  H
  H520     1.0000 0.48710  0.91770  0.43230  Biso   1.000  H
  H521     1.0000 0.01290  0.91770  0.06770  Biso   1.000  H
  H522     1.0000 0.51290  0.41770  0.06770  Biso   1.000  H
  H523     1.0000 0.01290  0.41770  0.93230  Biso   1.000  H
  H524     1.0000 0.98710  0.91770  0.56770  Biso   1.000  H
  H525     1.0000 0.01290  0.58230  0.56770  Biso   1.000  H
  H526     1.0000 0.51290  0.91770  0.93230  Biso   1.000  H
  H527     1.0000 0.48710  0.41770  0.56770  Biso   1.000  H
  H528     1.0000 0.51290  0.08230  0.56770  Biso   1.000  H
  H529     1.0000 0.96980  0.10820  0.01060  Biso   1.000  H
  H530     1.0000 0.46980  0.60820  0.01060  Biso   1.000  H
  H531     1.0000 0.96980  0.60820  0.98940  Biso   1.000  H
  H532     1.0000 0.03020  0.10820  0.51060  Biso   1.000  H
  H533     1.0000 0.96980  0.39180  0.51060  Biso   1.000  H
  H534     1.0000 0.46980  0.10820  0.98940  Biso   1.000  H
  H535     1.0000 0.53020  0.60820  0.51060  Biso   1.000  H
  H536     1.0000 0.46980  0.89180  0.51060  Biso   1.000  H
  H537     1.0000 0.03020  0.89180  0.98940  Biso   1.000  H
  H538     1.0000 0.53020  0.39180  0.98940  Biso   1.000  H
  H539     1.0000 0.03020  0.39180  0.01060  Biso   1.000  H
  H540     1.0000 0.96980  0.89180  0.48940  Biso   1.000  H
  H541     1.0000 0.03020  0.60820  0.48940  Biso   1.000  H
  H542     1.0000 0.53020  0.89180  0.01060  Biso   1.000  H
  H543     1.0000 0.46980  0.39180  0.48940  Biso   1.000  H
  H544     1.0000 0.53020  0.10820  0.48940  Biso   1.000  H
  C337     1.0000 0.05810  0.11710  0.14000  Biso   1.000  C
  C338     1.0000 0.55810  0.61710  0.14000  Biso   1.000  C
  C339     1.0000 0.05810  0.61710  0.86000  Biso   1.000  C
  C340     1.0000 0.94190  0.11710  0.64000  Biso   1.000  C
  C341     1.0000 0.05810  0.38290  0.64000  Biso   1.000  C
  C342     1.0000 0.55810  0.11710  0.86000  Biso   1.000  C
  C343     1.0000 0.44190  0.61710  0.64000  Biso   1.000  C
  C344     1.0000 0.55810  0.88290  0.64000  Biso   1.000  C
  C345     1.0000 0.94190  0.88290  0.86000  Biso   1.000  C
  C346     1.0000 0.44190  0.38290  0.86000  Biso   1.000  C
  C347     1.0000 0.94190  0.38290  0.14000  Biso   1.000  C
  C348     1.0000 0.05810  0.88290  0.36000  Biso   1.000  C
  C349     1.0000 0.94190  0.61710  0.36000  Biso   1.000  C
  C350     1.0000 0.44190  0.88290  0.14000  Biso   1.000  C
  C351     1.0000 0.55810  0.38290  0.36000  Biso   1.000  C
  C352     1.0000 0.44190  0.11710  0.36000  Biso   1.000  C
  H545     1.0000 0.05130  0.10390  0.20480  Biso   1.000  H
  H546     1.0000 0.55130  0.60390  0.20480  Biso   1.000  H
  H547     1.0000 0.05130  0.60390  0.79520  Biso   1.000  H
  H548     1.0000 0.94870  0.10390  0.70480  Biso   1.000  H
  H549     1.0000 0.05130  0.39610  0.70480  Biso   1.000  H
  H550     1.0000 0.55130  0.10390  0.79520  Biso   1.000  H
  H551     1.0000 0.44870  0.60390  0.70480  Biso   1.000  H
  H552     1.0000 0.55130  0.89610  0.70480  Biso   1.000  H
  H553     1.0000 0.94870  0.89610  0.79520  Biso   1.000  H
  H554     1.0000 0.44870  0.39610  0.79520  Biso   1.000  H
  H555     1.0000 0.94870  0.39610  0.20480  Biso   1.000  H
  H556     1.0000 0.05130  0.89610  0.29520  Biso   1.000  H
  H557     1.0000 0.94870  0.60390  0.29520  Biso   1.000  H
  H558     1.0000 0.44870  0.89610  0.20480  Biso   1.000  H
  H559     1.0000 0.55130  0.39610  0.29520  Biso   1.000  H
  H560     1.0000 0.44870  0.10390  0.29520  Biso   1.000  H
  H561     1.0000 0.03750  0.13340  0.15030  Biso   1.000  H
  H562     1.0000 0.53750  0.63340  0.15030  Biso   1.000  H
  H563     1.0000 0.03750  0.63340  0.84970  Biso   1.000  H
  H564     1.0000 0.96250  0.13340  0.65030  Biso   1.000  H
  H565     1.0000 0.03750  0.36660  0.65030  Biso   1.000  H
  H566     1.0000 0.53750  0.13340  0.84970  Biso   1.000  H
  H567     1.0000 0.46250  0.63340  0.65030  Biso   1.000  H
  H568     1.0000 0.53750  0.86660  0.65030  Biso   1.000  H
  H569     1.0000 0.96250  0.86660  0.84970  Biso   1.000  H
  H570     1.0000 0.46250  0.36660  0.84970  Biso   1.000  H
  H571     1.0000 0.96250  0.36660  0.15030  Biso   1.000  H
  H572     1.0000 0.03750  0.86660  0.34970  Biso   1.000  H
  H573     1.0000 0.96250  0.63340  0.34970  Biso   1.000  H
  H574     1.0000 0.46250  0.86660  0.15030  Biso   1.000  H
  H575     1.0000 0.53750  0.36660  0.34970  Biso   1.000  H
  H576     1.0000 0.46250  0.13340  0.34970  Biso   1.000  H
  H577     1.0000 0.09260  0.12250  0.14290  Biso   1.000  H
  H578     1.0000 0.59260  0.62250  0.14290  Biso   1.000  H
  H579     1.0000 0.09260  0.62250  0.85710  Biso   1.000  H
  H580     1.0000 0.90740  0.12250  0.64290  Biso   1.000  H
  H581     1.0000 0.09260  0.37750  0.64290  Biso   1.000  H
  H582     1.0000 0.59260  0.12250  0.85710  Biso   1.000  H
  H583     1.0000 0.40740  0.62250  0.64290  Biso   1.000  H
  H584     1.0000 0.59260  0.87750  0.64290  Biso   1.000  H
  H585     1.0000 0.90740  0.87750  0.85710  Biso   1.000  H
  H586     1.0000 0.40740  0.37750  0.85710  Biso   1.000  H
  H587     1.0000 0.90740  0.37750  0.14290  Biso   1.000  H
  H588     1.0000 0.09260  0.87750  0.35710  Biso   1.000  H
  H589     1.0000 0.90740  0.62250  0.35710  Biso   1.000  H
  H590     1.0000 0.40740  0.87750  0.14290  Biso   1.000  H
  H591     1.0000 0.59260  0.37750  0.35710  Biso   1.000  H
  H592     1.0000 0.40740  0.12250  0.35710  Biso   1.000  H
  C353     1.0000 0.17880  0.04410  0.99900  Biso   1.000  C
  C354     1.0000 0.67880  0.54410  0.99900  Biso   1.000  C
  C355     1.0000 0.17880  0.54410  0.00100  Biso   1.000  C
  C356     1.0000 0.82120  0.04410  0.49900  Biso   1.000  C
  C357     1.0000 0.17880  0.45590  0.49900  Biso   1.000  C
  C358     1.0000 0.67880  0.04410  0.00100  Biso   1.000  C
  C359     1.0000 0.32120  0.54410  0.49900  Biso   1.000  C
  C360     1.0000 0.67880  0.95590  0.49900  Biso   1.000  C
  C361     1.0000 0.82120  0.95590  0.00100  Biso   1.000  C
  C362     1.0000 0.32120  0.45590  0.00100  Biso   1.000  C
  C363     1.0000 0.82120  0.45590  0.99900  Biso   1.000  C
  C364     1.0000 0.17880  0.95590  0.50100  Biso   1.000  C
  C365     1.0000 0.82120  0.54410  0.50100  Biso   1.000  C
  C366     1.0000 0.32120  0.95590  0.99900  Biso   1.000  C
  C367     1.0000 0.67880  0.45590  0.50100  Biso   1.000  C
  C368     1.0000 0.32120  0.04410  0.50100  Biso   1.000  C
  C369     1.0000 0.18820  0.07210  0.00900  Biso   1.000  C
  C370     1.0000 0.68820  0.57210  0.00900  Biso   1.000  C
  C371     1.0000 0.18820  0.57210  0.99100  Biso   1.000  C
  C372     1.0000 0.81180  0.07210  0.50900  Biso   1.000  C
  C373     1.0000 0.18820  0.42790  0.50900  Biso   1.000  C
  C374     1.0000 0.68820  0.07210  0.99100  Biso   1.000  C
  C375     1.0000 0.31180  0.57210  0.50900  Biso   1.000  C
  C376     1.0000 0.68820  0.92790  0.50900  Biso   1.000  C
  C377     1.0000 0.81180  0.92790  0.99100  Biso   1.000  C
  C378     1.0000 0.31180  0.42790  0.99100  Biso   1.000  C
  C379     1.0000 0.81180  0.42790  0.00900  Biso   1.000  C
  C380     1.0000 0.18820  0.92790  0.49100  Biso   1.000  C
  C381     1.0000 0.81180  0.57210  0.49100  Biso   1.000  C
  C382     1.0000 0.31180  0.92790  0.00900  Biso   1.000  C
  C383     1.0000 0.68820  0.42790  0.49100  Biso   1.000  C
  C384     1.0000 0.31180  0.07210  0.49100  Biso   1.000  C
  H593     1.0000 0.17310  0.07930  0.08280  Biso   1.000  H
  H594     1.0000 0.67310  0.57930  0.08280  Biso   1.000  H
  H595     1.0000 0.17310  0.57930  0.91720  Biso   1.000  H
  H596     1.0000 0.82690  0.07930  0.58280  Biso   1.000  H
  H597     1.0000 0.17310  0.42070  0.58280  Biso   1.000  H
  H598     1.0000 0.67310  0.07930  0.91720  Biso   1.000  H
  H599     1.0000 0.32690  0.57930  0.58280  Biso   1.000  H
  H600     1.0000 0.67310  0.92070  0.58280  Biso   1.000  H
  H601     1.0000 0.82690  0.92070  0.91720  Biso   1.000  H
  H602     1.0000 0.32690  0.42070  0.91720  Biso   1.000  H
  H603     1.0000 0.82690  0.42070  0.08280  Biso   1.000  H
  H604     1.0000 0.17310  0.92070  0.41720  Biso   1.000  H
  H605     1.0000 0.82690  0.57930  0.41720  Biso   1.000  H
  H606     1.0000 0.32690  0.92070  0.08280  Biso   1.000  H
  H607     1.0000 0.67310  0.42070  0.41720  Biso   1.000  H
  H608     1.0000 0.32690  0.07930  0.41720  Biso   1.000  H
  H609     1.0000 0.17440  0.08170  0.93830  Biso   1.000  H
  H610     1.0000 0.67440  0.58170  0.93830  Biso   1.000  H
  H611     1.0000 0.17440  0.58170  0.06170  Biso   1.000  H
  H612     1.0000 0.82560  0.08170  0.43830  Biso   1.000  H
  H613     1.0000 0.17440  0.41830  0.43830  Biso   1.000  H
  H614     1.0000 0.67440  0.08170  0.06170  Biso   1.000  H
  H615     1.0000 0.32560  0.58170  0.43830  Biso   1.000  H
  H616     1.0000 0.67440  0.91830  0.43830  Biso   1.000  H
  H617     1.0000 0.82560  0.91830  0.06170  Biso   1.000  H
  H618     1.0000 0.32560  0.41830  0.06170  Biso   1.000  H
  H619     1.0000 0.82560  0.41830  0.93830  Biso   1.000  H
  H620     1.0000 0.17440  0.91830  0.56170  Biso   1.000  H
  H621     1.0000 0.82560  0.58170  0.56170  Biso   1.000  H
  H622     1.0000 0.32560  0.91830  0.93830  Biso   1.000  H
  H623     1.0000 0.67440  0.41830  0.56170  Biso   1.000  H
  H624     1.0000 0.32560  0.08170  0.56170  Biso   1.000  H
  H625     1.0000 0.22360  0.07520  0.01160  Biso   1.000  H
  H626     1.0000 0.72360  0.57520  0.01160  Biso   1.000  H
  H627     1.0000 0.22360  0.57520  0.98840  Biso   1.000  H
  H628     1.0000 0.77640  0.07520  0.51160  Biso   1.000  H
  H629     1.0000 0.22360  0.42480  0.51160  Biso   1.000  H
  H630     1.0000 0.72360  0.07520  0.98840  Biso   1.000  H
  H631     1.0000 0.27640  0.57520  0.51160  Biso   1.000  H
  H632     1.0000 0.72360  0.92480  0.51160  Biso   1.000  H
  H633     1.0000 0.77640  0.92480  0.98840  Biso   1.000  H
  H634     1.0000 0.27640  0.42480  0.98840  Biso   1.000  H
  H635     1.0000 0.77640  0.42480  0.01160  Biso   1.000  H
  H636     1.0000 0.22360  0.92480  0.48840  Biso   1.000  H
  H637     1.0000 0.77640  0.57520  0.48840  Biso   1.000  H
  H638     1.0000 0.27640  0.92480  0.01160  Biso   1.000  H
  H639     1.0000 0.72360  0.42480  0.48840  Biso   1.000  H
  H640     1.0000 0.27640  0.07520  0.48840  Biso   1.000  H
  C385     1.0000 0.19920  0.02760  0.89500  Biso   1.000  C
  C386     1.0000 0.69920  0.52760  0.89500  Biso   1.000  C
  C387     1.0000 0.19920  0.52760  0.10500  Biso   1.000  C
  C388     1.0000 0.80080  0.02760  0.39500  Biso   1.000  C
  C389     1.0000 0.19920  0.47240  0.39500  Biso   1.000  C
  C390     1.0000 0.69920  0.02760  0.10500  Biso   1.000  C
  C391     1.0000 0.30080  0.52760  0.39500  Biso   1.000  C
  C392     1.0000 0.69920  0.97240  0.39500  Biso   1.000  C
  C393     1.0000 0.80080  0.97240  0.10500  Biso   1.000  C
  C394     1.0000 0.30080  0.47240  0.10500  Biso   1.000  C
  C395     1.0000 0.80080  0.47240  0.89500  Biso   1.000  C
  C396     1.0000 0.19920  0.97240  0.60500  Biso   1.000  C
  C397     1.0000 0.80080  0.52760  0.60500  Biso   1.000  C
  C398     1.0000 0.30080  0.97240  0.89500  Biso   1.000  C
  C399     1.0000 0.69920  0.47240  0.60500  Biso   1.000  C
  C400     1.0000 0.30080  0.02760  0.60500  Biso   1.000  C
  H641     1.0000 0.19170  0.00810  0.90740  Biso   1.000  H
  H642     1.0000 0.69170  0.50810  0.90740  Biso   1.000  H
  H643     1.0000 0.19170  0.50810  0.09260  Biso   1.000  H
  H644     1.0000 0.80830  0.00810  0.40740  Biso   1.000  H
  H645     1.0000 0.19170  0.49190  0.40740  Biso   1.000  H
  H646     1.0000 0.69170  0.00810  0.09260  Biso   1.000  H
  H647     1.0000 0.30830  0.50810  0.40740  Biso   1.000  H
  H648     1.0000 0.69170  0.99190  0.40740  Biso   1.000  H
  H649     1.0000 0.80830  0.99190  0.09260  Biso   1.000  H
  H650     1.0000 0.30830  0.49190  0.09260  Biso   1.000  H
  H651     1.0000 0.80830  0.49190  0.90740  Biso   1.000  H
  H652     1.0000 0.19170  0.99190  0.59260  Biso   1.000  H
  H653     1.0000 0.80830  0.50810  0.59260  Biso   1.000  H
  H654     1.0000 0.30830  0.99190  0.90740  Biso   1.000  H
  H655     1.0000 0.69170  0.49190  0.59260  Biso   1.000  H
  H656     1.0000 0.30830  0.00810  0.59260  Biso   1.000  H
  H657     1.0000 0.23470  0.03010  0.89140  Biso   1.000  H
  H658     1.0000 0.73470  0.53010  0.89140  Biso   1.000  H
  H659     1.0000 0.23470  0.53010  0.10860  Biso   1.000  H
  H660     1.0000 0.76530  0.03010  0.39140  Biso   1.000  H
  H661     1.0000 0.23470  0.46990  0.39140  Biso   1.000  H
  H662     1.0000 0.73470  0.03010  0.10860  Biso   1.000  H
  H663     1.0000 0.26530  0.53010  0.39140  Biso   1.000  H
  H664     1.0000 0.73470  0.96990  0.39140  Biso   1.000  H
  H665     1.0000 0.76530  0.96990  0.10860  Biso   1.000  H
  H666     1.0000 0.26530  0.46990  0.10860  Biso   1.000  H
  H667     1.0000 0.76530  0.46990  0.89140  Biso   1.000  H
  H668     1.0000 0.23470  0.96990  0.60860  Biso   1.000  H
  H669     1.0000 0.76530  0.53010  0.60860  Biso   1.000  H
  H670     1.0000 0.26530  0.96990  0.89140  Biso   1.000  H
  H671     1.0000 0.73470  0.46990  0.60860  Biso   1.000  H
  H672     1.0000 0.26530  0.03010  0.60860  Biso   1.000  H
  H673     1.0000 0.18440  0.03390  0.81940  Biso   1.000  H
  H674     1.0000 0.68440  0.53390  0.81940  Biso   1.000  H
  H675     1.0000 0.18440  0.53390  0.18060  Biso   1.000  H
  H676     1.0000 0.81560  0.03390  0.31940  Biso   1.000  H
  H677     1.0000 0.18440  0.46610  0.31940  Biso   1.000  H
  H678     1.0000 0.68440  0.03390  0.18060  Biso   1.000  H
  H679     1.0000 0.31560  0.53390  0.31940  Biso   1.000  H
  H680     1.0000 0.68440  0.96610  0.31940  Biso   1.000  H
  H681     1.0000 0.81560  0.96610  0.18060  Biso   1.000  H
  H682     1.0000 0.31560  0.46610  0.18060  Biso   1.000  H
  H683     1.0000 0.81560  0.46610  0.81940  Biso   1.000  H
  H684     1.0000 0.18440  0.96610  0.68060  Biso   1.000  H
  H685     1.0000 0.81560  0.53390  0.68060  Biso   1.000  H
  H686     1.0000 0.31560  0.96610  0.81940  Biso   1.000  H
  H687     1.0000 0.68440  0.46610  0.68060  Biso   1.000  H
  H688     1.0000 0.31560  0.03390  0.68060  Biso   1.000  H
  C401     1.0000 0.20210  0.03100  0.09700  Biso   1.000  C
  C402     1.0000 0.70210  0.53100  0.09700  Biso   1.000  C
  C403     1.0000 0.20210  0.53100  0.90300  Biso   1.000  C
  C404     1.0000 0.79790  0.03100  0.59700  Biso   1.000  C
  C405     1.0000 0.20210  0.46900  0.59700  Biso   1.000  C
  C406     1.0000 0.70210  0.03100  0.90300  Biso   1.000  C
  C407     1.0000 0.29790  0.53100  0.59700  Biso   1.000  C
  C408     1.0000 0.70210  0.96900  0.59700  Biso   1.000  C
  C409     1.0000 0.79790  0.96900  0.90300  Biso   1.000  C
  C410     1.0000 0.29790  0.46900  0.90300  Biso   1.000  C
  C411     1.0000 0.79790  0.46900  0.09700  Biso   1.000  C
  C412     1.0000 0.20210  0.96900  0.40300  Biso   1.000  C
  C413     1.0000 0.79790  0.53100  0.40300  Biso   1.000  C
  C414     1.0000 0.29790  0.96900  0.09700  Biso   1.000  C
  C415     1.0000 0.70210  0.46900  0.40300  Biso   1.000  C
  C416     1.0000 0.29790  0.03100  0.40300  Biso   1.000  C
  H689     1.0000 0.19160  0.01170  0.10080  Biso   1.000  H
  H690     1.0000 0.69160  0.51170  0.10080  Biso   1.000  H
  H691     1.0000 0.19160  0.51170  0.89920  Biso   1.000  H
  H692     1.0000 0.80840  0.01170  0.60080  Biso   1.000  H
  H693     1.0000 0.19160  0.48830  0.60080  Biso   1.000  H
  H694     1.0000 0.69160  0.01170  0.89920  Biso   1.000  H
  H695     1.0000 0.30840  0.51170  0.60080  Biso   1.000  H
  H696     1.0000 0.69160  0.98830  0.60080  Biso   1.000  H
  H697     1.0000 0.80840  0.98830  0.89920  Biso   1.000  H
  H698     1.0000 0.30840  0.48830  0.89920  Biso   1.000  H
  H699     1.0000 0.80840  0.48830  0.10080  Biso   1.000  H
  H700     1.0000 0.19160  0.98830  0.39920  Biso   1.000  H
  H701     1.0000 0.80840  0.51170  0.39920  Biso   1.000  H
  H702     1.0000 0.30840  0.98830  0.10080  Biso   1.000  H
  H703     1.0000 0.69160  0.48830  0.39920  Biso   1.000  H
  H704     1.0000 0.30840  0.01170  0.39920  Biso   1.000  H
  H705     1.0000 0.19340  0.04040  0.17240  Biso   1.000  H
  H706     1.0000 0.69340  0.54040  0.17240  Biso   1.000  H
  H707     1.0000 0.19340  0.54040  0.82760  Biso   1.000  H
  H708     1.0000 0.80660  0.04040  0.67240  Biso   1.000  H
  H709     1.0000 0.19340  0.45960  0.67240  Biso   1.000  H
  H710     1.0000 0.69340  0.04040  0.82760  Biso   1.000  H
  H711     1.0000 0.30660  0.54040  0.67240  Biso   1.000  H
  H712     1.0000 0.69340  0.95960  0.67240  Biso   1.000  H
  H713     1.0000 0.80660  0.95960  0.82760  Biso   1.000  H
  H714     1.0000 0.30660  0.45960  0.82760  Biso   1.000  H
  H715     1.0000 0.80660  0.45960  0.17240  Biso   1.000  H
  H716     1.0000 0.19340  0.95960  0.32760  Biso   1.000  H
  H717     1.0000 0.80660  0.54040  0.32760  Biso   1.000  H
  H718     1.0000 0.30660  0.95960  0.17240  Biso   1.000  H
  H719     1.0000 0.69340  0.45960  0.32760  Biso   1.000  H
  H720     1.0000 0.30660  0.04040  0.32760  Biso   1.000  H
  H721     1.0000 0.23760  0.03180  0.08540  Biso   1.000  H
  H722     1.0000 0.73760  0.53180  0.08540  Biso   1.000  H
  H723     1.0000 0.23760  0.53180  0.91460  Biso   1.000  H
  H724     1.0000 0.76240  0.03180  0.58540  Biso   1.000  H
  H725     1.0000 0.23760  0.46820  0.58540  Biso   1.000  H
  H726     1.0000 0.73760  0.03180  0.91460  Biso   1.000  H
  H727     1.0000 0.26240  0.53180  0.58540  Biso   1.000  H
  H728     1.0000 0.73760  0.96820  0.58540  Biso   1.000  H
  H729     1.0000 0.76240  0.96820  0.91460  Biso   1.000  H
  H730     1.0000 0.26240  0.46820  0.91460  Biso   1.000  H
  H731     1.0000 0.76240  0.46820  0.08540  Biso   1.000  H
  H732     1.0000 0.23760  0.96820  0.41460  Biso   1.000  H
  H733     1.0000 0.76240  0.53180  0.41460  Biso   1.000  H
  H734     1.0000 0.26240  0.96820  0.08540  Biso   1.000  H
  H735     1.0000 0.73760  0.46820  0.41460  Biso   1.000  H
  H736     1.0000 0.26240  0.03180  0.41460  Biso   1.000  H
