data_image0
_cell_length_a       29.841
_cell_length_b       48.069
_cell_length_c       16.36
_cell_angle_alpha    90
_cell_angle_beta     111.698
_cell_angle_gamma    90

_symmetry_space_group_name_H-M    "P 1"
_symmetry_int_tables_number       1

loop_
  _symmetry_equiv_pos_as_xyz
  'x, y, z'

loop_
  _atom_site_label
  _atom_site_occupancy
  _atom_site_fract_x
  _atom_site_fract_y
  _atom_site_fract_z
  _atom_site_thermal_displace_type
  _atom_site_B_iso_or_equiv
  _atom_site_type_symbol
  Cu1      1.0000 0.21208  0.25678  0.72633  Biso   1.000  Cu
  Cu2      1.0000 0.71208  0.75678  0.72633  Biso   1.000  Cu
  Cu3      1.0000 0.21208  0.74322  0.72633  Biso   1.000  Cu
  Cu4      1.0000 0.71208  0.24322  0.72633  Biso   1.000  Cu
  Cu5      1.0000 0.78792  0.74322  0.27367  Biso   1.000  Cu
  Cu6      1.0000 0.28792  0.24322  0.27367  Biso   1.000  Cu
  Cu7      1.0000 0.78792  0.25678  0.27367  Biso   1.000  Cu
  Cu8      1.0000 0.28792  0.75678  0.27367  Biso   1.000  Cu
  Cu9      1.0000 0.93260  0.00000  0.74250  Biso   1.000  Cu
  Cu10     1.0000 0.43260  0.50000  0.74250  Biso   1.000  Cu
  Cu11     1.0000 0.06740  0.00000  0.25750  Biso   1.000  Cu
  Cu12     1.0000 0.56740  0.50000  0.25750  Biso   1.000  Cu
  Cu13     1.0000 0.96450  0.00000  0.66370  Biso   1.000  Cu
  Cu14     1.0000 0.46450  0.50000  0.66370  Biso   1.000  Cu
  Cu15     1.0000 0.03550  0.00000  0.33630  Biso   1.000  Cu
  Cu16     1.0000 0.53550  0.50000  0.33630  Biso   1.000  Cu
  O1       1.0000 0.14940  0.24180  0.71260  Biso   1.000  O
  O2       1.0000 0.64940  0.74180  0.71260  Biso   1.000  O
  O3       1.0000 0.14940  0.75820  0.71260  Biso   1.000  O
  O4       1.0000 0.64940  0.25820  0.71260  Biso   1.000  O
  O5       1.0000 0.85060  0.75820  0.28740  Biso   1.000  O
  O6       1.0000 0.35060  0.25820  0.28740  Biso   1.000  O
  O7       1.0000 0.85060  0.24180  0.28740  Biso   1.000  O
  O8       1.0000 0.35060  0.74180  0.28740  Biso   1.000  O
  O9       1.0000 0.19010  0.20950  0.81240  Biso   1.000  O
  O10      1.0000 0.69010  0.70950  0.81240  Biso   1.000  O
  O11      1.0000 0.19010  0.79050  0.81240  Biso   1.000  O
  O12      1.0000 0.69010  0.29050  0.81240  Biso   1.000  O
  O13      1.0000 0.80990  0.79050  0.18760  Biso   1.000  O
  O14      1.0000 0.30990  0.29050  0.18760  Biso   1.000  O
  O15      1.0000 0.80990  0.20950  0.18760  Biso   1.000  O
  O16      1.0000 0.30990  0.70950  0.18760  Biso   1.000  O
  O17      1.0000 0.81800  0.25530  0.83880  Biso   1.000  O
  O18      1.0000 0.31800  0.75530  0.83880  Biso   1.000  O
  O19      1.0000 0.81800  0.74470  0.83880  Biso   1.000  O
  O20      1.0000 0.31800  0.24470  0.83880  Biso   1.000  O
  O21      1.0000 0.18200  0.74470  0.16120  Biso   1.000  O
  O22      1.0000 0.68200  0.24470  0.16120  Biso   1.000  O
  O23      1.0000 0.18200  0.25530  0.16120  Biso   1.000  O
  O24      1.0000 0.68200  0.75530  0.16120  Biso   1.000  O
  O25      1.0000 0.77260  0.22600  0.73490  Biso   1.000  O
  O26      1.0000 0.27260  0.72600  0.73490  Biso   1.000  O
  O27      1.0000 0.77260  0.77400  0.73490  Biso   1.000  O
  O28      1.0000 0.27260  0.27400  0.73490  Biso   1.000  O
  O29      1.0000 0.22740  0.77400  0.26510  Biso   1.000  O
  O30      1.0000 0.72740  0.27400  0.26510  Biso   1.000  O
  O31      1.0000 0.22740  0.22600  0.26510  Biso   1.000  O
  O32      1.0000 0.72740  0.72600  0.26510  Biso   1.000  O
  O33      1.0000 0.93380  0.04030  0.75550  Biso   1.000  O
  O34      1.0000 0.43380  0.54030  0.75550  Biso   1.000  O
  O35      1.0000 0.93380  0.95970  0.75550  Biso   1.000  O
  O36      1.0000 0.43380  0.45970  0.75550  Biso   1.000  O
  O37      1.0000 0.06620  0.95970  0.24450  Biso   1.000  O
  O38      1.0000 0.56620  0.45970  0.24450  Biso   1.000  O
  O39      1.0000 0.06620  0.04030  0.24450  Biso   1.000  O
  O40      1.0000 0.56620  0.54030  0.24450  Biso   1.000  O
  O41      1.0000 0.96950  0.04070  0.65980  Biso   1.000  O
  O42      1.0000 0.46950  0.54070  0.65980  Biso   1.000  O
  O43      1.0000 0.96950  0.95930  0.65980  Biso   1.000  O
  O44      1.0000 0.46950  0.45930  0.65980  Biso   1.000  O
  O45      1.0000 0.03050  0.95930  0.34020  Biso   1.000  O
  O46      1.0000 0.53050  0.45930  0.34020  Biso   1.000  O
  O47      1.0000 0.03050  0.04070  0.34020  Biso   1.000  O
  O48      1.0000 0.53050  0.54070  0.34020  Biso   1.000  O
  N1       1.0000 0.22080  0.22740  0.64610  Biso   1.000  N
  N2       1.0000 0.72080  0.72740  0.64610  Biso   1.000  N
  N3       1.0000 0.22080  0.77260  0.64610  Biso   1.000  N
  N4       1.0000 0.72080  0.27260  0.64610  Biso   1.000  N
  N5       1.0000 0.77920  0.77260  0.35390  Biso   1.000  N
  N6       1.0000 0.27920  0.27260  0.35390  Biso   1.000  N
  N7       1.0000 0.77920  0.22740  0.35390  Biso   1.000  N
  N8       1.0000 0.27920  0.72740  0.35390  Biso   1.000  N
  N9       1.0000 0.21030  0.27980  0.82890  Biso   1.000  N
  N10      1.0000 0.71030  0.77980  0.82890  Biso   1.000  N
  N11      1.0000 0.21030  0.72020  0.82890  Biso   1.000  N
  N12      1.0000 0.71030  0.22020  0.82890  Biso   1.000  N
  N13      1.0000 0.78970  0.72020  0.17110  Biso   1.000  N
  N14      1.0000 0.28970  0.22020  0.17110  Biso   1.000  N
  N15      1.0000 0.78970  0.27980  0.17110  Biso   1.000  N
  N16      1.0000 0.28970  0.77980  0.17110  Biso   1.000  N
  C1       1.0000 0.15360  0.22030  0.76240  Biso   1.000  C
  C2       1.0000 0.65360  0.72030  0.76240  Biso   1.000  C
  C3       1.0000 0.15360  0.77970  0.76240  Biso   1.000  C
  C4       1.0000 0.65360  0.27970  0.76240  Biso   1.000  C
  C5       1.0000 0.84640  0.77970  0.23760  Biso   1.000  C
  C6       1.0000 0.34640  0.27970  0.23760  Biso   1.000  C
  C7       1.0000 0.84640  0.22030  0.23760  Biso   1.000  C
  C8       1.0000 0.34640  0.72030  0.23760  Biso   1.000  C
  C9       1.0000 0.81110  0.23530  0.78920  Biso   1.000  C
  C10      1.0000 0.31110  0.73530  0.78920  Biso   1.000  C
  C11      1.0000 0.81110  0.76470  0.78920  Biso   1.000  C
  C12      1.0000 0.31110  0.26470  0.78920  Biso   1.000  C
  C13      1.0000 0.18890  0.76470  0.21080  Biso   1.000  C
  C14      1.0000 0.68890  0.26470  0.21080  Biso   1.000  C
  C15      1.0000 0.18890  0.23530  0.21080  Biso   1.000  C
  C16      1.0000 0.68890  0.73530  0.21080  Biso   1.000  C
  C17      1.0000 0.95340  0.05240  0.70380  Biso   1.000  C
  C18      1.0000 0.45340  0.55240  0.70380  Biso   1.000  C
  C19      1.0000 0.95340  0.94760  0.70380  Biso   1.000  C
  C20      1.0000 0.45340  0.44760  0.70380  Biso   1.000  C
  C21      1.0000 0.04660  0.94760  0.29620  Biso   1.000  C
  C22      1.0000 0.54660  0.44760  0.29620  Biso   1.000  C
  C23      1.0000 0.04660  0.05240  0.29620  Biso   1.000  C
  C24      1.0000 0.54660  0.55240  0.29620  Biso   1.000  C
  C25      1.0000 0.10440  0.20940  0.76310  Biso   1.000  C
  C26      1.0000 0.60440  0.70940  0.76310  Biso   1.000  C
  C27      1.0000 0.10440  0.79060  0.76310  Biso   1.000  C
  C28      1.0000 0.60440  0.29060  0.76310  Biso   1.000  C
  C29      1.0000 0.89560  0.79060  0.23690  Biso   1.000  C
  C30      1.0000 0.39560  0.29060  0.23690  Biso   1.000  C
  C31      1.0000 0.89560  0.20940  0.23690  Biso   1.000  C
  C32      1.0000 0.39560  0.70940  0.23690  Biso   1.000  C
  C33      1.0000 0.07880  0.19100  0.69840  Biso   1.000  C
  C34      1.0000 0.57880  0.69100  0.69840  Biso   1.000  C
  C35      1.0000 0.07880  0.80900  0.69840  Biso   1.000  C
  C36      1.0000 0.57880  0.30900  0.69840  Biso   1.000  C
  C37      1.0000 0.92120  0.80900  0.30160  Biso   1.000  C
  C38      1.0000 0.42120  0.30900  0.30160  Biso   1.000  C
  C39      1.0000 0.92120  0.19100  0.30160  Biso   1.000  C
  C40      1.0000 0.42120  0.69100  0.30160  Biso   1.000  C
  C41      1.0000 0.03450  0.17890  0.69330  Biso   1.000  C
  C42      1.0000 0.53450  0.67890  0.69330  Biso   1.000  C
  C43      1.0000 0.03450  0.82110  0.69330  Biso   1.000  C
  C44      1.0000 0.53450  0.32110  0.69330  Biso   1.000  C
  C45      1.0000 0.96550  0.82110  0.30670  Biso   1.000  C
  C46      1.0000 0.46550  0.32110  0.30670  Biso   1.000  C
  C47      1.0000 0.96550  0.17890  0.30670  Biso   1.000  C
  C48      1.0000 0.46550  0.67890  0.30670  Biso   1.000  C
  C49      1.0000 0.01590  0.18590  0.75850  Biso   1.000  C
  C50      1.0000 0.51590  0.68590  0.75850  Biso   1.000  C
  C51      1.0000 0.01590  0.81410  0.75850  Biso   1.000  C
  C52      1.0000 0.51590  0.31410  0.75850  Biso   1.000  C
  C53      1.0000 0.98410  0.81410  0.24150  Biso   1.000  C
  C54      1.0000 0.48410  0.31410  0.24150  Biso   1.000  C
  C55      1.0000 0.98410  0.18590  0.24150  Biso   1.000  C
  C56      1.0000 0.48410  0.68590  0.24150  Biso   1.000  C
  C57      1.0000 0.04220  0.20430  0.82260  Biso   1.000  C
  C58      1.0000 0.54220  0.70430  0.82260  Biso   1.000  C
  C59      1.0000 0.04220  0.79570  0.82260  Biso   1.000  C
  C60      1.0000 0.54220  0.29570  0.82260  Biso   1.000  C
  C61      1.0000 0.95780  0.79570  0.17740  Biso   1.000  C
  C62      1.0000 0.45780  0.29570  0.17740  Biso   1.000  C
  C63      1.0000 0.95780  0.20430  0.17740  Biso   1.000  C
  C64      1.0000 0.45780  0.70430  0.17740  Biso   1.000  C
  C65      1.0000 0.08560  0.21530  0.82550  Biso   1.000  C
  C66      1.0000 0.58560  0.71530  0.82550  Biso   1.000  C
  C67      1.0000 0.08560  0.78470  0.82550  Biso   1.000  C
  C68      1.0000 0.58560  0.28470  0.82550  Biso   1.000  C
  C69      1.0000 0.91440  0.78470  0.17450  Biso   1.000  C
  C70      1.0000 0.41440  0.28470  0.17450  Biso   1.000  C
  C71      1.0000 0.91440  0.21530  0.17450  Biso   1.000  C
  C72      1.0000 0.41440  0.71530  0.17450  Biso   1.000  C
  C73      1.0000 0.97070  0.17170  0.75750  Biso   1.000  C
  C74      1.0000 0.47070  0.67170  0.75750  Biso   1.000  C
  C75      1.0000 0.97070  0.82830  0.75750  Biso   1.000  C
  C76      1.0000 0.47070  0.32830  0.75750  Biso   1.000  C
  C77      1.0000 0.02930  0.82830  0.24250  Biso   1.000  C
  C78      1.0000 0.52930  0.32830  0.24250  Biso   1.000  C
  C79      1.0000 0.02930  0.17170  0.24250  Biso   1.000  C
  C80      1.0000 0.52930  0.67170  0.24250  Biso   1.000  C
  C81      1.0000 0.93260  0.18890  0.76770  Biso   1.000  C
  C82      1.0000 0.43260  0.68890  0.76770  Biso   1.000  C
  C83      1.0000 0.93260  0.81110  0.76770  Biso   1.000  C
  C84      1.0000 0.43260  0.31110  0.76770  Biso   1.000  C
  C85      1.0000 0.06740  0.81110  0.23230  Biso   1.000  C
  C86      1.0000 0.56740  0.31110  0.23230  Biso   1.000  C
  C87      1.0000 0.06740  0.18890  0.23230  Biso   1.000  C
  C88      1.0000 0.56740  0.68890  0.23230  Biso   1.000  C
  C89      1.0000 0.91530  0.21320  0.71850  Biso   1.000  C
  C90      1.0000 0.41530  0.71320  0.71850  Biso   1.000  C
  C91      1.0000 0.91530  0.78680  0.71850  Biso   1.000  C
  C92      1.0000 0.41530  0.28680  0.71850  Biso   1.000  C
  C93      1.0000 0.08470  0.78680  0.28150  Biso   1.000  C
  C94      1.0000 0.58470  0.28680  0.28150  Biso   1.000  C
  C95      1.0000 0.08470  0.21320  0.28150  Biso   1.000  C
  C96      1.0000 0.58470  0.71320  0.28150  Biso   1.000  C
  C97      1.0000 0.87720  0.22770  0.73150  Biso   1.000  C
  C98      1.0000 0.37720  0.72770  0.73150  Biso   1.000  C
  C99      1.0000 0.87720  0.77230  0.73150  Biso   1.000  C
  C100     1.0000 0.37720  0.27230  0.73150  Biso   1.000  C
  C101     1.0000 0.12280  0.77230  0.26850  Biso   1.000  C
  C102     1.0000 0.62280  0.27230  0.26850  Biso   1.000  C
  C103     1.0000 0.12280  0.22770  0.26850  Biso   1.000  C
  C104     1.0000 0.62280  0.72770  0.26850  Biso   1.000  C
  C105     1.0000 0.85610  0.22000  0.78810  Biso   1.000  C
  C106     1.0000 0.35610  0.72000  0.78810  Biso   1.000  C
  C107     1.0000 0.85610  0.78000  0.78810  Biso   1.000  C
  C108     1.0000 0.35610  0.28000  0.78810  Biso   1.000  C
  C109     1.0000 0.14390  0.78000  0.21190  Biso   1.000  C
  C110     1.0000 0.64390  0.28000  0.21190  Biso   1.000  C
  C111     1.0000 0.14390  0.22000  0.21190  Biso   1.000  C
  C112     1.0000 0.64390  0.72000  0.21190  Biso   1.000  C
  C113     1.0000 0.87550  0.19570  0.83770  Biso   1.000  C
  C114     1.0000 0.37550  0.69570  0.83770  Biso   1.000  C
  C115     1.0000 0.87550  0.80430  0.83770  Biso   1.000  C
  C116     1.0000 0.37550  0.30430  0.83770  Biso   1.000  C
  C117     1.0000 0.12450  0.80430  0.16230  Biso   1.000  C
  C118     1.0000 0.62450  0.30430  0.16230  Biso   1.000  C
  C119     1.0000 0.12450  0.19570  0.16230  Biso   1.000  C
  C120     1.0000 0.62450  0.69570  0.16230  Biso   1.000  C
  C121     1.0000 0.91200  0.18080  0.82650  Biso   1.000  C
  C122     1.0000 0.41200  0.68080  0.82650  Biso   1.000  C
  C123     1.0000 0.91200  0.81920  0.82650  Biso   1.000  C
  C124     1.0000 0.41200  0.31920  0.82650  Biso   1.000  C
  C125     1.0000 0.08800  0.81920  0.17350  Biso   1.000  C
  C126     1.0000 0.58800  0.31920  0.17350  Biso   1.000  C
  C127     1.0000 0.08800  0.18080  0.17350  Biso   1.000  C
  C128     1.0000 0.58800  0.68080  0.17350  Biso   1.000  C
  C129     1.0000 0.96720  0.14200  0.74750  Biso   1.000  C
  C130     1.0000 0.46720  0.64200  0.74750  Biso   1.000  C
  C131     1.0000 0.96720  0.85800  0.74750  Biso   1.000  C
  C132     1.0000 0.46720  0.35800  0.74750  Biso   1.000  C
  C133     1.0000 0.03280  0.85800  0.25250  Biso   1.000  C
  C134     1.0000 0.53280  0.35800  0.25250  Biso   1.000  C
  C135     1.0000 0.03280  0.14200  0.25250  Biso   1.000  C
  C136     1.0000 0.53280  0.64200  0.25250  Biso   1.000  C
  C137     1.0000 0.92550  0.13080  0.68240  Biso   1.000  C
  C138     1.0000 0.42550  0.63080  0.68240  Biso   1.000  C
  C139     1.0000 0.92550  0.86920  0.68240  Biso   1.000  C
  C140     1.0000 0.42550  0.36920  0.68240  Biso   1.000  C
  C141     1.0000 0.07450  0.86920  0.31760  Biso   1.000  C
  C142     1.0000 0.57450  0.36920  0.31760  Biso   1.000  C
  C143     1.0000 0.07450  0.13080  0.31760  Biso   1.000  C
  C144     1.0000 0.57450  0.63080  0.31760  Biso   1.000  C
  C145     1.0000 0.92010  0.10240  0.67150  Biso   1.000  C
  C146     1.0000 0.42010  0.60240  0.67150  Biso   1.000  C
  C147     1.0000 0.92010  0.89760  0.67150  Biso   1.000  C
  C148     1.0000 0.42010  0.39760  0.67150  Biso   1.000  C
  C149     1.0000 0.07990  0.89760  0.32850  Biso   1.000  C
  C150     1.0000 0.57990  0.39760  0.32850  Biso   1.000  C
  C151     1.0000 0.07990  0.10240  0.32850  Biso   1.000  C
  C152     1.0000 0.57990  0.60240  0.32850  Biso   1.000  C
  C153     1.0000 0.95490  0.08480  0.71930  Biso   1.000  C
  C154     1.0000 0.45490  0.58480  0.71930  Biso   1.000  C
  C155     1.0000 0.95490  0.91520  0.71930  Biso   1.000  C
  C156     1.0000 0.45490  0.41520  0.71930  Biso   1.000  C
  C157     1.0000 0.04510  0.91520  0.28070  Biso   1.000  C
  C158     1.0000 0.54510  0.41520  0.28070  Biso   1.000  C
  C159     1.0000 0.04510  0.08480  0.28070  Biso   1.000  C
  C160     1.0000 0.54510  0.58480  0.28070  Biso   1.000  C
  C161     1.0000 0.99700  0.09580  0.78050  Biso   1.000  C
  C162     1.0000 0.49700  0.59580  0.78050  Biso   1.000  C
  C163     1.0000 0.99700  0.90420  0.78050  Biso   1.000  C
  C164     1.0000 0.49700  0.40420  0.78050  Biso   1.000  C
  C165     1.0000 0.00300  0.90420  0.21950  Biso   1.000  C
  C166     1.0000 0.50300  0.40420  0.21950  Biso   1.000  C
  C167     1.0000 0.00300  0.09580  0.21950  Biso   1.000  C
  C168     1.0000 0.50300  0.59580  0.21950  Biso   1.000  C
  C169     1.0000 0.00380  0.12370  0.79560  Biso   1.000  C
  C170     1.0000 0.50380  0.62370  0.79560  Biso   1.000  C
  C171     1.0000 0.00380  0.87630  0.79560  Biso   1.000  C
  C172     1.0000 0.50380  0.37630  0.79560  Biso   1.000  C
  C173     1.0000 0.99620  0.87630  0.20440  Biso   1.000  C
  C174     1.0000 0.49620  0.37630  0.20440  Biso   1.000  C
  C175     1.0000 0.99620  0.12370  0.20440  Biso   1.000  C
  C176     1.0000 0.49620  0.62370  0.20440  Biso   1.000  C
  C177     1.0000 0.17520  0.29630  0.81770  Biso   1.000  C
  C178     1.0000 0.67520  0.79630  0.81770  Biso   1.000  C
  C179     1.0000 0.17520  0.70370  0.81770  Biso   1.000  C
  C180     1.0000 0.67520  0.20370  0.81770  Biso   1.000  C
  C181     1.0000 0.82480  0.70370  0.18230  Biso   1.000  C
  C182     1.0000 0.32480  0.20370  0.18230  Biso   1.000  C
  C183     1.0000 0.82480  0.29630  0.18230  Biso   1.000  C
  C184     1.0000 0.32480  0.79630  0.18230  Biso   1.000  C
  C185     1.0000 0.16810  0.31010  0.89000  Biso   1.000  C
  C186     1.0000 0.66810  0.81010  0.89000  Biso   1.000  C
  C187     1.0000 0.16810  0.68990  0.89000  Biso   1.000  C
  C188     1.0000 0.66810  0.18990  0.89000  Biso   1.000  C
  C189     1.0000 0.83190  0.68990  0.11000  Biso   1.000  C
  C190     1.0000 0.33190  0.18990  0.11000  Biso   1.000  C
  C191     1.0000 0.83190  0.31010  0.11000  Biso   1.000  C
  C192     1.0000 0.33190  0.81010  0.11000  Biso   1.000  C
  C193     1.0000 0.20530  0.30630  0.97220  Biso   1.000  C
  C194     1.0000 0.70530  0.80630  0.97220  Biso   1.000  C
  C195     1.0000 0.20530  0.69370  0.97220  Biso   1.000  C
  C196     1.0000 0.70530  0.19370  0.97220  Biso   1.000  C
  C197     1.0000 0.79470  0.69370  0.02780  Biso   1.000  C
  C198     1.0000 0.29470  0.19370  0.02780  Biso   1.000  C
  C199     1.0000 0.79470  0.30630  0.02780  Biso   1.000  C
  C200     1.0000 0.29470  0.80630  0.02780  Biso   1.000  C
  C201     1.0000 0.24300  0.28830  0.98290  Biso   1.000  C
  C202     1.0000 0.74300  0.78830  0.98290  Biso   1.000  C
  C203     1.0000 0.24300  0.71170  0.98290  Biso   1.000  C
  C204     1.0000 0.74300  0.21170  0.98290  Biso   1.000  C
  C205     1.0000 0.75700  0.71170  0.01710  Biso   1.000  C
  C206     1.0000 0.25700  0.21170  0.01710  Biso   1.000  C
  C207     1.0000 0.75700  0.28830  0.01710  Biso   1.000  C
  C208     1.0000 0.25700  0.78830  0.01710  Biso   1.000  C
  C209     1.0000 0.24350  0.27560  0.90970  Biso   1.000  C
  C210     1.0000 0.74350  0.77560  0.90970  Biso   1.000  C
  C211     1.0000 0.24350  0.72440  0.90970  Biso   1.000  C
  C212     1.0000 0.74350  0.22440  0.90970  Biso   1.000  C
  C213     1.0000 0.75650  0.72440  0.09030  Biso   1.000  C
  C214     1.0000 0.25650  0.22440  0.09030  Biso   1.000  C
  C215     1.0000 0.75650  0.27560  0.09030  Biso   1.000  C
  C216     1.0000 0.25650  0.77560  0.09030  Biso   1.000  C
  C217     1.0000 0.20860  0.23150  0.56520  Biso   1.000  C
  C218     1.0000 0.70860  0.73150  0.56520  Biso   1.000  C
  C219     1.0000 0.20860  0.76850  0.56520  Biso   1.000  C
  C220     1.0000 0.70860  0.26850  0.56520  Biso   1.000  C
  C221     1.0000 0.79140  0.76850  0.43480  Biso   1.000  C
  C222     1.0000 0.29140  0.26850  0.43480  Biso   1.000  C
  C223     1.0000 0.79140  0.23150  0.43480  Biso   1.000  C
  C224     1.0000 0.29140  0.73150  0.43480  Biso   1.000  C
  C225     1.0000 0.21770  0.21290  0.51120  Biso   1.000  C
  C226     1.0000 0.71770  0.71290  0.51120  Biso   1.000  C
  C227     1.0000 0.21770  0.78710  0.51120  Biso   1.000  C
  C228     1.0000 0.71770  0.28710  0.51120  Biso   1.000  C
  C229     1.0000 0.78230  0.78710  0.48880  Biso   1.000  C
  C230     1.0000 0.28230  0.28710  0.48880  Biso   1.000  C
  C231     1.0000 0.78230  0.21290  0.48880  Biso   1.000  C
  C232     1.0000 0.28230  0.71290  0.48880  Biso   1.000  C
  C233     1.0000 0.23510  0.18830  0.53830  Biso   1.000  C
  C234     1.0000 0.73510  0.68830  0.53830  Biso   1.000  C
  C235     1.0000 0.23510  0.81170  0.53830  Biso   1.000  C
  C236     1.0000 0.73510  0.31170  0.53830  Biso   1.000  C
  C237     1.0000 0.76490  0.81170  0.46170  Biso   1.000  C
  C238     1.0000 0.26490  0.31170  0.46170  Biso   1.000  C
  C239     1.0000 0.76490  0.18830  0.46170  Biso   1.000  C
  C240     1.0000 0.26490  0.68830  0.46170  Biso   1.000  C
  C241     1.0000 0.25450  0.18290  0.63210  Biso   1.000  C
  C242     1.0000 0.75450  0.68290  0.63210  Biso   1.000  C
  C243     1.0000 0.25450  0.81710  0.63210  Biso   1.000  C
  C244     1.0000 0.75450  0.31710  0.63210  Biso   1.000  C
  C245     1.0000 0.74550  0.81710  0.36790  Biso   1.000  C
  C246     1.0000 0.24550  0.31710  0.36790  Biso   1.000  C
  C247     1.0000 0.74550  0.18290  0.36790  Biso   1.000  C
  C248     1.0000 0.24550  0.68290  0.36790  Biso   1.000  C
  C249     1.0000 0.24530  0.20530  0.68390  Biso   1.000  C
  C250     1.0000 0.74530  0.70530  0.68390  Biso   1.000  C
  C251     1.0000 0.24530  0.79470  0.68390  Biso   1.000  C
  C252     1.0000 0.74530  0.29470  0.68390  Biso   1.000  C
  C253     1.0000 0.75470  0.79470  0.31610  Biso   1.000  C
  C254     1.0000 0.25470  0.29470  0.31610  Biso   1.000  C
  C255     1.0000 0.75470  0.20530  0.31610  Biso   1.000  C
  C256     1.0000 0.25470  0.70530  0.31610  Biso   1.000  C
  Cl1      1.0000 0.10070  0.18239  0.61430  Biso   1.000  Cl
  Cl2      1.0000 0.60070  0.68239  0.61430  Biso   1.000  Cl
  Cl3      1.0000 0.10070  0.81761  0.61430  Biso   1.000  Cl
  Cl4      1.0000 0.60070  0.31761  0.61430  Biso   1.000  Cl
  Cl5      1.0000 0.89930  0.81761  0.38570  Biso   1.000  Cl
  Cl6      1.0000 0.39930  0.31761  0.38570  Biso   1.000  Cl
  Cl7      1.0000 0.89930  0.18239  0.38570  Biso   1.000  Cl
  Cl8      1.0000 0.39930  0.68239  0.38570  Biso   1.000  Cl
  Cl9      1.0000 0.00280  0.15863  0.60520  Biso   1.000  Cl
  Cl10     1.0000 0.50280  0.65863  0.60520  Biso   1.000  Cl
  Cl11     1.0000 0.00280  0.84137  0.60520  Biso   1.000  Cl
  Cl12     1.0000 0.50280  0.34137  0.60520  Biso   1.000  Cl
  Cl13     1.0000 0.99720  0.84137  0.39480  Biso   1.000  Cl
  Cl14     1.0000 0.49720  0.34137  0.39480  Biso   1.000  Cl
  Cl15     1.0000 0.99720  0.15863  0.39480  Biso   1.000  Cl
  Cl16     1.0000 0.49720  0.65863  0.39480  Biso   1.000  Cl
  Cl17     1.0000 0.02507  0.21196  0.90890  Biso   1.000  Cl
  Cl18     1.0000 0.52507  0.71196  0.90890  Biso   1.000  Cl
  Cl19     1.0000 0.02507  0.78804  0.90890  Biso   1.000  Cl
  Cl20     1.0000 0.52507  0.28804  0.90890  Biso   1.000  Cl
  Cl21     1.0000 0.97493  0.78804  0.09110  Biso   1.000  Cl
  Cl22     1.0000 0.47493  0.28804  0.09110  Biso   1.000  Cl
  Cl23     1.0000 0.97493  0.21196  0.09110  Biso   1.000  Cl
  Cl24     1.0000 0.47493  0.71196  0.09110  Biso   1.000  Cl
  Cl25     1.0000 0.11870  0.23844  0.90610  Biso   1.000  Cl
  Cl26     1.0000 0.61870  0.73844  0.90610  Biso   1.000  Cl
  Cl27     1.0000 0.11870  0.76156  0.90610  Biso   1.000  Cl
  Cl28     1.0000 0.61870  0.26156  0.90610  Biso   1.000  Cl
  Cl29     1.0000 0.88130  0.76156  0.09390  Biso   1.000  Cl
  Cl30     1.0000 0.38130  0.26156  0.09390  Biso   1.000  Cl
  Cl31     1.0000 0.88130  0.23844  0.09390  Biso   1.000  Cl
  Cl32     1.0000 0.38130  0.73844  0.09390  Biso   1.000  Cl
  Cl33     1.0000 0.93670  0.22266  0.63830  Biso   1.000  Cl
  Cl34     1.0000 0.43670  0.72266  0.63830  Biso   1.000  Cl
  Cl35     1.0000 0.93670  0.77734  0.63830  Biso   1.000  Cl
  Cl36     1.0000 0.43670  0.27734  0.63830  Biso   1.000  Cl
  Cl37     1.0000 0.06330  0.77734  0.36170  Biso   1.000  Cl
  Cl38     1.0000 0.56330  0.27734  0.36170  Biso   1.000  Cl
  Cl39     1.0000 0.06330  0.22266  0.36170  Biso   1.000  Cl
  Cl40     1.0000 0.56330  0.72266  0.36170  Biso   1.000  Cl
  Cl41     1.0000 0.85620  0.25742  0.66540  Biso   1.000  Cl
  Cl42     1.0000 0.35620  0.75742  0.66540  Biso   1.000  Cl
  Cl43     1.0000 0.85620  0.74258  0.66540  Biso   1.000  Cl
  Cl44     1.0000 0.35620  0.24258  0.66540  Biso   1.000  Cl
  Cl45     1.0000 0.14380  0.74258  0.33460  Biso   1.000  Cl
  Cl46     1.0000 0.64380  0.24258  0.33460  Biso   1.000  Cl
  Cl47     1.0000 0.14380  0.25742  0.33460  Biso   1.000  Cl
  Cl48     1.0000 0.64380  0.75742  0.33460  Biso   1.000  Cl
  Cl49     1.0000 0.84780  0.18597  0.90840  Biso   1.000  Cl
  Cl50     1.0000 0.34780  0.68597  0.90840  Biso   1.000  Cl
  Cl51     1.0000 0.84780  0.81403  0.90840  Biso   1.000  Cl
  Cl52     1.0000 0.34780  0.31403  0.90840  Biso   1.000  Cl
  Cl53     1.0000 0.15220  0.81403  0.09160  Biso   1.000  Cl
  Cl54     1.0000 0.65220  0.31403  0.09160  Biso   1.000  Cl
  Cl55     1.0000 0.15220  0.18597  0.09160  Biso   1.000  Cl
  Cl56     1.0000 0.65220  0.68597  0.09160  Biso   1.000  Cl
  Cl57     1.0000 0.93490  0.15414  0.89860  Biso   1.000  Cl
  Cl58     1.0000 0.43490  0.65414  0.89860  Biso   1.000  Cl
  Cl59     1.0000 0.93490  0.84586  0.89860  Biso   1.000  Cl
  Cl60     1.0000 0.43490  0.34586  0.89860  Biso   1.000  Cl
  Cl61     1.0000 0.06510  0.84586  0.10140  Biso   1.000  Cl
  Cl62     1.0000 0.56510  0.34586  0.10140  Biso   1.000  Cl
  Cl63     1.0000 0.06510  0.15414  0.10140  Biso   1.000  Cl
  Cl64     1.0000 0.56510  0.65414  0.10140  Biso   1.000  Cl
  Cl65     1.0000 0.88030  0.15113  0.61290  Biso   1.000  Cl
  Cl66     1.0000 0.38030  0.65113  0.61290  Biso   1.000  Cl
  Cl67     1.0000 0.88030  0.84887  0.61290  Biso   1.000  Cl
  Cl68     1.0000 0.38030  0.34887  0.61290  Biso   1.000  Cl
  Cl69     1.0000 0.11970  0.84887  0.38710  Biso   1.000  Cl
  Cl70     1.0000 0.61970  0.34887  0.38710  Biso   1.000  Cl
  Cl71     1.0000 0.11970  0.15113  0.38710  Biso   1.000  Cl
  Cl72     1.0000 0.61970  0.65113  0.38710  Biso   1.000  Cl
  Cl73     1.0000 0.86880  0.08732  0.59610  Biso   1.000  Cl
  Cl74     1.0000 0.36880  0.58732  0.59610  Biso   1.000  Cl
  Cl75     1.0000 0.86880  0.91268  0.59610  Biso   1.000  Cl
  Cl76     1.0000 0.36880  0.41268  0.59610  Biso   1.000  Cl
  Cl77     1.0000 0.13120  0.91268  0.40390  Biso   1.000  Cl
  Cl78     1.0000 0.63120  0.41268  0.40390  Biso   1.000  Cl
  Cl79     1.0000 0.13120  0.08732  0.40390  Biso   1.000  Cl
  Cl80     1.0000 0.63120  0.58732  0.40390  Biso   1.000  Cl
  Cl81     1.0000 0.04360  0.07334  0.84300  Biso   1.000  Cl
  Cl82     1.0000 0.54360  0.57334  0.84300  Biso   1.000  Cl
  Cl83     1.0000 0.04360  0.92666  0.84300  Biso   1.000  Cl
  Cl84     1.0000 0.54360  0.42666  0.84300  Biso   1.000  Cl
  Cl85     1.0000 0.95640  0.92666  0.15700  Biso   1.000  Cl
  Cl86     1.0000 0.45640  0.42666  0.15700  Biso   1.000  Cl
  Cl87     1.0000 0.95640  0.07334  0.15700  Biso   1.000  Cl
  Cl88     1.0000 0.45640  0.57334  0.15700  Biso   1.000  Cl
  Cl89     1.0000 0.05260  0.13664  0.87960  Biso   1.000  Cl
  Cl90     1.0000 0.55260  0.63664  0.87960  Biso   1.000  Cl
  Cl91     1.0000 0.05260  0.86336  0.87960  Biso   1.000  Cl
  Cl92     1.0000 0.55260  0.36336  0.87960  Biso   1.000  Cl
  Cl93     1.0000 0.94740  0.86336  0.12040  Biso   1.000  Cl
  Cl94     1.0000 0.44740  0.36336  0.12040  Biso   1.000  Cl
  Cl95     1.0000 0.94740  0.13664  0.12040  Biso   1.000  Cl
  Cl96     1.0000 0.44740  0.63664  0.12040  Biso   1.000  Cl
  O49      1.0000 0.17410  0.28890  0.61840  Biso   1.000  O
  O50      1.0000 0.67410  0.78890  0.61840  Biso   1.000  O
  O51      1.0000 0.17410  0.71110  0.61840  Biso   1.000  O
  O52      1.0000 0.67410  0.21110  0.61840  Biso   1.000  O
  O53      1.0000 0.82590  0.71110  0.38160  Biso   1.000  O
  O54      1.0000 0.32590  0.21110  0.38160  Biso   1.000  O
  O55      1.0000 0.82590  0.28890  0.38160  Biso   1.000  O
  O56      1.0000 0.32590  0.78890  0.38160  Biso   1.000  O
  C257     1.0000 0.12430  0.28700  0.56890  Biso   1.000  C
  C258     1.0000 0.62430  0.78700  0.56890  Biso   1.000  C
  C259     1.0000 0.12430  0.71300  0.56890  Biso   1.000  C
  C260     1.0000 0.62430  0.21300  0.56890  Biso   1.000  C
  C261     1.0000 0.87570  0.71300  0.43110  Biso   1.000  C
  C262     1.0000 0.37570  0.21300  0.43110  Biso   1.000  C
  C263     1.0000 0.87570  0.28700  0.43110  Biso   1.000  C
  C264     1.0000 0.37570  0.78700  0.43110  Biso   1.000  C
  C265     1.0000 0.12370  0.30710  0.49970  Biso   1.000  C
  C266     1.0000 0.62370  0.80710  0.49970  Biso   1.000  C
  C267     1.0000 0.12370  0.69290  0.49970  Biso   1.000  C
  C268     1.0000 0.62370  0.19290  0.49970  Biso   1.000  C
  C269     1.0000 0.87630  0.69290  0.50030  Biso   1.000  C
  C270     1.0000 0.37630  0.19290  0.50030  Biso   1.000  C
  C271     1.0000 0.87630  0.30710  0.50030  Biso   1.000  C
  C272     1.0000 0.37630  0.80710  0.50030  Biso   1.000  C
  O57      1.0000 0.88760  0.00000  0.83570  Biso   1.000  O
  O58      1.0000 0.38760  0.50000  0.83570  Biso   1.000  O
  O59      1.0000 0.11240  0.00000  0.16430  Biso   1.000  O
  O60      1.0000 0.61240  0.50000  0.16430  Biso   1.000  O
  O61      1.0000 0.00350  0.00000  0.56540  Biso   1.000  O
  O62      1.0000 0.50350  0.50000  0.56540  Biso   1.000  O
  O63      1.0000 0.99650  0.00000  0.43460  Biso   1.000  O
  O64      1.0000 0.49650  0.50000  0.43460  Biso   1.000  O
  N17      1.0000 0.00190  0.00000  0.83340  Biso   1.000  N
  N18      1.0000 0.50190  0.50000  0.83340  Biso   1.000  N
  N19      1.0000 0.99810  0.00000  0.16660  Biso   1.000  N
  N20      1.0000 0.49810  0.50000  0.16660  Biso   1.000  N
  C273     1.0000 0.00430  0.00000  0.91990  Biso   1.000  C
  C274     1.0000 0.50430  0.50000  0.91990  Biso   1.000  C
  C275     1.0000 0.99570  0.00000  0.08010  Biso   1.000  C
  C276     1.0000 0.49570  0.50000  0.08010  Biso   1.000  C
  C277     1.0000 0.04890  0.00000  0.98880  Biso   1.000  C
  C278     1.0000 0.54890  0.50000  0.98880  Biso   1.000  C
  C279     1.0000 0.95110  0.00000  0.01120  Biso   1.000  C
  C280     1.0000 0.45110  0.50000  0.01120  Biso   1.000  C
  C281     1.0000 0.09110  0.00000  0.97120  Biso   1.000  C
  C282     1.0000 0.59110  0.50000  0.97120  Biso   1.000  C
  C283     1.0000 0.90890  0.00000  0.02880  Biso   1.000  C
  C284     1.0000 0.40890  0.50000  0.02880  Biso   1.000  C
  C285     1.0000 0.08860  0.00000  0.88480  Biso   1.000  C
  C286     1.0000 0.58860  0.50000  0.88480  Biso   1.000  C
  C287     1.0000 0.91140  0.00000  0.11520  Biso   1.000  C
  C288     1.0000 0.41140  0.50000  0.11520  Biso   1.000  C
  C289     1.0000 0.04410  0.00000  0.81580  Biso   1.000  C
  C290     1.0000 0.54410  0.50000  0.81580  Biso   1.000  C
  C291     1.0000 0.95590  0.00000  0.18420  Biso   1.000  C
  C292     1.0000 0.45590  0.50000  0.18420  Biso   1.000  C
  N21      1.0000 0.87430  0.00000  0.63020  Biso   1.000  N
  N22      1.0000 0.37430  0.50000  0.63020  Biso   1.000  N
  N23      1.0000 0.12570  0.00000  0.36980  Biso   1.000  N
  N24      1.0000 0.62570  0.50000  0.36980  Biso   1.000  N
  C293     1.0000 0.82540  0.00000  0.61620  Biso   1.000  C
  C294     1.0000 0.32540  0.50000  0.61620  Biso   1.000  C
  C295     1.0000 0.17460  0.00000  0.38380  Biso   1.000  C
  C296     1.0000 0.67460  0.50000  0.38380  Biso   1.000  C
  C297     1.0000 0.79130  0.00000  0.53090  Biso   1.000  C
  C298     1.0000 0.29130  0.50000  0.53090  Biso   1.000  C
  C299     1.0000 0.20870  0.00000  0.46910  Biso   1.000  C
  C300     1.0000 0.70870  0.50000  0.46910  Biso   1.000  C
  C301     1.0000 0.80610  0.00000  0.45970  Biso   1.000  C
  C302     1.0000 0.30610  0.50000  0.45970  Biso   1.000  C
  C303     1.0000 0.19390  0.00000  0.54030  Biso   1.000  C
  C304     1.0000 0.69390  0.50000  0.54030  Biso   1.000  C
  C305     1.0000 0.85490  0.00000  0.47370  Biso   1.000  C
  C306     1.0000 0.35490  0.50000  0.47370  Biso   1.000  C
  C307     1.0000 0.14510  0.00000  0.52630  Biso   1.000  C
  C308     1.0000 0.64510  0.50000  0.52630  Biso   1.000  C
  C309     1.0000 0.88900  0.00000  0.55900  Biso   1.000  C
  C310     1.0000 0.38900  0.50000  0.55900  Biso   1.000  C
  C311     1.0000 0.11100  0.00000  0.44100  Biso   1.000  C
  C312     1.0000 0.61100  0.50000  0.44100  Biso   1.000  C
  N25      1.0000 0.02300  0.00000  0.75470  Biso   1.000  N
  N26      1.0000 0.52300  0.50000  0.75470  Biso   1.000  N
  N27      1.0000 0.97700  0.00000  0.24530  Biso   1.000  N
  N28      1.0000 0.47700  0.50000  0.24530  Biso   1.000  N
  C313     1.0000 0.03580  0.00000  0.84440  Biso   1.000  C
  C314     1.0000 0.53580  0.50000  0.84440  Biso   1.000  C
  C315     1.0000 0.96420  0.00000  0.15560  Biso   1.000  C
  C316     1.0000 0.46420  0.50000  0.15560  Biso   1.000  C
  C317     1.0000 0.11300  0.00000  0.79360  Biso   1.000  C
  C318     1.0000 0.61300  0.50000  0.79360  Biso   1.000  C
  C319     1.0000 0.88700  0.00000  0.20640  Biso   1.000  C
  C320     1.0000 0.38700  0.50000  0.20640  Biso   1.000  C
  C321     1.0000 0.08230  0.00000  0.90780  Biso   1.000  C
  C322     1.0000 0.58230  0.50000  0.90780  Biso   1.000  C
  C323     1.0000 0.91770  0.00000  0.09220  Biso   1.000  C
  C324     1.0000 0.41770  0.50000  0.09220  Biso   1.000  C
  C325     1.0000 0.12180  0.00000  0.88240  Biso   1.000  C
  C326     1.0000 0.62180  0.50000  0.88240  Biso   1.000  C
  C327     1.0000 0.87820  0.00000  0.11760  Biso   1.000  C
  C328     1.0000 0.37820  0.50000  0.11760  Biso   1.000  C
  C329     1.0000 0.06650  0.00000  0.73030  Biso   1.000  C
  C330     1.0000 0.56650  0.50000  0.73030  Biso   1.000  C
  C331     1.0000 0.93350  0.00000  0.26970  Biso   1.000  C
  C332     1.0000 0.43350  0.50000  0.26970  Biso   1.000  C
  N29      1.0000 0.89630  0.00000  0.58640  Biso   1.000  N
  N30      1.0000 0.39630  0.50000  0.58640  Biso   1.000  N
  N31      1.0000 0.10370  0.00000  0.41360  Biso   1.000  N
  N32      1.0000 0.60370  0.50000  0.41360  Biso   1.000  N
  C333     1.0000 0.86110  0.00000  0.62320  Biso   1.000  C
  C334     1.0000 0.36110  0.50000  0.62320  Biso   1.000  C
  C335     1.0000 0.13890  0.00000  0.37680  Biso   1.000  C
  C336     1.0000 0.63890  0.50000  0.37680  Biso   1.000  C
  C337     1.0000 0.81260  0.00000  0.56910  Biso   1.000  C
  C338     1.0000 0.31260  0.50000  0.56910  Biso   1.000  C
  C339     1.0000 0.18740  0.00000  0.43090  Biso   1.000  C
  C340     1.0000 0.68740  0.50000  0.43090  Biso   1.000  C
  C341     1.0000 0.79920  0.00000  0.47820  Biso   1.000  C
  C342     1.0000 0.29920  0.50000  0.47820  Biso   1.000  C
  C343     1.0000 0.20080  0.00000  0.52180  Biso   1.000  C
  C344     1.0000 0.70080  0.50000  0.52180  Biso   1.000  C
  C345     1.0000 0.83440  0.00000  0.44140  Biso   1.000  C
  C346     1.0000 0.33440  0.50000  0.44140  Biso   1.000  C
  C347     1.0000 0.16560  0.00000  0.55860  Biso   1.000  C
  C348     1.0000 0.66560  0.50000  0.55860  Biso   1.000  C
  C349     1.0000 0.88290  0.00000  0.49550  Biso   1.000  C
  C350     1.0000 0.38290  0.50000  0.49550  Biso   1.000  C
  C351     1.0000 0.11710  0.00000  0.50450  Biso   1.000  C
  C352     1.0000 0.61710  0.50000  0.50450  Biso   1.000  C
  O65      1.0000 0.21460  0.15090  0.83950  Biso   1.000  O
  O66      1.0000 0.71460  0.65090  0.83950  Biso   1.000  O
  O67      1.0000 0.21460  0.84910  0.83950  Biso   1.000  O
  O68      1.0000 0.71460  0.34910  0.83950  Biso   1.000  O
  O69      1.0000 0.78540  0.84910  0.16050  Biso   1.000  O
  O70      1.0000 0.28540  0.34910  0.16050  Biso   1.000  O
  O71      1.0000 0.78540  0.15090  0.16050  Biso   1.000  O
  O72      1.0000 0.28540  0.65090  0.16050  Biso   1.000  O
  C353     1.0000 0.18420  0.14470  0.88500  Biso   1.000  C
  C354     1.0000 0.68420  0.64470  0.88500  Biso   1.000  C
  C355     1.0000 0.18420  0.85530  0.88500  Biso   1.000  C
  C356     1.0000 0.68420  0.35530  0.88500  Biso   1.000  C
  C357     1.0000 0.81580  0.85530  0.11500  Biso   1.000  C
  C358     1.0000 0.31580  0.35530  0.11500  Biso   1.000  C
  C359     1.0000 0.81580  0.14470  0.11500  Biso   1.000  C
  C360     1.0000 0.31580  0.64470  0.11500  Biso   1.000  C
  C361     1.0000 0.20260  0.12390  0.95570  Biso   1.000  C
  C362     1.0000 0.70260  0.62390  0.95570  Biso   1.000  C
  C363     1.0000 0.20260  0.87610  0.95570  Biso   1.000  C
  C364     1.0000 0.70260  0.37610  0.95570  Biso   1.000  C
  C365     1.0000 0.79740  0.87610  0.04430  Biso   1.000  C
  C366     1.0000 0.29740  0.37610  0.04430  Biso   1.000  C
  C367     1.0000 0.79740  0.12390  0.04430  Biso   1.000  C
  C368     1.0000 0.29740  0.62390  0.04430  Biso   1.000  C
  O73      1.0000 0.86810  0.30040  0.88740  Biso   1.000  O
  O74      1.0000 0.36810  0.80040  0.88740  Biso   1.000  O
  O75      1.0000 0.86810  0.69960  0.88740  Biso   1.000  O
  O76      1.0000 0.36810  0.19960  0.88740  Biso   1.000  O
  O77      1.0000 0.13190  0.69960  0.11260  Biso   1.000  O
  O78      1.0000 0.63190  0.19960  0.11260  Biso   1.000  O
  O79      1.0000 0.13190  0.30040  0.11260  Biso   1.000  O
  O80      1.0000 0.63190  0.80040  0.11260  Biso   1.000  O
  C369     1.0000 0.91470  0.29500  0.94850  Biso   1.000  C
  C370     1.0000 0.41470  0.79500  0.94850  Biso   1.000  C
  C371     1.0000 0.91470  0.70500  0.94850  Biso   1.000  C
  C372     1.0000 0.41470  0.20500  0.94850  Biso   1.000  C
  C373     1.0000 0.08530  0.70500  0.05150  Biso   1.000  C
  C374     1.0000 0.58530  0.20500  0.05150  Biso   1.000  C
  C375     1.0000 0.08530  0.29500  0.05150  Biso   1.000  C
  C376     1.0000 0.58530  0.79500  0.05150  Biso   1.000  C
  C377     1.0000 0.94240  0.27560  0.91580  Biso   1.000  C
  C378     1.0000 0.44240  0.77560  0.91580  Biso   1.000  C
  C379     1.0000 0.94240  0.72440  0.91580  Biso   1.000  C
  C380     1.0000 0.44240  0.22440  0.91580  Biso   1.000  C
  C381     1.0000 0.05760  0.72440  0.08420  Biso   1.000  C
  C382     1.0000 0.55760  0.22440  0.08420  Biso   1.000  C
  C383     1.0000 0.05760  0.27560  0.08420  Biso   1.000  C
  C384     1.0000 0.55760  0.77560  0.08420  Biso   1.000  C
  O81      1.0000 0.72940  0.16290  0.64200  Biso   1.000  O
  O82      1.0000 0.22940  0.66290  0.64200  Biso   1.000  O
  O83      1.0000 0.72940  0.83710  0.64200  Biso   1.000  O
  O84      1.0000 0.22940  0.33710  0.64200  Biso   1.000  O
  O85      1.0000 0.27060  0.83710  0.35800  Biso   1.000  O
  O86      1.0000 0.77060  0.33710  0.35800  Biso   1.000  O
  O87      1.0000 0.27060  0.16290  0.35800  Biso   1.000  O
  O88      1.0000 0.77060  0.66290  0.35800  Biso   1.000  O
  C385     1.0000 0.76270  0.14880  0.71350  Biso   1.000  C
  C386     1.0000 0.26270  0.64880  0.71350  Biso   1.000  C
  C387     1.0000 0.76270  0.85120  0.71350  Biso   1.000  C
  C388     1.0000 0.26270  0.35120  0.71350  Biso   1.000  C
  C389     1.0000 0.23730  0.85120  0.28650  Biso   1.000  C
  C390     1.0000 0.73730  0.35120  0.28650  Biso   1.000  C
  C391     1.0000 0.23730  0.14880  0.28650  Biso   1.000  C
  C392     1.0000 0.73730  0.64880  0.28650  Biso   1.000  C
  C393     1.0000 0.79750  0.13250  0.68900  Biso   1.000  C
  C394     1.0000 0.29750  0.63250  0.68900  Biso   1.000  C
  C395     1.0000 0.79750  0.86750  0.68900  Biso   1.000  C
  C396     1.0000 0.29750  0.36750  0.68900  Biso   1.000  C
  C397     1.0000 0.20250  0.86750  0.31100  Biso   1.000  C
  C398     1.0000 0.70250  0.36750  0.31100  Biso   1.000  C
  C399     1.0000 0.20250  0.13250  0.31100  Biso   1.000  C
  C400     1.0000 0.70250  0.63250  0.31100  Biso   1.000  C
  C401     1.0000 0.78020  0.16650  0.79490  Biso   1.000  C
  C402     1.0000 0.28020  0.66650  0.79490  Biso   1.000  C
  C403     1.0000 0.78020  0.83350  0.79490  Biso   1.000  C
  C404     1.0000 0.28020  0.33350  0.79490  Biso   1.000  C
  C405     1.0000 0.21980  0.83350  0.20510  Biso   1.000  C
  C406     1.0000 0.71980  0.33350  0.20510  Biso   1.000  C
  C407     1.0000 0.21980  0.16650  0.20510  Biso   1.000  C
  C408     1.0000 0.71980  0.66650  0.20510  Biso   1.000  C
  O89      1.0000 0.02370  0.05290  0.54960  Biso   1.000  O
  O90      1.0000 0.52370  0.55290  0.54960  Biso   1.000  O
  O91      1.0000 0.02370  0.94710  0.54960  Biso   1.000  O
  O92      1.0000 0.52370  0.44710  0.54960  Biso   1.000  O
  O93      1.0000 0.97630  0.94710  0.45040  Biso   1.000  O
  O94      1.0000 0.47630  0.44710  0.45040  Biso   1.000  O
  O95      1.0000 0.97630  0.05290  0.45040  Biso   1.000  O
  O96      1.0000 0.47630  0.55290  0.45040  Biso   1.000  O
  C409     1.0000 0.03750  0.08060  0.54230  Biso   1.000  C
  C410     1.0000 0.53750  0.58060  0.54230  Biso   1.000  C
  C411     1.0000 0.03750  0.91940  0.54230  Biso   1.000  C
  C412     1.0000 0.53750  0.41940  0.54230  Biso   1.000  C
  C413     1.0000 0.96250  0.91940  0.45770  Biso   1.000  C
  C414     1.0000 0.46250  0.41940  0.45770  Biso   1.000  C
  C415     1.0000 0.96250  0.08060  0.45770  Biso   1.000  C
  C416     1.0000 0.46250  0.58060  0.45770  Biso   1.000  C
  C417     1.0000 0.08450  0.08770  0.61430  Biso   1.000  C
  C418     1.0000 0.58450  0.58770  0.61430  Biso   1.000  C
  C419     1.0000 0.08450  0.91230  0.61430  Biso   1.000  C
  C420     1.0000 0.58450  0.41230  0.61430  Biso   1.000  C
  C421     1.0000 0.91550  0.91230  0.38570  Biso   1.000  C
  C422     1.0000 0.41550  0.41230  0.38570  Biso   1.000  C
  C423     1.0000 0.91550  0.08770  0.38570  Biso   1.000  C
  C424     1.0000 0.41550  0.58770  0.38570  Biso   1.000  C
  O97      1.0000 0.84590  0.05360  0.83960  Biso   1.000  O
  O98      1.0000 0.34590  0.55360  0.83960  Biso   1.000  O
  O99      1.0000 0.84590  0.94640  0.83960  Biso   1.000  O
  O100     1.0000 0.34590  0.44640  0.83960  Biso   1.000  O
  O101     1.0000 0.15410  0.94640  0.16040  Biso   1.000  O
  O102     1.0000 0.65410  0.44640  0.16040  Biso   1.000  O
  O103     1.0000 0.15410  0.05360  0.16040  Biso   1.000  O
  O104     1.0000 0.65410  0.55360  0.16040  Biso   1.000  O
  C425     1.0000 0.87460  0.07740  0.87680  Biso   1.000  C
  C426     1.0000 0.37460  0.57740  0.87680  Biso   1.000  C
  C427     1.0000 0.87460  0.92260  0.87680  Biso   1.000  C
  C428     1.0000 0.37460  0.42260  0.87680  Biso   1.000  C
  C429     1.0000 0.12540  0.92260  0.12320  Biso   1.000  C
  C430     1.0000 0.62540  0.42260  0.12320  Biso   1.000  C
  C431     1.0000 0.12540  0.07740  0.12320  Biso   1.000  C
  C432     1.0000 0.62540  0.57740  0.12320  Biso   1.000  C
  C433     1.0000 0.92680  0.06860  0.91840  Biso   1.000  C
  C434     1.0000 0.42680  0.56860  0.91840  Biso   1.000  C
  C435     1.0000 0.92680  0.93140  0.91840  Biso   1.000  C
  C436     1.0000 0.42680  0.43140  0.91840  Biso   1.000  C
  C437     1.0000 0.07320  0.93140  0.08160  Biso   1.000  C
  C438     1.0000 0.57320  0.43140  0.08160  Biso   1.000  C
  C439     1.0000 0.07320  0.06860  0.08160  Biso   1.000  C
  C440     1.0000 0.57320  0.56860  0.08160  Biso   1.000  C
  O105     1.0000 0.04660  0.26320  0.57180  Biso   1.000  O
  O106     1.0000 0.54660  0.76320  0.57180  Biso   1.000  O
  O107     1.0000 0.04660  0.73680  0.57180  Biso   1.000  O
  O108     1.0000 0.54660  0.23680  0.57180  Biso   1.000  O
  O109     1.0000 0.95340  0.73680  0.42820  Biso   1.000  O
  O110     1.0000 0.45340  0.23680  0.42820  Biso   1.000  O
  O111     1.0000 0.95340  0.26320  0.42820  Biso   1.000  O
  O112     1.0000 0.45340  0.76320  0.42820  Biso   1.000  O
  C441     1.0000 0.00000  0.24760  0.50000  Biso   1.000  C
  C442     1.0000 0.50000  0.74760  0.50000  Biso   1.000  C
  C443     1.0000 0.00000  0.75240  0.50000  Biso   1.000  C
  C444     1.0000 0.50000  0.25240  0.50000  Biso   1.000  C
  O113     1.0000 0.01520  0.29430  0.74180  Biso   1.000  O
  O114     1.0000 0.51520  0.79430  0.74180  Biso   1.000  O
  O115     1.0000 0.01520  0.70570  0.74180  Biso   1.000  O
  O116     1.0000 0.51520  0.20570  0.74180  Biso   1.000  O
  O117     1.0000 0.98480  0.70570  0.25820  Biso   1.000  O
  O118     1.0000 0.48480  0.20570  0.25820  Biso   1.000  O
  O119     1.0000 0.98480  0.29430  0.25820  Biso   1.000  O
  O120     1.0000 0.48480  0.79430  0.25820  Biso   1.000  O
  O121     1.0000 0.30760  0.14360  0.85240  Biso   1.000  O
  O122     1.0000 0.80760  0.64360  0.85240  Biso   1.000  O
  O123     1.0000 0.30760  0.85640  0.85240  Biso   1.000  O
  O124     1.0000 0.80760  0.35640  0.85240  Biso   1.000  O
  O125     1.0000 0.69240  0.85640  0.14760  Biso   1.000  O
  O126     1.0000 0.19240  0.35640  0.14760  Biso   1.000  O
  O127     1.0000 0.69240  0.14360  0.14760  Biso   1.000  O
  O128     1.0000 0.19240  0.64360  0.14760  Biso   1.000  O
  O129     1.0000 0.76090  0.09080  0.35470  Biso   1.000  O
  O130     1.0000 0.26090  0.59080  0.35470  Biso   1.000  O
  O131     1.0000 0.76090  0.90920  0.35470  Biso   1.000  O
  O132     1.0000 0.26090  0.40920  0.35470  Biso   1.000  O
  O133     1.0000 0.23910  0.90920  0.64530  Biso   1.000  O
  O134     1.0000 0.73910  0.40920  0.64530  Biso   1.000  O
  O135     1.0000 0.23910  0.09080  0.64530  Biso   1.000  O
  O136     1.0000 0.73910  0.59080  0.64530  Biso   1.000  O
