data_image0
_cell_length_a       23.7035
_cell_length_b       23.7035
_cell_length_c       23.7035
_cell_angle_alpha    90
_cell_angle_beta     90
_cell_angle_gamma    90

_symmetry_space_group_name_H-M    "P 1"
_symmetry_int_tables_number       1

loop_
  _symmetry_equiv_pos_as_xyz
  'x, y, z'

loop_
  _atom_site_label
  _atom_site_occupancy
  _atom_site_fract_x
  _atom_site_fract_y
  _atom_site_fract_z
  _atom_site_thermal_displace_type
  _atom_site_B_iso_or_equiv
  _atom_site_type_symbol
  Cu1      1.0000 0.75000  0.50000  0.00000  Biso   1.000  Cu
  Cu2      1.0000 0.25000  0.50000  0.00000  Biso   1.000  Cu
  Cu3      1.0000 0.00000  0.75000  0.50000  Biso   1.000  Cu
  Cu4      1.0000 0.00000  0.25000  0.50000  Biso   1.000  Cu
  Cu5      1.0000 0.50000  0.00000  0.75000  Biso   1.000  Cu
  Cu6      1.0000 0.50000  0.00000  0.25000  Biso   1.000  Cu
  Cu7      1.0000 0.50000  0.75000  0.00000  Biso   1.000  Cu
  Cu8      1.0000 0.50000  0.25000  0.00000  Biso   1.000  Cu
  Cu9      1.0000 0.75000  0.00000  0.50000  Biso   1.000  Cu
  Cu10     1.0000 0.25000  0.00000  0.50000  Biso   1.000  Cu
  Cu11     1.0000 0.00000  0.50000  0.75000  Biso   1.000  Cu
  Cu12     1.0000 0.00000  0.50000  0.25000  Biso   1.000  Cu
  N1       1.0000 0.80030  0.46350  0.05880  Biso   1.000  N
  N2       1.0000 0.19970  0.53650  0.05880  Biso   1.000  N
  N3       1.0000 0.19970  0.46350  0.94120  Biso   1.000  N
  N4       1.0000 0.80030  0.53650  0.94120  Biso   1.000  N
  N5       1.0000 0.05880  0.80030  0.46350  Biso   1.000  N
  N6       1.0000 0.05880  0.19970  0.53650  Biso   1.000  N
  N7       1.0000 0.94120  0.19970  0.46350  Biso   1.000  N
  N8       1.0000 0.94120  0.80030  0.53650  Biso   1.000  N
  N9       1.0000 0.46350  0.05880  0.80030  Biso   1.000  N
  N10      1.0000 0.53650  0.05880  0.19970  Biso   1.000  N
  N11      1.0000 0.46350  0.94120  0.19970  Biso   1.000  N
  N12      1.0000 0.53650  0.94120  0.80030  Biso   1.000  N
  N13      1.0000 0.46350  0.80030  0.05880  Biso   1.000  N
  N14      1.0000 0.53650  0.19970  0.05880  Biso   1.000  N
  N15      1.0000 0.46350  0.19970  0.94120  Biso   1.000  N
  N16      1.0000 0.53650  0.80030  0.94120  Biso   1.000  N
  N17      1.0000 0.80030  0.05880  0.46350  Biso   1.000  N
  N18      1.0000 0.19970  0.05880  0.53650  Biso   1.000  N
  N19      1.0000 0.19970  0.94120  0.46350  Biso   1.000  N
  N20      1.0000 0.80030  0.94120  0.53650  Biso   1.000  N
  N21      1.0000 0.05880  0.46350  0.80030  Biso   1.000  N
  N22      1.0000 0.05880  0.53650  0.19970  Biso   1.000  N
  N23      1.0000 0.94120  0.46350  0.19970  Biso   1.000  N
  N24      1.0000 0.94120  0.53650  0.80030  Biso   1.000  N
  N25      1.0000 0.30030  0.96350  0.55880  Biso   1.000  N
  N26      1.0000 0.69970  0.03650  0.55880  Biso   1.000  N
  N27      1.0000 0.69970  0.96350  0.44120  Biso   1.000  N
  N28      1.0000 0.30030  0.03650  0.44120  Biso   1.000  N
  N29      1.0000 0.55880  0.30030  0.96350  Biso   1.000  N
  N30      1.0000 0.55880  0.69970  0.03650  Biso   1.000  N
  N31      1.0000 0.44120  0.69970  0.96350  Biso   1.000  N
  N32      1.0000 0.44120  0.30030  0.03650  Biso   1.000  N
  N33      1.0000 0.96350  0.55880  0.30030  Biso   1.000  N
  N34      1.0000 0.03650  0.55880  0.69970  Biso   1.000  N
  N35      1.0000 0.96350  0.44120  0.69970  Biso   1.000  N
  N36      1.0000 0.03650  0.44120  0.30030  Biso   1.000  N
  N37      1.0000 0.96350  0.30030  0.55880  Biso   1.000  N
  N38      1.0000 0.03650  0.69970  0.55880  Biso   1.000  N
  N39      1.0000 0.96350  0.69970  0.44120  Biso   1.000  N
  N40      1.0000 0.03650  0.30030  0.44120  Biso   1.000  N
  N41      1.0000 0.30030  0.55880  0.96350  Biso   1.000  N
  N42      1.0000 0.69970  0.55880  0.03650  Biso   1.000  N
  N43      1.0000 0.69970  0.44120  0.96350  Biso   1.000  N
  N44      1.0000 0.30030  0.44120  0.03650  Biso   1.000  N
  N45      1.0000 0.55880  0.96350  0.30030  Biso   1.000  N
  N46      1.0000 0.55880  0.03650  0.69970  Biso   1.000  N
  N47      1.0000 0.44120  0.96350  0.69970  Biso   1.000  N
  N48      1.0000 0.44120  0.03650  0.30030  Biso   1.000  N
  N49      1.0000 0.78890  0.40630  0.06870  Biso   1.000  N
  N50      1.0000 0.21110  0.59370  0.06870  Biso   1.000  N
  N51      1.0000 0.21110  0.40630  0.93130  Biso   1.000  N
  N52      1.0000 0.78890  0.59370  0.93130  Biso   1.000  N
  N53      1.0000 0.06870  0.78890  0.40630  Biso   1.000  N
  N54      1.0000 0.06870  0.21110  0.59370  Biso   1.000  N
  N55      1.0000 0.93130  0.21110  0.40630  Biso   1.000  N
  N56      1.0000 0.93130  0.78890  0.59370  Biso   1.000  N
  N57      1.0000 0.40630  0.06870  0.78890  Biso   1.000  N
  N58      1.0000 0.59370  0.06870  0.21110  Biso   1.000  N
  N59      1.0000 0.40630  0.93130  0.21110  Biso   1.000  N
  N60      1.0000 0.59370  0.93130  0.78890  Biso   1.000  N
  N61      1.0000 0.40630  0.78890  0.06870  Biso   1.000  N
  N62      1.0000 0.59370  0.21110  0.06870  Biso   1.000  N
  N63      1.0000 0.40630  0.21110  0.93130  Biso   1.000  N
  N64      1.0000 0.59370  0.78890  0.93130  Biso   1.000  N
  N65      1.0000 0.78890  0.06870  0.40630  Biso   1.000  N
  N66      1.0000 0.21110  0.06870  0.59370  Biso   1.000  N
  N67      1.0000 0.21110  0.93130  0.40630  Biso   1.000  N
  N68      1.0000 0.78890  0.93130  0.59370  Biso   1.000  N
  N69      1.0000 0.06870  0.40630  0.78890  Biso   1.000  N
  N70      1.0000 0.06870  0.59370  0.21110  Biso   1.000  N
  N71      1.0000 0.93130  0.40630  0.21110  Biso   1.000  N
  N72      1.0000 0.93130  0.59370  0.78890  Biso   1.000  N
  N73      1.0000 0.28890  0.90630  0.56870  Biso   1.000  N
  N74      1.0000 0.71110  0.09370  0.56870  Biso   1.000  N
  N75      1.0000 0.71110  0.90630  0.43130  Biso   1.000  N
  N76      1.0000 0.28890  0.09370  0.43130  Biso   1.000  N
  N77      1.0000 0.56870  0.28890  0.90630  Biso   1.000  N
  N78      1.0000 0.56870  0.71110  0.09370  Biso   1.000  N
  N79      1.0000 0.43130  0.71110  0.90630  Biso   1.000  N
  N80      1.0000 0.43130  0.28890  0.09370  Biso   1.000  N
  N81      1.0000 0.90630  0.56870  0.28890  Biso   1.000  N
  N82      1.0000 0.09370  0.56870  0.71110  Biso   1.000  N
  N83      1.0000 0.90630  0.43130  0.71110  Biso   1.000  N
  N84      1.0000 0.09370  0.43130  0.28890  Biso   1.000  N
  N85      1.0000 0.90630  0.28890  0.56870  Biso   1.000  N
  N86      1.0000 0.09370  0.71110  0.56870  Biso   1.000  N
  N87      1.0000 0.90630  0.71110  0.43130  Biso   1.000  N
  N88      1.0000 0.09370  0.28890  0.43130  Biso   1.000  N
  N89      1.0000 0.28890  0.56870  0.90630  Biso   1.000  N
  N90      1.0000 0.71110  0.56870  0.09370  Biso   1.000  N
  N91      1.0000 0.71110  0.43130  0.90630  Biso   1.000  N
  N92      1.0000 0.28890  0.43130  0.09370  Biso   1.000  N
  N93      1.0000 0.56870  0.90630  0.28890  Biso   1.000  N
  N94      1.0000 0.56870  0.09370  0.71110  Biso   1.000  N
  N95      1.0000 0.43130  0.90630  0.71110  Biso   1.000  N
  N96      1.0000 0.43130  0.09370  0.28890  Biso   1.000  N
  C1       1.0000 0.81740  0.38030  0.10830  Biso   1.000  C
  C2       1.0000 0.18260  0.61970  0.10830  Biso   1.000  C
  C3       1.0000 0.18260  0.38030  0.89170  Biso   1.000  C
  C4       1.0000 0.81740  0.61970  0.89170  Biso   1.000  C
  C5       1.0000 0.10830  0.81740  0.38030  Biso   1.000  C
  C6       1.0000 0.10830  0.18260  0.61970  Biso   1.000  C
  C7       1.0000 0.89170  0.18260  0.38030  Biso   1.000  C
  C8       1.0000 0.89170  0.81740  0.61970  Biso   1.000  C
  C9       1.0000 0.38030  0.10830  0.81740  Biso   1.000  C
  C10      1.0000 0.61970  0.10830  0.18260  Biso   1.000  C
  C11      1.0000 0.38030  0.89170  0.18260  Biso   1.000  C
  C12      1.0000 0.61970  0.89170  0.81740  Biso   1.000  C
  C13      1.0000 0.38030  0.81740  0.10830  Biso   1.000  C
  C14      1.0000 0.61970  0.18260  0.10830  Biso   1.000  C
  C15      1.0000 0.38030  0.18260  0.89170  Biso   1.000  C
  C16      1.0000 0.61970  0.81740  0.89170  Biso   1.000  C
  C17      1.0000 0.81740  0.10830  0.38030  Biso   1.000  C
  C18      1.0000 0.18260  0.10830  0.61970  Biso   1.000  C
  C19      1.0000 0.18260  0.89170  0.38030  Biso   1.000  C
  C20      1.0000 0.81740  0.89170  0.61970  Biso   1.000  C
  C21      1.0000 0.10830  0.38030  0.81740  Biso   1.000  C
  C22      1.0000 0.10830  0.61970  0.18260  Biso   1.000  C
  C23      1.0000 0.89170  0.38030  0.18260  Biso   1.000  C
  C24      1.0000 0.89170  0.61970  0.81740  Biso   1.000  C
  C25      1.0000 0.31740  0.88030  0.60830  Biso   1.000  C
  C26      1.0000 0.68260  0.11970  0.60830  Biso   1.000  C
  C27      1.0000 0.68260  0.88030  0.39170  Biso   1.000  C
  C28      1.0000 0.31740  0.11970  0.39170  Biso   1.000  C
  C29      1.0000 0.60830  0.31740  0.88030  Biso   1.000  C
  C30      1.0000 0.60830  0.68260  0.11970  Biso   1.000  C
  C31      1.0000 0.39170  0.68260  0.88030  Biso   1.000  C
  C32      1.0000 0.39170  0.31740  0.11970  Biso   1.000  C
  C33      1.0000 0.88030  0.60830  0.31740  Biso   1.000  C
  C34      1.0000 0.11970  0.60830  0.68260  Biso   1.000  C
  C35      1.0000 0.88030  0.39170  0.68260  Biso   1.000  C
  C36      1.0000 0.11970  0.39170  0.31740  Biso   1.000  C
  C37      1.0000 0.88030  0.31740  0.60830  Biso   1.000  C
  C38      1.0000 0.11970  0.68260  0.60830  Biso   1.000  C
  C39      1.0000 0.88030  0.68260  0.39170  Biso   1.000  C
  C40      1.0000 0.11970  0.31740  0.39170  Biso   1.000  C
  C41      1.0000 0.31740  0.60830  0.88030  Biso   1.000  C
  C42      1.0000 0.68260  0.60830  0.11970  Biso   1.000  C
  C43      1.0000 0.68260  0.39170  0.88030  Biso   1.000  C
  C44      1.0000 0.31740  0.39170  0.11970  Biso   1.000  C
  C45      1.0000 0.60830  0.88030  0.31740  Biso   1.000  C
  C46      1.0000 0.60830  0.11970  0.68260  Biso   1.000  C
  C47      1.0000 0.39170  0.88030  0.68260  Biso   1.000  C
  C48      1.0000 0.39170  0.11970  0.31740  Biso   1.000  C
  C49      1.0000 0.85940  0.40710  0.14060  Biso   1.000  C
  C50      1.0000 0.14060  0.59290  0.14060  Biso   1.000  C
  C51      1.0000 0.14060  0.40710  0.85940  Biso   1.000  C
  C52      1.0000 0.85940  0.59290  0.85940  Biso   1.000  C
  C53      1.0000 0.14060  0.85940  0.40710  Biso   1.000  C
  C54      1.0000 0.14060  0.14060  0.59290  Biso   1.000  C
  C55      1.0000 0.85940  0.14060  0.40710  Biso   1.000  C
  C56      1.0000 0.85940  0.85940  0.59290  Biso   1.000  C
  C57      1.0000 0.40710  0.14060  0.85940  Biso   1.000  C
  C58      1.0000 0.59290  0.14060  0.14060  Biso   1.000  C
  C59      1.0000 0.40710  0.85940  0.14060  Biso   1.000  C
  C60      1.0000 0.59290  0.85940  0.85940  Biso   1.000  C
  C61      1.0000 0.35940  0.90710  0.64060  Biso   1.000  C
  C62      1.0000 0.64060  0.09290  0.64060  Biso   1.000  C
  C63      1.0000 0.64060  0.90710  0.35940  Biso   1.000  C
  C64      1.0000 0.35940  0.09290  0.35940  Biso   1.000  C
  C65      1.0000 0.64060  0.35940  0.90710  Biso   1.000  C
  C66      1.0000 0.64060  0.64060  0.09290  Biso   1.000  C
  C67      1.0000 0.35940  0.64060  0.90710  Biso   1.000  C
  C68      1.0000 0.35940  0.35940  0.09290  Biso   1.000  C
  C69      1.0000 0.90710  0.64060  0.35940  Biso   1.000  C
  C70      1.0000 0.09290  0.64060  0.64060  Biso   1.000  C
  C71      1.0000 0.90710  0.35940  0.64060  Biso   1.000  C
  C72      1.0000 0.09290  0.35940  0.35940  Biso   1.000  C
  C73      1.0000 0.87100  0.46290  0.12900  Biso   1.000  C
  C74      1.0000 0.12900  0.53710  0.12900  Biso   1.000  C
  C75      1.0000 0.12900  0.46290  0.87100  Biso   1.000  C
  C76      1.0000 0.87100  0.53710  0.87100  Biso   1.000  C
  C77      1.0000 0.12900  0.87100  0.46290  Biso   1.000  C
  C78      1.0000 0.12900  0.12900  0.53710  Biso   1.000  C
  C79      1.0000 0.87100  0.12900  0.46290  Biso   1.000  C
  C80      1.0000 0.87100  0.87100  0.53710  Biso   1.000  C
  C81      1.0000 0.46290  0.12900  0.87100  Biso   1.000  C
  C82      1.0000 0.53710  0.12900  0.12900  Biso   1.000  C
  C83      1.0000 0.46290  0.87100  0.12900  Biso   1.000  C
  C84      1.0000 0.53710  0.87100  0.87100  Biso   1.000  C
  C85      1.0000 0.37100  0.96290  0.62900  Biso   1.000  C
  C86      1.0000 0.62900  0.03710  0.62900  Biso   1.000  C
  C87      1.0000 0.62900  0.96290  0.37100  Biso   1.000  C
  C88      1.0000 0.37100  0.03710  0.37100  Biso   1.000  C
  C89      1.0000 0.62900  0.37100  0.96290  Biso   1.000  C
  C90      1.0000 0.62900  0.62900  0.03710  Biso   1.000  C
  C91      1.0000 0.37100  0.62900  0.96290  Biso   1.000  C
  C92      1.0000 0.37100  0.37100  0.03710  Biso   1.000  C
  C93      1.0000 0.96290  0.62900  0.37100  Biso   1.000  C
  C94      1.0000 0.03710  0.62900  0.62900  Biso   1.000  C
  C95      1.0000 0.96290  0.37100  0.62900  Biso   1.000  C
  C96      1.0000 0.03710  0.37100  0.37100  Biso   1.000  C
  C97      1.0000 0.83910  0.49040  0.08680  Biso   1.000  C
  C98      1.0000 0.16090  0.50960  0.08680  Biso   1.000  C
  C99      1.0000 0.16090  0.49040  0.91320  Biso   1.000  C
  C100     1.0000 0.83910  0.50960  0.91320  Biso   1.000  C
  C101     1.0000 0.08680  0.83910  0.49040  Biso   1.000  C
  C102     1.0000 0.08680  0.16090  0.50960  Biso   1.000  C
  C103     1.0000 0.91320  0.16090  0.49040  Biso   1.000  C
  C104     1.0000 0.91320  0.83910  0.50960  Biso   1.000  C
  C105     1.0000 0.49040  0.08680  0.83910  Biso   1.000  C
  C106     1.0000 0.50960  0.08680  0.16090  Biso   1.000  C
  C107     1.0000 0.49040  0.91320  0.16090  Biso   1.000  C
  C108     1.0000 0.50960  0.91320  0.83910  Biso   1.000  C
  C109     1.0000 0.49040  0.83910  0.08680  Biso   1.000  C
  C110     1.0000 0.50960  0.16090  0.08680  Biso   1.000  C
  C111     1.0000 0.49040  0.16090  0.91320  Biso   1.000  C
  C112     1.0000 0.50960  0.83910  0.91320  Biso   1.000  C
  C113     1.0000 0.83910  0.08680  0.49040  Biso   1.000  C
  C114     1.0000 0.16090  0.08680  0.50960  Biso   1.000  C
  C115     1.0000 0.16090  0.91320  0.49040  Biso   1.000  C
  C116     1.0000 0.83910  0.91320  0.50960  Biso   1.000  C
  C117     1.0000 0.08680  0.49040  0.83910  Biso   1.000  C
  C118     1.0000 0.08680  0.50960  0.16090  Biso   1.000  C
  C119     1.0000 0.91320  0.49040  0.16090  Biso   1.000  C
  C120     1.0000 0.91320  0.50960  0.83910  Biso   1.000  C
  C121     1.0000 0.33910  0.99040  0.58680  Biso   1.000  C
  C122     1.0000 0.66090  0.00960  0.58680  Biso   1.000  C
  C123     1.0000 0.66090  0.99040  0.41320  Biso   1.000  C
  C124     1.0000 0.33910  0.00960  0.41320  Biso   1.000  C
  C125     1.0000 0.58680  0.33910  0.99040  Biso   1.000  C
  C126     1.0000 0.58680  0.66090  0.00960  Biso   1.000  C
  C127     1.0000 0.41320  0.66090  0.99040  Biso   1.000  C
  C128     1.0000 0.41320  0.33910  0.00960  Biso   1.000  C
  C129     1.0000 0.99040  0.58680  0.33910  Biso   1.000  C
  C130     1.0000 0.00960  0.58680  0.66090  Biso   1.000  C
  C131     1.0000 0.99040  0.41320  0.66090  Biso   1.000  C
  C132     1.0000 0.00960  0.41320  0.33910  Biso   1.000  C
  C133     1.0000 0.99040  0.33910  0.58680  Biso   1.000  C
  C134     1.0000 0.00960  0.66090  0.58680  Biso   1.000  C
  C135     1.0000 0.99040  0.66090  0.41320  Biso   1.000  C
  C136     1.0000 0.00960  0.33910  0.41320  Biso   1.000  C
  C137     1.0000 0.33910  0.58680  0.99040  Biso   1.000  C
  C138     1.0000 0.66090  0.58680  0.00960  Biso   1.000  C
  C139     1.0000 0.66090  0.41320  0.99040  Biso   1.000  C
  C140     1.0000 0.33910  0.41320  0.00960  Biso   1.000  C
  C141     1.0000 0.58680  0.99040  0.33910  Biso   1.000  C
  C142     1.0000 0.58680  0.00960  0.66090  Biso   1.000  C
  C143     1.0000 0.41320  0.99040  0.66090  Biso   1.000  C
  C144     1.0000 0.41320  0.00960  0.33910  Biso   1.000  C
  C145     1.0000 0.85030  0.55090  0.07440  Biso   1.000  C
  C146     1.0000 0.14970  0.44910  0.07440  Biso   1.000  C
  C147     1.0000 0.14970  0.55090  0.92560  Biso   1.000  C
  C148     1.0000 0.85030  0.44910  0.92560  Biso   1.000  C
  C149     1.0000 0.07440  0.85030  0.55090  Biso   1.000  C
  C150     1.0000 0.07440  0.14970  0.44910  Biso   1.000  C
  C151     1.0000 0.92560  0.14970  0.55090  Biso   1.000  C
  C152     1.0000 0.92560  0.85030  0.44910  Biso   1.000  C
  C153     1.0000 0.55090  0.07440  0.85030  Biso   1.000  C
  C154     1.0000 0.44910  0.07440  0.14970  Biso   1.000  C
  C155     1.0000 0.55090  0.92560  0.14970  Biso   1.000  C
  C156     1.0000 0.44910  0.92560  0.85030  Biso   1.000  C
  C157     1.0000 0.55090  0.85030  0.07440  Biso   1.000  C
  C158     1.0000 0.44910  0.14970  0.07440  Biso   1.000  C
  C159     1.0000 0.55090  0.14970  0.92560  Biso   1.000  C
  C160     1.0000 0.44910  0.85030  0.92560  Biso   1.000  C
  C161     1.0000 0.85030  0.07440  0.55090  Biso   1.000  C
  C162     1.0000 0.14970  0.07440  0.44910  Biso   1.000  C
  C163     1.0000 0.14970  0.92560  0.55090  Biso   1.000  C
  C164     1.0000 0.85030  0.92560  0.44910  Biso   1.000  C
  C165     1.0000 0.07440  0.55090  0.85030  Biso   1.000  C
  C166     1.0000 0.07440  0.44910  0.14970  Biso   1.000  C
  C167     1.0000 0.92560  0.55090  0.14970  Biso   1.000  C
  C168     1.0000 0.92560  0.44910  0.85030  Biso   1.000  C
  C169     1.0000 0.35030  0.05090  0.57440  Biso   1.000  C
  C170     1.0000 0.64970  0.94910  0.57440  Biso   1.000  C
  C171     1.0000 0.64970  0.05090  0.42560  Biso   1.000  C
  C172     1.0000 0.35030  0.94910  0.42560  Biso   1.000  C
  C173     1.0000 0.57440  0.35030  0.05090  Biso   1.000  C
  C174     1.0000 0.57440  0.64970  0.94910  Biso   1.000  C
  C175     1.0000 0.42560  0.64970  0.05090  Biso   1.000  C
  C176     1.0000 0.42560  0.35030  0.94910  Biso   1.000  C
  C177     1.0000 0.05090  0.57440  0.35030  Biso   1.000  C
  C178     1.0000 0.94910  0.57440  0.64970  Biso   1.000  C
  C179     1.0000 0.05090  0.42560  0.64970  Biso   1.000  C
  C180     1.0000 0.94910  0.42560  0.35030  Biso   1.000  C
  C181     1.0000 0.05090  0.35030  0.57440  Biso   1.000  C
  C182     1.0000 0.94910  0.64970  0.57440  Biso   1.000  C
  C183     1.0000 0.05090  0.64970  0.42560  Biso   1.000  C
  C184     1.0000 0.94910  0.35030  0.42560  Biso   1.000  C
  C185     1.0000 0.35030  0.57440  0.05090  Biso   1.000  C
  C186     1.0000 0.64970  0.57440  0.94910  Biso   1.000  C
  C187     1.0000 0.64970  0.42560  0.05090  Biso   1.000  C
  C188     1.0000 0.35030  0.42560  0.94910  Biso   1.000  C
  C189     1.0000 0.57440  0.05090  0.35030  Biso   1.000  C
  C190     1.0000 0.57440  0.94910  0.64970  Biso   1.000  C
  C191     1.0000 0.42560  0.05090  0.64970  Biso   1.000  C
  C192     1.0000 0.42560  0.94910  0.35030  Biso   1.000  C
  H1       1.0000 0.81610  0.56890  0.06230  Biso   1.000  H
  H2       1.0000 0.18390  0.43110  0.06230  Biso   1.000  H
  H3       1.0000 0.18390  0.56890  0.93770  Biso   1.000  H
  H4       1.0000 0.81610  0.43110  0.93770  Biso   1.000  H
  H5       1.0000 0.06230  0.81610  0.56890  Biso   1.000  H
  H6       1.0000 0.06230  0.18390  0.43110  Biso   1.000  H
  H7       1.0000 0.93770  0.18390  0.56890  Biso   1.000  H
  H8       1.0000 0.93770  0.81610  0.43110  Biso   1.000  H
  H9       1.0000 0.56890  0.06230  0.81610  Biso   1.000  H
  H10      1.0000 0.43110  0.06230  0.18390  Biso   1.000  H
  H11      1.0000 0.56890  0.93770  0.18390  Biso   1.000  H
  H12      1.0000 0.43110  0.93770  0.81610  Biso   1.000  H
  H13      1.0000 0.56890  0.81610  0.06230  Biso   1.000  H
  H14      1.0000 0.43110  0.18390  0.06230  Biso   1.000  H
  H15      1.0000 0.56890  0.18390  0.93770  Biso   1.000  H
  H16      1.0000 0.43110  0.81610  0.93770  Biso   1.000  H
  H17      1.0000 0.81610  0.06230  0.56890  Biso   1.000  H
  H18      1.0000 0.18390  0.06230  0.43110  Biso   1.000  H
  H19      1.0000 0.18390  0.93770  0.56890  Biso   1.000  H
  H20      1.0000 0.81610  0.93770  0.43110  Biso   1.000  H
  H21      1.0000 0.06230  0.56890  0.81610  Biso   1.000  H
  H22      1.0000 0.06230  0.43110  0.18390  Biso   1.000  H
  H23      1.0000 0.93770  0.56890  0.18390  Biso   1.000  H
  H24      1.0000 0.93770  0.43110  0.81610  Biso   1.000  H
  H25      1.0000 0.31610  0.06890  0.56230  Biso   1.000  H
  H26      1.0000 0.68390  0.93110  0.56230  Biso   1.000  H
  H27      1.0000 0.68390  0.06890  0.43770  Biso   1.000  H
  H28      1.0000 0.31610  0.93110  0.43770  Biso   1.000  H
  H29      1.0000 0.56230  0.31610  0.06890  Biso   1.000  H
  H30      1.0000 0.56230  0.68390  0.93110  Biso   1.000  H
  H31      1.0000 0.43770  0.68390  0.06890  Biso   1.000  H
  H32      1.0000 0.43770  0.31610  0.93110  Biso   1.000  H
  H33      1.0000 0.06890  0.56230  0.31610  Biso   1.000  H
  H34      1.0000 0.93110  0.56230  0.68390  Biso   1.000  H
  H35      1.0000 0.06890  0.43770  0.68390  Biso   1.000  H
  H36      1.0000 0.93110  0.43770  0.31610  Biso   1.000  H
  H37      1.0000 0.06890  0.31610  0.56230  Biso   1.000  H
  H38      1.0000 0.93110  0.68390  0.56230  Biso   1.000  H
  H39      1.0000 0.06890  0.68390  0.43770  Biso   1.000  H
  H40      1.0000 0.93110  0.31610  0.43770  Biso   1.000  H
  H41      1.0000 0.31610  0.56230  0.06890  Biso   1.000  H
  H42      1.0000 0.68390  0.56230  0.93110  Biso   1.000  H
  H43      1.0000 0.68390  0.43770  0.06890  Biso   1.000  H
  H44      1.0000 0.31610  0.43770  0.93110  Biso   1.000  H
  H45      1.0000 0.56230  0.06890  0.31610  Biso   1.000  H
  H46      1.0000 0.56230  0.93110  0.68390  Biso   1.000  H
  H47      1.0000 0.43770  0.06890  0.68390  Biso   1.000  H
  H48      1.0000 0.43770  0.93110  0.31610  Biso   1.000  H
  H49      1.0000 0.87740  0.55400  0.04450  Biso   1.000  H
  H50      1.0000 0.12260  0.44600  0.04450  Biso   1.000  H
  H51      1.0000 0.12260  0.55400  0.95550  Biso   1.000  H
  H52      1.0000 0.87740  0.44600  0.95550  Biso   1.000  H
  H53      1.0000 0.04450  0.87740  0.55400  Biso   1.000  H
  H54      1.0000 0.04450  0.12260  0.44600  Biso   1.000  H
  H55      1.0000 0.95550  0.12260  0.55400  Biso   1.000  H
  H56      1.0000 0.95550  0.87740  0.44600  Biso   1.000  H
  H57      1.0000 0.55400  0.04450  0.87740  Biso   1.000  H
  H58      1.0000 0.44600  0.04450  0.12260  Biso   1.000  H
  H59      1.0000 0.55400  0.95550  0.12260  Biso   1.000  H
  H60      1.0000 0.44600  0.95550  0.87740  Biso   1.000  H
  H61      1.0000 0.55400  0.87740  0.04450  Biso   1.000  H
  H62      1.0000 0.44600  0.12260  0.04450  Biso   1.000  H
  H63      1.0000 0.55400  0.12260  0.95550  Biso   1.000  H
  H64      1.0000 0.44600  0.87740  0.95550  Biso   1.000  H
  H65      1.0000 0.87740  0.04450  0.55400  Biso   1.000  H
  H66      1.0000 0.12260  0.04450  0.44600  Biso   1.000  H
  H67      1.0000 0.12260  0.95550  0.55400  Biso   1.000  H
  H68      1.0000 0.87740  0.95550  0.44600  Biso   1.000  H
  H69      1.0000 0.04450  0.55400  0.87740  Biso   1.000  H
  H70      1.0000 0.04450  0.44600  0.12260  Biso   1.000  H
  H71      1.0000 0.95550  0.55400  0.12260  Biso   1.000  H
  H72      1.0000 0.95550  0.44600  0.87740  Biso   1.000  H
  H73      1.0000 0.37740  0.05400  0.54450  Biso   1.000  H
  H74      1.0000 0.62260  0.94600  0.54450  Biso   1.000  H
  H75      1.0000 0.62260  0.05400  0.45550  Biso   1.000  H
  H76      1.0000 0.37740  0.94600  0.45550  Biso   1.000  H
  H77      1.0000 0.54450  0.37740  0.05400  Biso   1.000  H
  H78      1.0000 0.54450  0.62260  0.94600  Biso   1.000  H
  H79      1.0000 0.45550  0.62260  0.05400  Biso   1.000  H
  H80      1.0000 0.45550  0.37740  0.94600  Biso   1.000  H
  H81      1.0000 0.05400  0.54450  0.37740  Biso   1.000  H
  H82      1.0000 0.94600  0.54450  0.62260  Biso   1.000  H
  H83      1.0000 0.05400  0.45550  0.62260  Biso   1.000  H
  H84      1.0000 0.94600  0.45550  0.37740  Biso   1.000  H
  H85      1.0000 0.05400  0.37740  0.54450  Biso   1.000  H
  H86      1.0000 0.94600  0.62260  0.54450  Biso   1.000  H
  H87      1.0000 0.05400  0.62260  0.45550  Biso   1.000  H
  H88      1.0000 0.94600  0.37740  0.45550  Biso   1.000  H
  H89      1.0000 0.37740  0.54450  0.05400  Biso   1.000  H
  H90      1.0000 0.62260  0.54450  0.94600  Biso   1.000  H
  H91      1.0000 0.62260  0.45550  0.05400  Biso   1.000  H
  H92      1.0000 0.37740  0.45550  0.94600  Biso   1.000  H
  H93      1.0000 0.54450  0.05400  0.37740  Biso   1.000  H
  H94      1.0000 0.54450  0.94600  0.62260  Biso   1.000  H
  H95      1.0000 0.45550  0.05400  0.62260  Biso   1.000  H
  H96      1.0000 0.45550  0.94600  0.37740  Biso   1.000  H
  C193     1.0000 0.87360  0.58100  0.12640  Biso   1.000  C
  C194     1.0000 0.12640  0.41900  0.12640  Biso   1.000  C
  C195     1.0000 0.12640  0.58100  0.87360  Biso   1.000  C
  C196     1.0000 0.87360  0.41900  0.87360  Biso   1.000  C
  C197     1.0000 0.12640  0.87360  0.58100  Biso   1.000  C
  C198     1.0000 0.12640  0.12640  0.41900  Biso   1.000  C
  C199     1.0000 0.87360  0.12640  0.58100  Biso   1.000  C
  C200     1.0000 0.87360  0.87360  0.41900  Biso   1.000  C
  C201     1.0000 0.58100  0.12640  0.87360  Biso   1.000  C
  C202     1.0000 0.41900  0.12640  0.12640  Biso   1.000  C
  C203     1.0000 0.58100  0.87360  0.12640  Biso   1.000  C
  C204     1.0000 0.41900  0.87360  0.87360  Biso   1.000  C
  C205     1.0000 0.37360  0.08100  0.62640  Biso   1.000  C
  C206     1.0000 0.62640  0.91900  0.62640  Biso   1.000  C
  C207     1.0000 0.62640  0.08100  0.37360  Biso   1.000  C
  C208     1.0000 0.37360  0.91900  0.37360  Biso   1.000  C
  C209     1.0000 0.62640  0.37360  0.08100  Biso   1.000  C
  C210     1.0000 0.62640  0.62640  0.91900  Biso   1.000  C
  C211     1.0000 0.37360  0.62640  0.08100  Biso   1.000  C
  C212     1.0000 0.37360  0.37360  0.91900  Biso   1.000  C
  C213     1.0000 0.08100  0.62640  0.37360  Biso   1.000  C
  C214     1.0000 0.91900  0.62640  0.62640  Biso   1.000  C
  C215     1.0000 0.08100  0.37360  0.62640  Biso   1.000  C
  C216     1.0000 0.91900  0.37360  0.37360  Biso   1.000  C
  H97      1.0000 0.84500  0.58080  0.15500  Biso   1.000  H
  H98      1.0000 0.15500  0.41920  0.15500  Biso   1.000  H
  H99      1.0000 0.15500  0.58080  0.84500  Biso   1.000  H
  H100     1.0000 0.84500  0.41920  0.84500  Biso   1.000  H
  H101     1.0000 0.15500  0.84500  0.58080  Biso   1.000  H
  H102     1.0000 0.15500  0.15500  0.41920  Biso   1.000  H
  H103     1.0000 0.84500  0.15500  0.58080  Biso   1.000  H
  H104     1.0000 0.84500  0.84500  0.41920  Biso   1.000  H
  H105     1.0000 0.58080  0.15500  0.84500  Biso   1.000  H
  H106     1.0000 0.41920  0.15500  0.15500  Biso   1.000  H
  H107     1.0000 0.58080  0.84500  0.15500  Biso   1.000  H
  H108     1.0000 0.41920  0.84500  0.84500  Biso   1.000  H
  H109     1.0000 0.34500  0.08080  0.65500  Biso   1.000  H
  H110     1.0000 0.65500  0.91920  0.65500  Biso   1.000  H
  H111     1.0000 0.65500  0.08080  0.34500  Biso   1.000  H
  H112     1.0000 0.34500  0.91920  0.34500  Biso   1.000  H
  H113     1.0000 0.65500  0.34500  0.08080  Biso   1.000  H
  H114     1.0000 0.65500  0.65500  0.91920  Biso   1.000  H
  H115     1.0000 0.34500  0.65500  0.08080  Biso   1.000  H
  H116     1.0000 0.34500  0.34500  0.91920  Biso   1.000  H
  H117     1.0000 0.08080  0.65500  0.34500  Biso   1.000  H
  H118     1.0000 0.91920  0.65500  0.65500  Biso   1.000  H
  H119     1.0000 0.08080  0.34500  0.65500  Biso   1.000  H
  H120     1.0000 0.91920  0.34500  0.34500  Biso   1.000  H
  H121     1.0000 0.88240  0.61950  0.11770  Biso   1.000  H
  H122     1.0000 0.11760  0.38050  0.11770  Biso   1.000  H
  H123     1.0000 0.11760  0.61950  0.88230  Biso   1.000  H
  H124     1.0000 0.88240  0.38050  0.88230  Biso   1.000  H
  H125     1.0000 0.11770  0.88240  0.61950  Biso   1.000  H
  H126     1.0000 0.11770  0.11760  0.38050  Biso   1.000  H
  H127     1.0000 0.88230  0.11760  0.61950  Biso   1.000  H
  H128     1.0000 0.88230  0.88240  0.38050  Biso   1.000  H
  H129     1.0000 0.61950  0.11770  0.88240  Biso   1.000  H
  H130     1.0000 0.38050  0.11770  0.11760  Biso   1.000  H
  H131     1.0000 0.61950  0.88230  0.11760  Biso   1.000  H
  H132     1.0000 0.38050  0.88230  0.88240  Biso   1.000  H
  H133     1.0000 0.38240  0.11950  0.61770  Biso   1.000  H
  H134     1.0000 0.61760  0.88050  0.61770  Biso   1.000  H
  H135     1.0000 0.61760  0.11950  0.38230  Biso   1.000  H
  H136     1.0000 0.38240  0.88050  0.38230  Biso   1.000  H
  H137     1.0000 0.61770  0.38240  0.11950  Biso   1.000  H
  H138     1.0000 0.61770  0.61760  0.88050  Biso   1.000  H
  H139     1.0000 0.38230  0.61760  0.11950  Biso   1.000  H
  H140     1.0000 0.38230  0.38240  0.88050  Biso   1.000  H
  H141     1.0000 0.11950  0.61770  0.38240  Biso   1.000  H
  H142     1.0000 0.88050  0.61770  0.61760  Biso   1.000  H
  H143     1.0000 0.11950  0.38230  0.61760  Biso   1.000  H
  H144     1.0000 0.88050  0.38230  0.38240  Biso   1.000  H
  C217     1.0000 0.80390  0.31920  0.12120  Biso   1.000  C
  C218     1.0000 0.19610  0.68080  0.12120  Biso   1.000  C
  C219     1.0000 0.19610  0.31920  0.87880  Biso   1.000  C
  C220     1.0000 0.80390  0.68080  0.87880  Biso   1.000  C
  C221     1.0000 0.12120  0.80390  0.31920  Biso   1.000  C
  C222     1.0000 0.12120  0.19610  0.68080  Biso   1.000  C
  C223     1.0000 0.87880  0.19610  0.31920  Biso   1.000  C
  C224     1.0000 0.87880  0.80390  0.68080  Biso   1.000  C
  C225     1.0000 0.31920  0.12120  0.80390  Biso   1.000  C
  C226     1.0000 0.68080  0.12120  0.19610  Biso   1.000  C
  C227     1.0000 0.31920  0.87880  0.19610  Biso   1.000  C
  C228     1.0000 0.68080  0.87880  0.80390  Biso   1.000  C
  C229     1.0000 0.31920  0.80390  0.12120  Biso   1.000  C
  C230     1.0000 0.68080  0.19610  0.12120  Biso   1.000  C
  C231     1.0000 0.31920  0.19610  0.87880  Biso   1.000  C
  C232     1.0000 0.68080  0.80390  0.87880  Biso   1.000  C
  C233     1.0000 0.80390  0.12120  0.31920  Biso   1.000  C
  C234     1.0000 0.19610  0.12120  0.68080  Biso   1.000  C
  C235     1.0000 0.19610  0.87880  0.31920  Biso   1.000  C
  C236     1.0000 0.80390  0.87880  0.68080  Biso   1.000  C
  C237     1.0000 0.12120  0.31920  0.80390  Biso   1.000  C
  C238     1.0000 0.12120  0.68080  0.19610  Biso   1.000  C
  C239     1.0000 0.87880  0.31920  0.19610  Biso   1.000  C
  C240     1.0000 0.87880  0.68080  0.80390  Biso   1.000  C
  C241     1.0000 0.30390  0.81920  0.62120  Biso   1.000  C
  C242     1.0000 0.69610  0.18080  0.62120  Biso   1.000  C
  C243     1.0000 0.69610  0.81920  0.37880  Biso   1.000  C
  C244     1.0000 0.30390  0.18080  0.37880  Biso   1.000  C
  C245     1.0000 0.62120  0.30390  0.81920  Biso   1.000  C
  C246     1.0000 0.62120  0.69610  0.18080  Biso   1.000  C
  C247     1.0000 0.37880  0.69610  0.81920  Biso   1.000  C
  C248     1.0000 0.37880  0.30390  0.18080  Biso   1.000  C
  C249     1.0000 0.81920  0.62120  0.30390  Biso   1.000  C
  C250     1.0000 0.18080  0.62120  0.69610  Biso   1.000  C
  C251     1.0000 0.81920  0.37880  0.69610  Biso   1.000  C
  C252     1.0000 0.18080  0.37880  0.30390  Biso   1.000  C
  C253     1.0000 0.81920  0.30390  0.62120  Biso   1.000  C
  C254     1.0000 0.18080  0.69610  0.62120  Biso   1.000  C
  C255     1.0000 0.81920  0.69610  0.37880  Biso   1.000  C
  C256     1.0000 0.18080  0.30390  0.37880  Biso   1.000  C
  C257     1.0000 0.30390  0.62120  0.81920  Biso   1.000  C
  C258     1.0000 0.69610  0.62120  0.18080  Biso   1.000  C
  C259     1.0000 0.69610  0.37880  0.81920  Biso   1.000  C
  C260     1.0000 0.30390  0.37880  0.18080  Biso   1.000  C
  C261     1.0000 0.62120  0.81920  0.30390  Biso   1.000  C
  C262     1.0000 0.62120  0.18080  0.69610  Biso   1.000  C
  C263     1.0000 0.37880  0.81920  0.69610  Biso   1.000  C
  C264     1.0000 0.37880  0.18080  0.30390  Biso   1.000  C
  H145     1.0000 0.79490  0.29990  0.08680  Biso   1.000  H
  H146     1.0000 0.20510  0.70010  0.08680  Biso   1.000  H
  H147     1.0000 0.20510  0.29990  0.91320  Biso   1.000  H
  H148     1.0000 0.79490  0.70010  0.91320  Biso   1.000  H
  H149     1.0000 0.08680  0.79490  0.29990  Biso   1.000  H
  H150     1.0000 0.08680  0.20510  0.70010  Biso   1.000  H
  H151     1.0000 0.91320  0.20510  0.29990  Biso   1.000  H
  H152     1.0000 0.91320  0.79490  0.70010  Biso   1.000  H
  H153     1.0000 0.29990  0.08680  0.79490  Biso   1.000  H
  H154     1.0000 0.70010  0.08680  0.20510  Biso   1.000  H
  H155     1.0000 0.29990  0.91320  0.20510  Biso   1.000  H
  H156     1.0000 0.70010  0.91320  0.79490  Biso   1.000  H
  H157     1.0000 0.29990  0.79490  0.08680  Biso   1.000  H
  H158     1.0000 0.70010  0.20510  0.08680  Biso   1.000  H
  H159     1.0000 0.29990  0.20510  0.91320  Biso   1.000  H
  H160     1.0000 0.70010  0.79490  0.91320  Biso   1.000  H
  H161     1.0000 0.79490  0.08680  0.29990  Biso   1.000  H
  H162     1.0000 0.20510  0.08680  0.70010  Biso   1.000  H
  H163     1.0000 0.20510  0.91320  0.29990  Biso   1.000  H
  H164     1.0000 0.79490  0.91320  0.70010  Biso   1.000  H
  H165     1.0000 0.08680  0.29990  0.79490  Biso   1.000  H
  H166     1.0000 0.08680  0.70010  0.20510  Biso   1.000  H
  H167     1.0000 0.91320  0.29990  0.20510  Biso   1.000  H
  H168     1.0000 0.91320  0.70010  0.79490  Biso   1.000  H
  H169     1.0000 0.29490  0.79990  0.58680  Biso   1.000  H
  H170     1.0000 0.70510  0.20010  0.58680  Biso   1.000  H
  H171     1.0000 0.70510  0.79990  0.41320  Biso   1.000  H
  H172     1.0000 0.29490  0.20010  0.41320  Biso   1.000  H
  H173     1.0000 0.58680  0.29490  0.79990  Biso   1.000  H
  H174     1.0000 0.58680  0.70510  0.20010  Biso   1.000  H
  H175     1.0000 0.41320  0.70510  0.79990  Biso   1.000  H
  H176     1.0000 0.41320  0.29490  0.20010  Biso   1.000  H
  H177     1.0000 0.79990  0.58680  0.29490  Biso   1.000  H
  H178     1.0000 0.20010  0.58680  0.70510  Biso   1.000  H
  H179     1.0000 0.79990  0.41320  0.70510  Biso   1.000  H
  H180     1.0000 0.20010  0.41320  0.29490  Biso   1.000  H
  H181     1.0000 0.79990  0.29490  0.58680  Biso   1.000  H
  H182     1.0000 0.20010  0.70510  0.58680  Biso   1.000  H
  H183     1.0000 0.79990  0.70510  0.41320  Biso   1.000  H
  H184     1.0000 0.20010  0.29490  0.41320  Biso   1.000  H
  H185     1.0000 0.29490  0.58680  0.79990  Biso   1.000  H
  H186     1.0000 0.70510  0.58680  0.20010  Biso   1.000  H
  H187     1.0000 0.70510  0.41320  0.79990  Biso   1.000  H
  H188     1.0000 0.29490  0.41320  0.20010  Biso   1.000  H
  H189     1.0000 0.58680  0.79990  0.29490  Biso   1.000  H
  H190     1.0000 0.58680  0.20010  0.70510  Biso   1.000  H
  H191     1.0000 0.41320  0.79990  0.70510  Biso   1.000  H
  H192     1.0000 0.41320  0.20010  0.29490  Biso   1.000  H
  H193     1.0000 0.77100  0.31810  0.14490  Biso   1.000  H
  H194     1.0000 0.22900  0.68190  0.14490  Biso   1.000  H
  H195     1.0000 0.22900  0.31810  0.85510  Biso   1.000  H
  H196     1.0000 0.77100  0.68190  0.85510  Biso   1.000  H
  H197     1.0000 0.14490  0.77100  0.31810  Biso   1.000  H
  H198     1.0000 0.14490  0.22900  0.68190  Biso   1.000  H
  H199     1.0000 0.85510  0.22900  0.31810  Biso   1.000  H
  H200     1.0000 0.85510  0.77100  0.68190  Biso   1.000  H
  H201     1.0000 0.31810  0.14490  0.77100  Biso   1.000  H
  H202     1.0000 0.68190  0.14490  0.22900  Biso   1.000  H
  H203     1.0000 0.31810  0.85510  0.22900  Biso   1.000  H
  H204     1.0000 0.68190  0.85510  0.77100  Biso   1.000  H
  H205     1.0000 0.31810  0.77100  0.14490  Biso   1.000  H
  H206     1.0000 0.68190  0.22900  0.14490  Biso   1.000  H
  H207     1.0000 0.31810  0.22900  0.85510  Biso   1.000  H
  H208     1.0000 0.68190  0.77100  0.85510  Biso   1.000  H
  H209     1.0000 0.77100  0.14490  0.31810  Biso   1.000  H
  H210     1.0000 0.22900  0.14490  0.68190  Biso   1.000  H
  H211     1.0000 0.22900  0.85510  0.31810  Biso   1.000  H
  H212     1.0000 0.77100  0.85510  0.68190  Biso   1.000  H
  H213     1.0000 0.14490  0.31810  0.77100  Biso   1.000  H
  H214     1.0000 0.14490  0.68190  0.22900  Biso   1.000  H
  H215     1.0000 0.85510  0.31810  0.22900  Biso   1.000  H
  H216     1.0000 0.85510  0.68190  0.77100  Biso   1.000  H
  H217     1.0000 0.27100  0.81810  0.64490  Biso   1.000  H
  H218     1.0000 0.72900  0.18190  0.64490  Biso   1.000  H
  H219     1.0000 0.72900  0.81810  0.35510  Biso   1.000  H
  H220     1.0000 0.27100  0.18190  0.35510  Biso   1.000  H
  H221     1.0000 0.64490  0.27100  0.81810  Biso   1.000  H
  H222     1.0000 0.64490  0.72900  0.18190  Biso   1.000  H
  H223     1.0000 0.35510  0.72900  0.81810  Biso   1.000  H
  H224     1.0000 0.35510  0.27100  0.18190  Biso   1.000  H
  H225     1.0000 0.81810  0.64490  0.27100  Biso   1.000  H
  H226     1.0000 0.18190  0.64490  0.72900  Biso   1.000  H
  H227     1.0000 0.81810  0.35510  0.72900  Biso   1.000  H
  H228     1.0000 0.18190  0.35510  0.27100  Biso   1.000  H
  H229     1.0000 0.81810  0.27100  0.64490  Biso   1.000  H
  H230     1.0000 0.18190  0.72900  0.64490  Biso   1.000  H
  H231     1.0000 0.81810  0.72900  0.35510  Biso   1.000  H
  H232     1.0000 0.18190  0.27100  0.35510  Biso   1.000  H
  H233     1.0000 0.27100  0.64490  0.81810  Biso   1.000  H
  H234     1.0000 0.72900  0.64490  0.18190  Biso   1.000  H
  H235     1.0000 0.72900  0.35510  0.81810  Biso   1.000  H
  H236     1.0000 0.27100  0.35510  0.18190  Biso   1.000  H
  H237     1.0000 0.64490  0.81810  0.27100  Biso   1.000  H
  H238     1.0000 0.64490  0.18190  0.72900  Biso   1.000  H
  H239     1.0000 0.35510  0.81810  0.72900  Biso   1.000  H
  H240     1.0000 0.35510  0.18190  0.27100  Biso   1.000  H
  C265     1.0000 0.85030  0.28820  0.14970  Biso   1.000  C
  C266     1.0000 0.14970  0.71180  0.14970  Biso   1.000  C
  C267     1.0000 0.14970  0.28820  0.85030  Biso   1.000  C
  C268     1.0000 0.85030  0.71180  0.85030  Biso   1.000  C
  C269     1.0000 0.14970  0.85030  0.28820  Biso   1.000  C
  C270     1.0000 0.14970  0.14970  0.71180  Biso   1.000  C
  C271     1.0000 0.85030  0.14970  0.28820  Biso   1.000  C
  C272     1.0000 0.85030  0.85030  0.71180  Biso   1.000  C
  C273     1.0000 0.28820  0.14970  0.85030  Biso   1.000  C
  C274     1.0000 0.71180  0.14970  0.14970  Biso   1.000  C
  C275     1.0000 0.28820  0.85030  0.14970  Biso   1.000  C
  C276     1.0000 0.71180  0.85030  0.85030  Biso   1.000  C
  C277     1.0000 0.35030  0.78820  0.64970  Biso   1.000  C
  C278     1.0000 0.64970  0.21180  0.64970  Biso   1.000  C
  C279     1.0000 0.64970  0.78820  0.35030  Biso   1.000  C
  C280     1.0000 0.35030  0.21180  0.35030  Biso   1.000  C
  C281     1.0000 0.64970  0.35030  0.78820  Biso   1.000  C
  C282     1.0000 0.64970  0.64970  0.21180  Biso   1.000  C
  C283     1.0000 0.35030  0.64970  0.78820  Biso   1.000  C
  C284     1.0000 0.35030  0.35030  0.21180  Biso   1.000  C
  C285     1.0000 0.78820  0.64970  0.35030  Biso   1.000  C
  C286     1.0000 0.21180  0.64970  0.64970  Biso   1.000  C
  C287     1.0000 0.78820  0.35030  0.64970  Biso   1.000  C
  C288     1.0000 0.21180  0.35030  0.35030  Biso   1.000  C
  H241     1.0000 0.87820  0.27860  0.12190  Biso   1.000  H
  H242     1.0000 0.12180  0.72140  0.12190  Biso   1.000  H
  H243     1.0000 0.12180  0.27860  0.87810  Biso   1.000  H
  H244     1.0000 0.87820  0.72140  0.87810  Biso   1.000  H
  H245     1.0000 0.12190  0.87820  0.27860  Biso   1.000  H
  H246     1.0000 0.12190  0.12180  0.72140  Biso   1.000  H
  H247     1.0000 0.87810  0.12180  0.27860  Biso   1.000  H
  H248     1.0000 0.87810  0.87820  0.72140  Biso   1.000  H
  H249     1.0000 0.27860  0.12190  0.87820  Biso   1.000  H
  H250     1.0000 0.72140  0.12190  0.12180  Biso   1.000  H
  H251     1.0000 0.27860  0.87810  0.12180  Biso   1.000  H
  H252     1.0000 0.72140  0.87810  0.87820  Biso   1.000  H
  H253     1.0000 0.37820  0.77860  0.62190  Biso   1.000  H
  H254     1.0000 0.62180  0.22140  0.62190  Biso   1.000  H
  H255     1.0000 0.62180  0.77860  0.37810  Biso   1.000  H
  H256     1.0000 0.37820  0.22140  0.37810  Biso   1.000  H
  H257     1.0000 0.62190  0.37820  0.77860  Biso   1.000  H
  H258     1.0000 0.62190  0.62180  0.22140  Biso   1.000  H
  H259     1.0000 0.37810  0.62180  0.77860  Biso   1.000  H
  H260     1.0000 0.37810  0.37820  0.22140  Biso   1.000  H
  H261     1.0000 0.77860  0.62190  0.37820  Biso   1.000  H
  H262     1.0000 0.22140  0.62190  0.62180  Biso   1.000  H
  H263     1.0000 0.77860  0.37810  0.62180  Biso   1.000  H
  H264     1.0000 0.22140  0.37810  0.37820  Biso   1.000  H
  H265     1.0000 0.83560  0.25350  0.16440  Biso   1.000  H
  H266     1.0000 0.16440  0.74650  0.16440  Biso   1.000  H
  H267     1.0000 0.16440  0.25350  0.83560  Biso   1.000  H
  H268     1.0000 0.83560  0.74650  0.83560  Biso   1.000  H
  H269     1.0000 0.16440  0.83560  0.25350  Biso   1.000  H
  H270     1.0000 0.16440  0.16440  0.74650  Biso   1.000  H
  H271     1.0000 0.83560  0.16440  0.25350  Biso   1.000  H
  H272     1.0000 0.83560  0.83560  0.74650  Biso   1.000  H
  H273     1.0000 0.25350  0.16440  0.83560  Biso   1.000  H
  H274     1.0000 0.74650  0.16440  0.16440  Biso   1.000  H
  H275     1.0000 0.25350  0.83560  0.16440  Biso   1.000  H
  H276     1.0000 0.74650  0.83560  0.83560  Biso   1.000  H
  H277     1.0000 0.33560  0.75350  0.66440  Biso   1.000  H
  H278     1.0000 0.66440  0.24650  0.66440  Biso   1.000  H
  H279     1.0000 0.66440  0.75350  0.33560  Biso   1.000  H
  H280     1.0000 0.33560  0.24650  0.33560  Biso   1.000  H
  H281     1.0000 0.66440  0.33560  0.75350  Biso   1.000  H
  H282     1.0000 0.66440  0.66440  0.24650  Biso   1.000  H
  H283     1.0000 0.33560  0.66440  0.75350  Biso   1.000  H
  H284     1.0000 0.33560  0.33560  0.24650  Biso   1.000  H
  H285     1.0000 0.75350  0.66440  0.33560  Biso   1.000  H
  H286     1.0000 0.24650  0.66440  0.66440  Biso   1.000  H
  H287     1.0000 0.75350  0.33560  0.66440  Biso   1.000  H
  H288     1.0000 0.24650  0.33560  0.33560  Biso   1.000  H
  Cl1      1.0000 0.00000  0.50000  0.00000  Biso   1.000  Cl
  Cl2      1.0000 0.00000  0.00000  0.50000  Biso   1.000  Cl
  Cl3      1.0000 0.50000  0.00000  0.00000  Biso   1.000  Cl
  Cl4      1.0000 0.50000  0.00000  0.50000  Biso   1.000  Cl
  Cl5      1.0000 0.50000  0.50000  0.00000  Biso   1.000  Cl
  Cl6      1.0000 0.00000  0.50000  0.50000  Biso   1.000  Cl
  O1       1.0000 0.96490  0.46580  0.03510  Biso   1.000  O
  O2       1.0000 0.03510  0.53420  0.03510  Biso   1.000  O
  O3       1.0000 0.03510  0.46580  0.96490  Biso   1.000  O
  O4       1.0000 0.96490  0.53420  0.96490  Biso   1.000  O
  O5       1.0000 0.03510  0.96490  0.46580  Biso   1.000  O
  O6       1.0000 0.03510  0.03510  0.53420  Biso   1.000  O
  O7       1.0000 0.96490  0.03510  0.46580  Biso   1.000  O
  O8       1.0000 0.96490  0.96490  0.53420  Biso   1.000  O
  O9       1.0000 0.46580  0.03510  0.96490  Biso   1.000  O
  O10      1.0000 0.53420  0.03510  0.03510  Biso   1.000  O
  O11      1.0000 0.46580  0.96490  0.03510  Biso   1.000  O
  O12      1.0000 0.53420  0.96490  0.96490  Biso   1.000  O
  O13      1.0000 0.46490  0.96580  0.53510  Biso   1.000  O
  O14      1.0000 0.53510  0.03420  0.53510  Biso   1.000  O
  O15      1.0000 0.53510  0.96580  0.46490  Biso   1.000  O
  O16      1.0000 0.46490  0.03420  0.46490  Biso   1.000  O
  O17      1.0000 0.53510  0.46490  0.96580  Biso   1.000  O
  O18      1.0000 0.53510  0.53510  0.03420  Biso   1.000  O
  O19      1.0000 0.46490  0.53510  0.96580  Biso   1.000  O
  O20      1.0000 0.46490  0.46490  0.03420  Biso   1.000  O
  O21      1.0000 0.96580  0.53510  0.46490  Biso   1.000  O
  O22      1.0000 0.03420  0.53510  0.53510  Biso   1.000  O
  O23      1.0000 0.96580  0.46490  0.53510  Biso   1.000  O
  O24      1.0000 0.03420  0.46490  0.46490  Biso   1.000  O
  Cl7      1.0000 0.72370  0.27630  0.27630  Biso   1.000  Cl
  Cl8      1.0000 0.27630  0.72370  0.27630  Biso   1.000  Cl
  Cl9      1.0000 0.27630  0.27630  0.72370  Biso   1.000  Cl
  Cl10     1.0000 0.72370  0.72370  0.72370  Biso   1.000  Cl
  Cl11     1.0000 0.22370  0.77630  0.77630  Biso   1.000  Cl
  Cl12     1.0000 0.77630  0.22370  0.77630  Biso   1.000  Cl
  Cl13     1.0000 0.77630  0.77630  0.22370  Biso   1.000  Cl
  Cl14     1.0000 0.22370  0.22370  0.22370  Biso   1.000  Cl
  O25      1.0000 0.76000  0.24000  0.24000  Biso   1.000  O
  O26      1.0000 0.24000  0.76000  0.24000  Biso   1.000  O
  O27      1.0000 0.24000  0.24000  0.76000  Biso   1.000  O
  O28      1.0000 0.76000  0.76000  0.76000  Biso   1.000  O
  O29      1.0000 0.26000  0.74000  0.74000  Biso   1.000  O
  O30      1.0000 0.74000  0.26000  0.74000  Biso   1.000  O
  O31      1.0000 0.74000  0.74000  0.26000  Biso   1.000  O
  O32      1.0000 0.26000  0.26000  0.26000  Biso   1.000  O
  O33      1.0000 0.68960  0.31040  0.24070  Biso   1.000  O
  O34      1.0000 0.31040  0.68960  0.24070  Biso   1.000  O
  O35      1.0000 0.31040  0.31040  0.75930  Biso   1.000  O
  O36      1.0000 0.68960  0.68960  0.75930  Biso   1.000  O
  O37      1.0000 0.24070  0.68960  0.31040  Biso   1.000  O
  O38      1.0000 0.24070  0.31040  0.68960  Biso   1.000  O
  O39      1.0000 0.75930  0.31040  0.31040  Biso   1.000  O
  O40      1.0000 0.75930  0.68960  0.68960  Biso   1.000  O
  O41      1.0000 0.31040  0.24070  0.68960  Biso   1.000  O
  O42      1.0000 0.68960  0.24070  0.31040  Biso   1.000  O
  O43      1.0000 0.31040  0.75930  0.31040  Biso   1.000  O
  O44      1.0000 0.68960  0.75930  0.68960  Biso   1.000  O
  O45      1.0000 0.18960  0.81040  0.74070  Biso   1.000  O
  O46      1.0000 0.81040  0.18960  0.74070  Biso   1.000  O
  O47      1.0000 0.81040  0.81040  0.25930  Biso   1.000  O
  O48      1.0000 0.18960  0.18960  0.25930  Biso   1.000  O
  O49      1.0000 0.74070  0.18960  0.81040  Biso   1.000  O
  O50      1.0000 0.74070  0.81040  0.18960  Biso   1.000  O
  O51      1.0000 0.25930  0.81040  0.81040  Biso   1.000  O
  O52      1.0000 0.25930  0.18960  0.18960  Biso   1.000  O
  O53      1.0000 0.81040  0.74070  0.18960  Biso   1.000  O
  O54      1.0000 0.18960  0.74070  0.81040  Biso   1.000  O
  O55      1.0000 0.81040  0.25930  0.81040  Biso   1.000  O
  O56      1.0000 0.18960  0.25930  0.18960  Biso   1.000  O
  Cl15     1.0000 0.62480  0.62480  0.37520  Biso   1.000  Cl
  Cl16     1.0000 0.37520  0.37520  0.37520  Biso   1.000  Cl
  Cl17     1.0000 0.37520  0.62480  0.62480  Biso   1.000  Cl
  Cl18     1.0000 0.62480  0.37520  0.62480  Biso   1.000  Cl
  Cl19     1.0000 0.12480  0.12480  0.87520  Biso   1.000  Cl
  Cl20     1.0000 0.87520  0.87520  0.87520  Biso   1.000  Cl
  Cl21     1.0000 0.87520  0.12480  0.12480  Biso   1.000  Cl
  Cl22     1.0000 0.12480  0.87520  0.12480  Biso   1.000  Cl
  O57      1.0000 0.59110  0.66430  0.40890  Biso   1.000  O
  O58      1.0000 0.40890  0.33570  0.40890  Biso   1.000  O
  O59      1.0000 0.40890  0.66430  0.59110  Biso   1.000  O
  O60      1.0000 0.59110  0.33570  0.59110  Biso   1.000  O
  O61      1.0000 0.40890  0.59110  0.66430  Biso   1.000  O
  O62      1.0000 0.40890  0.40890  0.33570  Biso   1.000  O
  O63      1.0000 0.59110  0.40890  0.66430  Biso   1.000  O
  O64      1.0000 0.59110  0.59110  0.33570  Biso   1.000  O
  O65      1.0000 0.66430  0.40890  0.59110  Biso   1.000  O
  O66      1.0000 0.33570  0.40890  0.40890  Biso   1.000  O
  O67      1.0000 0.66430  0.59110  0.40890  Biso   1.000  O
  O68      1.0000 0.33570  0.59110  0.59110  Biso   1.000  O
  O69      1.0000 0.09110  0.16430  0.90890  Biso   1.000  O
  O70      1.0000 0.90890  0.83570  0.90890  Biso   1.000  O
  O71      1.0000 0.90890  0.16430  0.09110  Biso   1.000  O
  O72      1.0000 0.09110  0.83570  0.09110  Biso   1.000  O
  O73      1.0000 0.90890  0.09110  0.16430  Biso   1.000  O
  O74      1.0000 0.90890  0.90890  0.83570  Biso   1.000  O
  O75      1.0000 0.09110  0.90890  0.16430  Biso   1.000  O
  O76      1.0000 0.09110  0.09110  0.83570  Biso   1.000  O
  O77      1.0000 0.16430  0.90890  0.09110  Biso   1.000  O
  O78      1.0000 0.83570  0.90890  0.90890  Biso   1.000  O
  O79      1.0000 0.16430  0.09110  0.90890  Biso   1.000  O
  O80      1.0000 0.83570  0.09110  0.09110  Biso   1.000  O
  O81      1.0000 0.66020  0.66020  0.33980  Biso   1.000  O
  O82      1.0000 0.33980  0.33980  0.33980  Biso   1.000  O
  O83      1.0000 0.33980  0.66020  0.66020  Biso   1.000  O
  O84      1.0000 0.66020  0.33980  0.66020  Biso   1.000  O
  O85      1.0000 0.16020  0.16020  0.83980  Biso   1.000  O
  O86      1.0000 0.83980  0.83980  0.83980  Biso   1.000  O
  O87      1.0000 0.83980  0.16020  0.16020  Biso   1.000  O
  O88      1.0000 0.16020  0.83980  0.16020  Biso   1.000  O
  C289     1.0000 0.73580  0.44580  0.26420  Biso   1.000  C
  C290     1.0000 0.26420  0.55420  0.26420  Biso   1.000  C
  C291     1.0000 0.26420  0.44580  0.73580  Biso   1.000  C
  C292     1.0000 0.73580  0.55420  0.73580  Biso   1.000  C
  C293     1.0000 0.26420  0.73580  0.44580  Biso   1.000  C
  C294     1.0000 0.26420  0.26420  0.55420  Biso   1.000  C
  C295     1.0000 0.73580  0.26420  0.44580  Biso   1.000  C
  C296     1.0000 0.73580  0.73580  0.55420  Biso   1.000  C
  C297     1.0000 0.44580  0.26420  0.73580  Biso   1.000  C
  C298     1.0000 0.55420  0.26420  0.26420  Biso   1.000  C
  C299     1.0000 0.44580  0.73580  0.26420  Biso   1.000  C
  C300     1.0000 0.55420  0.73580  0.73580  Biso   1.000  C
  C301     1.0000 0.23580  0.94580  0.76420  Biso   1.000  C
  C302     1.0000 0.76420  0.05420  0.76420  Biso   1.000  C
  C303     1.0000 0.76420  0.94580  0.23580  Biso   1.000  C
  C304     1.0000 0.23580  0.05420  0.23580  Biso   1.000  C
  C305     1.0000 0.76420  0.23580  0.94580  Biso   1.000  C
  C306     1.0000 0.76420  0.76420  0.05420  Biso   1.000  C
  C307     1.0000 0.23580  0.76420  0.94580  Biso   1.000  C
  C308     1.0000 0.23580  0.23580  0.05420  Biso   1.000  C
  C309     1.0000 0.94580  0.76420  0.23580  Biso   1.000  C
  C310     1.0000 0.05420  0.76420  0.76420  Biso   1.000  C
  C311     1.0000 0.94580  0.23580  0.76420  Biso   1.000  C
  C312     1.0000 0.05420  0.23580  0.23580  Biso   1.000  C
  Cl23     1.0000 0.69350  0.48840  0.30650  Biso   1.000  Cl
  Cl24     1.0000 0.30650  0.51160  0.30650  Biso   1.000  Cl
  Cl25     1.0000 0.30650  0.48840  0.69350  Biso   1.000  Cl
  Cl26     1.0000 0.69350  0.51160  0.69350  Biso   1.000  Cl
  Cl27     1.0000 0.30650  0.69350  0.48840  Biso   1.000  Cl
  Cl28     1.0000 0.30650  0.30650  0.51160  Biso   1.000  Cl
  Cl29     1.0000 0.69350  0.30650  0.48840  Biso   1.000  Cl
  Cl30     1.0000 0.69350  0.69350  0.51160  Biso   1.000  Cl
  Cl31     1.0000 0.48840  0.30650  0.69350  Biso   1.000  Cl
  Cl32     1.0000 0.51160  0.30650  0.30650  Biso   1.000  Cl
  Cl33     1.0000 0.48840  0.69350  0.30650  Biso   1.000  Cl
  Cl34     1.0000 0.51160  0.69350  0.69350  Biso   1.000  Cl
  Cl35     1.0000 0.19350  0.98840  0.80650  Biso   1.000  Cl
  Cl36     1.0000 0.80650  0.01160  0.80650  Biso   1.000  Cl
  Cl37     1.0000 0.80650  0.98840  0.19350  Biso   1.000  Cl
  Cl38     1.0000 0.19350  0.01160  0.19350  Biso   1.000  Cl
  Cl39     1.0000 0.80650  0.19350  0.98840  Biso   1.000  Cl
  Cl40     1.0000 0.80650  0.80650  0.01160  Biso   1.000  Cl
  Cl41     1.0000 0.19350  0.80650  0.98840  Biso   1.000  Cl
  Cl42     1.0000 0.19350  0.19350  0.01160  Biso   1.000  Cl
  Cl43     1.0000 0.98840  0.80650  0.19350  Biso   1.000  Cl
  Cl44     1.0000 0.01160  0.80650  0.80650  Biso   1.000  Cl
  Cl45     1.0000 0.98840  0.19350  0.80650  Biso   1.000  Cl
  Cl46     1.0000 0.01160  0.19350  0.19350  Biso   1.000  Cl
  Cl47     1.0000 0.80580  0.45860  0.27810  Biso   1.000  Cl
  Cl48     1.0000 0.19420  0.54140  0.27810  Biso   1.000  Cl
  Cl49     1.0000 0.19420  0.45860  0.72190  Biso   1.000  Cl
  Cl50     1.0000 0.80580  0.54140  0.72190  Biso   1.000  Cl
  Cl51     1.0000 0.27810  0.80580  0.45860  Biso   1.000  Cl
  Cl52     1.0000 0.27810  0.19420  0.54140  Biso   1.000  Cl
  Cl53     1.0000 0.72190  0.19420  0.45860  Biso   1.000  Cl
  Cl54     1.0000 0.72190  0.80580  0.54140  Biso   1.000  Cl
  Cl55     1.0000 0.45860  0.27810  0.80580  Biso   1.000  Cl
  Cl56     1.0000 0.54140  0.27810  0.19420  Biso   1.000  Cl
  Cl57     1.0000 0.45860  0.72190  0.19420  Biso   1.000  Cl
  Cl58     1.0000 0.54140  0.72190  0.80580  Biso   1.000  Cl
  Cl59     1.0000 0.45860  0.80580  0.27810  Biso   1.000  Cl
  Cl60     1.0000 0.54140  0.19420  0.27810  Biso   1.000  Cl
  Cl61     1.0000 0.45860  0.19420  0.72190  Biso   1.000  Cl
  Cl62     1.0000 0.54140  0.80580  0.72190  Biso   1.000  Cl
  Cl63     1.0000 0.80580  0.27810  0.45860  Biso   1.000  Cl
  Cl64     1.0000 0.19420  0.27810  0.54140  Biso   1.000  Cl
  Cl65     1.0000 0.19420  0.72190  0.45860  Biso   1.000  Cl
  Cl66     1.0000 0.80580  0.72190  0.54140  Biso   1.000  Cl
  Cl67     1.0000 0.27810  0.45860  0.80580  Biso   1.000  Cl
  Cl68     1.0000 0.27810  0.54140  0.19420  Biso   1.000  Cl
  Cl69     1.0000 0.72190  0.45860  0.19420  Biso   1.000  Cl
  Cl70     1.0000 0.72190  0.54140  0.80580  Biso   1.000  Cl
  Cl71     1.0000 0.30580  0.95860  0.77810  Biso   1.000  Cl
  Cl72     1.0000 0.69420  0.04140  0.77810  Biso   1.000  Cl
  Cl73     1.0000 0.69420  0.95860  0.22190  Biso   1.000  Cl
  Cl74     1.0000 0.30580  0.04140  0.22190  Biso   1.000  Cl
  Cl75     1.0000 0.77810  0.30580  0.95860  Biso   1.000  Cl
  Cl76     1.0000 0.77810  0.69420  0.04140  Biso   1.000  Cl
  Cl77     1.0000 0.22190  0.69420  0.95860  Biso   1.000  Cl
  Cl78     1.0000 0.22190  0.30580  0.04140  Biso   1.000  Cl
  Cl79     1.0000 0.95860  0.77810  0.30580  Biso   1.000  Cl
  Cl80     1.0000 0.04140  0.77810  0.69420  Biso   1.000  Cl
  Cl81     1.0000 0.95860  0.22190  0.69420  Biso   1.000  Cl
  Cl82     1.0000 0.04140  0.22190  0.30580  Biso   1.000  Cl
  Cl83     1.0000 0.95860  0.30580  0.77810  Biso   1.000  Cl
  Cl84     1.0000 0.04140  0.69420  0.77810  Biso   1.000  Cl
  Cl85     1.0000 0.95860  0.69420  0.22190  Biso   1.000  Cl
  Cl86     1.0000 0.04140  0.30580  0.22190  Biso   1.000  Cl
  Cl87     1.0000 0.30580  0.77810  0.95860  Biso   1.000  Cl
  Cl88     1.0000 0.69420  0.77810  0.04140  Biso   1.000  Cl
  Cl89     1.0000 0.69420  0.22190  0.95860  Biso   1.000  Cl
  Cl90     1.0000 0.30580  0.22190  0.04140  Biso   1.000  Cl
  Cl91     1.0000 0.77810  0.95860  0.30580  Biso   1.000  Cl
  Cl92     1.0000 0.77810  0.04140  0.69420  Biso   1.000  Cl
  Cl93     1.0000 0.22190  0.95860  0.69420  Biso   1.000  Cl
  Cl94     1.0000 0.22190  0.04140  0.30580  Biso   1.000  Cl
  C313     1.0000 0.00000  0.34040  0.00000  Biso   1.000  C
  C314     1.0000 0.00000  0.65960  0.00000  Biso   1.000  C
  C315     1.0000 0.00000  0.00000  0.34040  Biso   1.000  C
  C316     1.0000 0.00000  0.00000  0.65960  Biso   1.000  C
  C317     1.0000 0.34040  0.00000  0.00000  Biso   1.000  C
  C318     1.0000 0.65960  0.00000  0.00000  Biso   1.000  C
  C319     1.0000 0.50000  0.84040  0.50000  Biso   1.000  C
  C320     1.0000 0.50000  0.15960  0.50000  Biso   1.000  C
  C321     1.0000 0.50000  0.50000  0.84040  Biso   1.000  C
  C322     1.0000 0.50000  0.50000  0.15960  Biso   1.000  C
  C323     1.0000 0.84040  0.50000  0.50000  Biso   1.000  C
  C324     1.0000 0.15960  0.50000  0.50000  Biso   1.000  C
  Cl95     1.0000 0.96200  0.29250  0.96200  Biso   1.000  Cl
  Cl96     1.0000 0.03800  0.70750  0.96200  Biso   1.000  Cl
  Cl97     1.0000 0.03800  0.29250  0.03800  Biso   1.000  Cl
  Cl98     1.0000 0.96200  0.70750  0.03800  Biso   1.000  Cl
  Cl99     1.0000 0.96200  0.96200  0.29250  Biso   1.000  Cl
  Cl100    1.0000 0.96200  0.03800  0.70750  Biso   1.000  Cl
  Cl101    1.0000 0.03800  0.03800  0.29250  Biso   1.000  Cl
  Cl102    1.0000 0.03800  0.96200  0.70750  Biso   1.000  Cl
  Cl103    1.0000 0.29250  0.96200  0.96200  Biso   1.000  Cl
  Cl104    1.0000 0.70750  0.96200  0.03800  Biso   1.000  Cl
  Cl105    1.0000 0.29250  0.03800  0.03800  Biso   1.000  Cl
  Cl106    1.0000 0.70750  0.03800  0.96200  Biso   1.000  Cl
  Cl107    1.0000 0.46200  0.79250  0.46200  Biso   1.000  Cl
  Cl108    1.0000 0.53800  0.20750  0.46200  Biso   1.000  Cl
  Cl109    1.0000 0.53800  0.79250  0.53800  Biso   1.000  Cl
  Cl110    1.0000 0.46200  0.20750  0.53800  Biso   1.000  Cl
  Cl111    1.0000 0.46200  0.46200  0.79250  Biso   1.000  Cl
  Cl112    1.0000 0.46200  0.53800  0.20750  Biso   1.000  Cl
  Cl113    1.0000 0.53800  0.53800  0.79250  Biso   1.000  Cl
  Cl114    1.0000 0.53800  0.46200  0.20750  Biso   1.000  Cl
  Cl115    1.0000 0.79250  0.46200  0.46200  Biso   1.000  Cl
  Cl116    1.0000 0.20750  0.46200  0.53800  Biso   1.000  Cl
  Cl117    1.0000 0.79250  0.53800  0.53800  Biso   1.000  Cl
  Cl118    1.0000 0.20750  0.53800  0.46200  Biso   1.000  Cl
  Cl119    1.0000 0.95780  0.31170  0.04220  Biso   1.000  Cl
  Cl120    1.0000 0.04220  0.68830  0.04220  Biso   1.000  Cl
  Cl121    1.0000 0.04220  0.31170  0.95780  Biso   1.000  Cl
  Cl122    1.0000 0.95780  0.68830  0.95780  Biso   1.000  Cl
  Cl123    1.0000 0.04220  0.95780  0.31170  Biso   1.000  Cl
  Cl124    1.0000 0.04220  0.04220  0.68830  Biso   1.000  Cl
  Cl125    1.0000 0.95780  0.04220  0.31170  Biso   1.000  Cl
  Cl126    1.0000 0.95780  0.95780  0.68830  Biso   1.000  Cl
  Cl127    1.0000 0.31170  0.04220  0.95780  Biso   1.000  Cl
  Cl128    1.0000 0.68830  0.04220  0.04220  Biso   1.000  Cl
  Cl129    1.0000 0.31170  0.95780  0.04220  Biso   1.000  Cl
  Cl130    1.0000 0.68830  0.95780  0.95780  Biso   1.000  Cl
  Cl131    1.0000 0.45780  0.81170  0.54220  Biso   1.000  Cl
  Cl132    1.0000 0.54220  0.18830  0.54220  Biso   1.000  Cl
  Cl133    1.0000 0.54220  0.81170  0.45780  Biso   1.000  Cl
  Cl134    1.0000 0.45780  0.18830  0.45780  Biso   1.000  Cl
  Cl135    1.0000 0.54220  0.45780  0.81170  Biso   1.000  Cl
  Cl136    1.0000 0.54220  0.54220  0.18830  Biso   1.000  Cl
  Cl137    1.0000 0.45780  0.54220  0.81170  Biso   1.000  Cl
  Cl138    1.0000 0.45780  0.45780  0.18830  Biso   1.000  Cl
  Cl139    1.0000 0.81170  0.54220  0.45780  Biso   1.000  Cl
  Cl140    1.0000 0.18830  0.54220  0.54220  Biso   1.000  Cl
  Cl141    1.0000 0.81170  0.45780  0.54220  Biso   1.000  Cl
  Cl142    1.0000 0.18830  0.45780  0.45780  Biso   1.000  Cl
  Cl143    1.0000 0.92240  0.31980  0.99670  Biso   1.000  Cl
  Cl144    1.0000 0.07760  0.68020  0.99670  Biso   1.000  Cl
  Cl145    1.0000 0.07760  0.31980  0.00330  Biso   1.000  Cl
  Cl146    1.0000 0.92240  0.68020  0.00330  Biso   1.000  Cl
  Cl147    1.0000 0.99670  0.92240  0.31980  Biso   1.000  Cl
  Cl148    1.0000 0.99670  0.07760  0.68020  Biso   1.000  Cl
  Cl149    1.0000 0.00330  0.07760  0.31980  Biso   1.000  Cl
  Cl150    1.0000 0.00330  0.92240  0.68020  Biso   1.000  Cl
  Cl151    1.0000 0.31980  0.99670  0.92240  Biso   1.000  Cl
  Cl152    1.0000 0.68020  0.99670  0.07760  Biso   1.000  Cl
  Cl153    1.0000 0.31980  0.00330  0.07760  Biso   1.000  Cl
  Cl154    1.0000 0.68020  0.00330  0.92240  Biso   1.000  Cl
  Cl155    1.0000 0.31980  0.92240  0.99670  Biso   1.000  Cl
  Cl156    1.0000 0.68020  0.07760  0.99670  Biso   1.000  Cl
  Cl157    1.0000 0.31980  0.07760  0.00330  Biso   1.000  Cl
  Cl158    1.0000 0.68020  0.92240  0.00330  Biso   1.000  Cl
  Cl159    1.0000 0.92240  0.99670  0.31980  Biso   1.000  Cl
  Cl160    1.0000 0.07760  0.99670  0.68020  Biso   1.000  Cl
  Cl161    1.0000 0.07760  0.00330  0.31980  Biso   1.000  Cl
  Cl162    1.0000 0.92240  0.00330  0.68020  Biso   1.000  Cl
  Cl163    1.0000 0.99670  0.31980  0.92240  Biso   1.000  Cl
  Cl164    1.0000 0.99670  0.68020  0.07760  Biso   1.000  Cl
  Cl165    1.0000 0.00330  0.31980  0.07760  Biso   1.000  Cl
  Cl166    1.0000 0.00330  0.68020  0.92240  Biso   1.000  Cl
  Cl167    1.0000 0.42240  0.81980  0.49670  Biso   1.000  Cl
  Cl168    1.0000 0.57760  0.18020  0.49670  Biso   1.000  Cl
  Cl169    1.0000 0.57760  0.81980  0.50330  Biso   1.000  Cl
  Cl170    1.0000 0.42240  0.18020  0.50330  Biso   1.000  Cl
  Cl171    1.0000 0.49670  0.42240  0.81980  Biso   1.000  Cl
  Cl172    1.0000 0.49670  0.57760  0.18020  Biso   1.000  Cl
  Cl173    1.0000 0.50330  0.57760  0.81980  Biso   1.000  Cl
  Cl174    1.0000 0.50330  0.42240  0.18020  Biso   1.000  Cl
  Cl175    1.0000 0.81980  0.49670  0.42240  Biso   1.000  Cl
  Cl176    1.0000 0.18020  0.49670  0.57760  Biso   1.000  Cl
  Cl177    1.0000 0.81980  0.50330  0.57760  Biso   1.000  Cl
  Cl178    1.0000 0.18020  0.50330  0.42240  Biso   1.000  Cl
  Cl179    1.0000 0.81980  0.42240  0.49670  Biso   1.000  Cl
  Cl180    1.0000 0.18020  0.57760  0.49670  Biso   1.000  Cl
  Cl181    1.0000 0.81980  0.57760  0.50330  Biso   1.000  Cl
  Cl182    1.0000 0.18020  0.42240  0.50330  Biso   1.000  Cl
  Cl183    1.0000 0.42240  0.49670  0.81980  Biso   1.000  Cl
  Cl184    1.0000 0.57760  0.49670  0.18020  Biso   1.000  Cl
  Cl185    1.0000 0.57760  0.50330  0.81980  Biso   1.000  Cl
  Cl186    1.0000 0.42240  0.50330  0.18020  Biso   1.000  Cl
  Cl187    1.0000 0.49670  0.81980  0.42240  Biso   1.000  Cl
  Cl188    1.0000 0.49670  0.18020  0.57760  Biso   1.000  Cl
  Cl189    1.0000 0.50330  0.81980  0.57760  Biso   1.000  Cl
  Cl190    1.0000 0.50330  0.18020  0.42240  Biso   1.000  Cl
