data_image0
_cell_length_a       23.5623
_cell_length_b       23.5623
_cell_length_c       23.5623
_cell_angle_alpha    90
_cell_angle_beta     90
_cell_angle_gamma    90

_symmetry_space_group_name_H-M    "P 1"
_symmetry_int_tables_number       1

loop_
  _symmetry_equiv_pos_as_xyz
  'x, y, z'

loop_
  _atom_site_label
  _atom_site_occupancy
  _atom_site_fract_x
  _atom_site_fract_y
  _atom_site_fract_z
  _atom_site_thermal_displace_type
  _atom_site_B_iso_or_equiv
  _atom_site_type_symbol
  Cu1      1.0000 0.25000  0.50000  0.00000  Biso   1.000  Cu
  Cu2      1.0000 0.75000  0.50000  0.00000  Biso   1.000  Cu
  Cu3      1.0000 0.00000  0.25000  0.50000  Biso   1.000  Cu
  Cu4      1.0000 0.00000  0.75000  0.50000  Biso   1.000  Cu
  Cu5      1.0000 0.50000  0.00000  0.25000  Biso   1.000  Cu
  Cu6      1.0000 0.50000  0.00000  0.75000  Biso   1.000  Cu
  Cu7      1.0000 0.50000  0.25000  0.00000  Biso   1.000  Cu
  Cu8      1.0000 0.50000  0.75000  0.00000  Biso   1.000  Cu
  Cu9      1.0000 0.25000  0.00000  0.50000  Biso   1.000  Cu
  Cu10     1.0000 0.75000  0.00000  0.50000  Biso   1.000  Cu
  Cu11     1.0000 0.00000  0.50000  0.25000  Biso   1.000  Cu
  Cu12     1.0000 0.00000  0.50000  0.75000  Biso   1.000  Cu
  N1       1.0000 0.20070  0.53810  0.94190  Biso   1.000  N
  N2       1.0000 0.79930  0.46190  0.94190  Biso   1.000  N
  N3       1.0000 0.79930  0.53810  0.05810  Biso   1.000  N
  N4       1.0000 0.20070  0.46190  0.05810  Biso   1.000  N
  N5       1.0000 0.94190  0.20070  0.53810  Biso   1.000  N
  N6       1.0000 0.94190  0.79930  0.46190  Biso   1.000  N
  N7       1.0000 0.05810  0.79930  0.53810  Biso   1.000  N
  N8       1.0000 0.05810  0.20070  0.46190  Biso   1.000  N
  N9       1.0000 0.53810  0.94190  0.20070  Biso   1.000  N
  N10      1.0000 0.46190  0.94190  0.79930  Biso   1.000  N
  N11      1.0000 0.53810  0.05810  0.79930  Biso   1.000  N
  N12      1.0000 0.46190  0.05810  0.20070  Biso   1.000  N
  N13      1.0000 0.53810  0.20070  0.94190  Biso   1.000  N
  N14      1.0000 0.46190  0.79930  0.94190  Biso   1.000  N
  N15      1.0000 0.53810  0.79930  0.05810  Biso   1.000  N
  N16      1.0000 0.46190  0.20070  0.05810  Biso   1.000  N
  N17      1.0000 0.20070  0.94190  0.53810  Biso   1.000  N
  N18      1.0000 0.79930  0.94190  0.46190  Biso   1.000  N
  N19      1.0000 0.79930  0.05810  0.53810  Biso   1.000  N
  N20      1.0000 0.20070  0.05810  0.46190  Biso   1.000  N
  N21      1.0000 0.94190  0.53810  0.20070  Biso   1.000  N
  N22      1.0000 0.94190  0.46190  0.79930  Biso   1.000  N
  N23      1.0000 0.05810  0.53810  0.79930  Biso   1.000  N
  N24      1.0000 0.05810  0.46190  0.20070  Biso   1.000  N
  N25      1.0000 0.70070  0.03810  0.44190  Biso   1.000  N
  N26      1.0000 0.29930  0.96190  0.44190  Biso   1.000  N
  N27      1.0000 0.29930  0.03810  0.55810  Biso   1.000  N
  N28      1.0000 0.70070  0.96190  0.55810  Biso   1.000  N
  N29      1.0000 0.44190  0.70070  0.03810  Biso   1.000  N
  N30      1.0000 0.44190  0.29930  0.96190  Biso   1.000  N
  N31      1.0000 0.55810  0.29930  0.03810  Biso   1.000  N
  N32      1.0000 0.55810  0.70070  0.96190  Biso   1.000  N
  N33      1.0000 0.03810  0.44190  0.70070  Biso   1.000  N
  N34      1.0000 0.96190  0.44190  0.29930  Biso   1.000  N
  N35      1.0000 0.03810  0.55810  0.29930  Biso   1.000  N
  N36      1.0000 0.96190  0.55810  0.70070  Biso   1.000  N
  N37      1.0000 0.03810  0.70070  0.44190  Biso   1.000  N
  N38      1.0000 0.96190  0.29930  0.44190  Biso   1.000  N
  N39      1.0000 0.03810  0.29930  0.55810  Biso   1.000  N
  N40      1.0000 0.96190  0.70070  0.55810  Biso   1.000  N
  N41      1.0000 0.70070  0.44190  0.03810  Biso   1.000  N
  N42      1.0000 0.29930  0.44190  0.96190  Biso   1.000  N
  N43      1.0000 0.29930  0.55810  0.03810  Biso   1.000  N
  N44      1.0000 0.70070  0.55810  0.96190  Biso   1.000  N
  N45      1.0000 0.44190  0.03810  0.70070  Biso   1.000  N
  N46      1.0000 0.44190  0.96190  0.29930  Biso   1.000  N
  N47      1.0000 0.55810  0.03810  0.29930  Biso   1.000  N
  N48      1.0000 0.55810  0.96190  0.70070  Biso   1.000  N
  N49      1.0000 0.21080  0.59610  0.93240  Biso   1.000  N
  N50      1.0000 0.78920  0.40390  0.93240  Biso   1.000  N
  N51      1.0000 0.78920  0.59610  0.06760  Biso   1.000  N
  N52      1.0000 0.21080  0.40390  0.06760  Biso   1.000  N
  N53      1.0000 0.93240  0.21080  0.59610  Biso   1.000  N
  N54      1.0000 0.93240  0.78920  0.40390  Biso   1.000  N
  N55      1.0000 0.06760  0.78920  0.59610  Biso   1.000  N
  N56      1.0000 0.06760  0.21080  0.40390  Biso   1.000  N
  N57      1.0000 0.59610  0.93240  0.21080  Biso   1.000  N
  N58      1.0000 0.40390  0.93240  0.78920  Biso   1.000  N
  N59      1.0000 0.59610  0.06760  0.78920  Biso   1.000  N
  N60      1.0000 0.40390  0.06760  0.21080  Biso   1.000  N
  N61      1.0000 0.59610  0.21080  0.93240  Biso   1.000  N
  N62      1.0000 0.40390  0.78920  0.93240  Biso   1.000  N
  N63      1.0000 0.59610  0.78920  0.06760  Biso   1.000  N
  N64      1.0000 0.40390  0.21080  0.06760  Biso   1.000  N
  N65      1.0000 0.21080  0.93240  0.59610  Biso   1.000  N
  N66      1.0000 0.78920  0.93240  0.40390  Biso   1.000  N
  N67      1.0000 0.78920  0.06760  0.59610  Biso   1.000  N
  N68      1.0000 0.21080  0.06760  0.40390  Biso   1.000  N
  N69      1.0000 0.93240  0.59610  0.21080  Biso   1.000  N
  N70      1.0000 0.93240  0.40390  0.78920  Biso   1.000  N
  N71      1.0000 0.06760  0.59610  0.78920  Biso   1.000  N
  N72      1.0000 0.06760  0.40390  0.21080  Biso   1.000  N
  N73      1.0000 0.71080  0.09610  0.43240  Biso   1.000  N
  N74      1.0000 0.28920  0.90390  0.43240  Biso   1.000  N
  N75      1.0000 0.28920  0.09610  0.56760  Biso   1.000  N
  N76      1.0000 0.71080  0.90390  0.56760  Biso   1.000  N
  N77      1.0000 0.43240  0.71080  0.09610  Biso   1.000  N
  N78      1.0000 0.43240  0.28920  0.90390  Biso   1.000  N
  N79      1.0000 0.56760  0.28920  0.09610  Biso   1.000  N
  N80      1.0000 0.56760  0.71080  0.90390  Biso   1.000  N
  N81      1.0000 0.09610  0.43240  0.71080  Biso   1.000  N
  N82      1.0000 0.90390  0.43240  0.28920  Biso   1.000  N
  N83      1.0000 0.09610  0.56760  0.28920  Biso   1.000  N
  N84      1.0000 0.90390  0.56760  0.71080  Biso   1.000  N
  N85      1.0000 0.09610  0.71080  0.43240  Biso   1.000  N
  N86      1.0000 0.90390  0.28920  0.43240  Biso   1.000  N
  N87      1.0000 0.09610  0.28920  0.56760  Biso   1.000  N
  N88      1.0000 0.90390  0.71080  0.56760  Biso   1.000  N
  N89      1.0000 0.71080  0.43240  0.09610  Biso   1.000  N
  N90      1.0000 0.28920  0.43240  0.90390  Biso   1.000  N
  N91      1.0000 0.28920  0.56760  0.09610  Biso   1.000  N
  N92      1.0000 0.71080  0.56760  0.90390  Biso   1.000  N
  N93      1.0000 0.43240  0.09610  0.71080  Biso   1.000  N
  N94      1.0000 0.43240  0.90390  0.28920  Biso   1.000  N
  N95      1.0000 0.56760  0.09610  0.28920  Biso   1.000  N
  N96      1.0000 0.56760  0.90390  0.71080  Biso   1.000  N
  C1       1.0000 0.18360  0.62240  0.89360  Biso   1.000  C
  C2       1.0000 0.81640  0.37760  0.89360  Biso   1.000  C
  C3       1.0000 0.81640  0.62240  0.10640  Biso   1.000  C
  C4       1.0000 0.18360  0.37760  0.10640  Biso   1.000  C
  C5       1.0000 0.89360  0.18360  0.62240  Biso   1.000  C
  C6       1.0000 0.89360  0.81640  0.37760  Biso   1.000  C
  C7       1.0000 0.10640  0.81640  0.62240  Biso   1.000  C
  C8       1.0000 0.10640  0.18360  0.37760  Biso   1.000  C
  C9       1.0000 0.62240  0.89360  0.18360  Biso   1.000  C
  C10      1.0000 0.37760  0.89360  0.81640  Biso   1.000  C
  C11      1.0000 0.62240  0.10640  0.81640  Biso   1.000  C
  C12      1.0000 0.37760  0.10640  0.18360  Biso   1.000  C
  C13      1.0000 0.62240  0.18360  0.89360  Biso   1.000  C
  C14      1.0000 0.37760  0.81640  0.89360  Biso   1.000  C
  C15      1.0000 0.62240  0.81640  0.10640  Biso   1.000  C
  C16      1.0000 0.37760  0.18360  0.10640  Biso   1.000  C
  C17      1.0000 0.18360  0.89360  0.62240  Biso   1.000  C
  C18      1.0000 0.81640  0.89360  0.37760  Biso   1.000  C
  C19      1.0000 0.81640  0.10640  0.62240  Biso   1.000  C
  C20      1.0000 0.18360  0.10640  0.37760  Biso   1.000  C
  C21      1.0000 0.89360  0.62240  0.18360  Biso   1.000  C
  C22      1.0000 0.89360  0.37760  0.81640  Biso   1.000  C
  C23      1.0000 0.10640  0.62240  0.81640  Biso   1.000  C
  C24      1.0000 0.10640  0.37760  0.18360  Biso   1.000  C
  C25      1.0000 0.68360  0.12240  0.39360  Biso   1.000  C
  C26      1.0000 0.31640  0.87760  0.39360  Biso   1.000  C
  C27      1.0000 0.31640  0.12240  0.60640  Biso   1.000  C
  C28      1.0000 0.68360  0.87760  0.60640  Biso   1.000  C
  C29      1.0000 0.39360  0.68360  0.12240  Biso   1.000  C
  C30      1.0000 0.39360  0.31640  0.87760  Biso   1.000  C
  C31      1.0000 0.60640  0.31640  0.12240  Biso   1.000  C
  C32      1.0000 0.60640  0.68360  0.87760  Biso   1.000  C
  C33      1.0000 0.12240  0.39360  0.68360  Biso   1.000  C
  C34      1.0000 0.87760  0.39360  0.31640  Biso   1.000  C
  C35      1.0000 0.12240  0.60640  0.31640  Biso   1.000  C
  C36      1.0000 0.87760  0.60640  0.68360  Biso   1.000  C
  C37      1.0000 0.12240  0.68360  0.39360  Biso   1.000  C
  C38      1.0000 0.87760  0.31640  0.39360  Biso   1.000  C
  C39      1.0000 0.12240  0.31640  0.60640  Biso   1.000  C
  C40      1.0000 0.87760  0.68360  0.60640  Biso   1.000  C
  C41      1.0000 0.68360  0.39360  0.12240  Biso   1.000  C
  C42      1.0000 0.31640  0.39360  0.87760  Biso   1.000  C
  C43      1.0000 0.31640  0.60640  0.12240  Biso   1.000  C
  C44      1.0000 0.68360  0.60640  0.87760  Biso   1.000  C
  C45      1.0000 0.39360  0.12240  0.68360  Biso   1.000  C
  C46      1.0000 0.39360  0.87760  0.31640  Biso   1.000  C
  C47      1.0000 0.60640  0.12240  0.31640  Biso   1.000  C
  C48      1.0000 0.60640  0.87760  0.68360  Biso   1.000  C
  C49      1.0000 0.13880  0.59530  0.86120  Biso   1.000  C
  C50      1.0000 0.86120  0.40470  0.86120  Biso   1.000  C
  C51      1.0000 0.86120  0.59530  0.13880  Biso   1.000  C
  C52      1.0000 0.13880  0.40470  0.13880  Biso   1.000  C
  C53      1.0000 0.86120  0.13880  0.59530  Biso   1.000  C
  C54      1.0000 0.86120  0.86120  0.40470  Biso   1.000  C
  C55      1.0000 0.13880  0.86120  0.59530  Biso   1.000  C
  C56      1.0000 0.13880  0.13880  0.40470  Biso   1.000  C
  C57      1.0000 0.59530  0.86120  0.13880  Biso   1.000  C
  C58      1.0000 0.40470  0.86120  0.86120  Biso   1.000  C
  C59      1.0000 0.59530  0.13880  0.86120  Biso   1.000  C
  C60      1.0000 0.40470  0.13880  0.13880  Biso   1.000  C
  C61      1.0000 0.63880  0.09530  0.36120  Biso   1.000  C
  C62      1.0000 0.36120  0.90470  0.36120  Biso   1.000  C
  C63      1.0000 0.36120  0.09530  0.63880  Biso   1.000  C
  C64      1.0000 0.63880  0.90470  0.63880  Biso   1.000  C
  C65      1.0000 0.36120  0.63880  0.09530  Biso   1.000  C
  C66      1.0000 0.36120  0.36120  0.90470  Biso   1.000  C
  C67      1.0000 0.63880  0.36120  0.09530  Biso   1.000  C
  C68      1.0000 0.63880  0.63880  0.90470  Biso   1.000  C
  C69      1.0000 0.09530  0.36120  0.63880  Biso   1.000  C
  C70      1.0000 0.90470  0.36120  0.36120  Biso   1.000  C
  C71      1.0000 0.09530  0.63880  0.36120  Biso   1.000  C
  C72      1.0000 0.90470  0.63880  0.63880  Biso   1.000  C
  C73      1.0000 0.12790  0.53980  0.87210  Biso   1.000  C
  C74      1.0000 0.87210  0.46020  0.87210  Biso   1.000  C
  C75      1.0000 0.87210  0.53980  0.12790  Biso   1.000  C
  C76      1.0000 0.12790  0.46020  0.12790  Biso   1.000  C
  C77      1.0000 0.87210  0.12790  0.53980  Biso   1.000  C
  C78      1.0000 0.87210  0.87210  0.46020  Biso   1.000  C
  C79      1.0000 0.12790  0.87210  0.53980  Biso   1.000  C
  C80      1.0000 0.12790  0.12790  0.46020  Biso   1.000  C
  C81      1.0000 0.53980  0.87210  0.12790  Biso   1.000  C
  C82      1.0000 0.46020  0.87210  0.87210  Biso   1.000  C
  C83      1.0000 0.53980  0.12790  0.87210  Biso   1.000  C
  C84      1.0000 0.46020  0.12790  0.12790  Biso   1.000  C
  C85      1.0000 0.62790  0.03980  0.37210  Biso   1.000  C
  C86      1.0000 0.37210  0.96020  0.37210  Biso   1.000  C
  C87      1.0000 0.37210  0.03980  0.62790  Biso   1.000  C
  C88      1.0000 0.62790  0.96020  0.62790  Biso   1.000  C
  C89      1.0000 0.37210  0.62790  0.03980  Biso   1.000  C
  C90      1.0000 0.37210  0.37210  0.96020  Biso   1.000  C
  C91      1.0000 0.62790  0.37210  0.03980  Biso   1.000  C
  C92      1.0000 0.62790  0.62790  0.96020  Biso   1.000  C
  C93      1.0000 0.03980  0.37210  0.62790  Biso   1.000  C
  C94      1.0000 0.96020  0.37210  0.37210  Biso   1.000  C
  C95      1.0000 0.03980  0.62790  0.37210  Biso   1.000  C
  C96      1.0000 0.96020  0.62790  0.62790  Biso   1.000  C
  C97      1.0000 0.16130  0.51070  0.91370  Biso   1.000  C
  C98      1.0000 0.83870  0.48930  0.91370  Biso   1.000  C
  C99      1.0000 0.83870  0.51070  0.08630  Biso   1.000  C
  C100     1.0000 0.16130  0.48930  0.08630  Biso   1.000  C
  C101     1.0000 0.91370  0.16130  0.51070  Biso   1.000  C
  C102     1.0000 0.91370  0.83870  0.48930  Biso   1.000  C
  C103     1.0000 0.08630  0.83870  0.51070  Biso   1.000  C
  C104     1.0000 0.08630  0.16130  0.48930  Biso   1.000  C
  C105     1.0000 0.51070  0.91370  0.16130  Biso   1.000  C
  C106     1.0000 0.48930  0.91370  0.83870  Biso   1.000  C
  C107     1.0000 0.51070  0.08630  0.83870  Biso   1.000  C
  C108     1.0000 0.48930  0.08630  0.16130  Biso   1.000  C
  C109     1.0000 0.51070  0.16130  0.91370  Biso   1.000  C
  C110     1.0000 0.48930  0.83870  0.91370  Biso   1.000  C
  C111     1.0000 0.51070  0.83870  0.08630  Biso   1.000  C
  C112     1.0000 0.48930  0.16130  0.08630  Biso   1.000  C
  C113     1.0000 0.16130  0.91370  0.51070  Biso   1.000  C
  C114     1.0000 0.83870  0.91370  0.48930  Biso   1.000  C
  C115     1.0000 0.83870  0.08630  0.51070  Biso   1.000  C
  C116     1.0000 0.16130  0.08630  0.48930  Biso   1.000  C
  C117     1.0000 0.91370  0.51070  0.16130  Biso   1.000  C
  C118     1.0000 0.91370  0.48930  0.83870  Biso   1.000  C
  C119     1.0000 0.08630  0.51070  0.83870  Biso   1.000  C
  C120     1.0000 0.08630  0.48930  0.16130  Biso   1.000  C
  C121     1.0000 0.66130  0.01070  0.41370  Biso   1.000  C
  C122     1.0000 0.33870  0.98930  0.41370  Biso   1.000  C
  C123     1.0000 0.33870  0.01070  0.58630  Biso   1.000  C
  C124     1.0000 0.66130  0.98930  0.58630  Biso   1.000  C
  C125     1.0000 0.41370  0.66130  0.01070  Biso   1.000  C
  C126     1.0000 0.41370  0.33870  0.98930  Biso   1.000  C
  C127     1.0000 0.58630  0.33870  0.01070  Biso   1.000  C
  C128     1.0000 0.58630  0.66130  0.98930  Biso   1.000  C
  C129     1.0000 0.01070  0.41370  0.66130  Biso   1.000  C
  C130     1.0000 0.98930  0.41370  0.33870  Biso   1.000  C
  C131     1.0000 0.01070  0.58630  0.33870  Biso   1.000  C
  C132     1.0000 0.98930  0.58630  0.66130  Biso   1.000  C
  C133     1.0000 0.01070  0.66130  0.41370  Biso   1.000  C
  C134     1.0000 0.98930  0.33870  0.41370  Biso   1.000  C
  C135     1.0000 0.01070  0.33870  0.58630  Biso   1.000  C
  C136     1.0000 0.98930  0.66130  0.58630  Biso   1.000  C
  C137     1.0000 0.66130  0.41370  0.01070  Biso   1.000  C
  C138     1.0000 0.33870  0.41370  0.98930  Biso   1.000  C
  C139     1.0000 0.33870  0.58630  0.01070  Biso   1.000  C
  C140     1.0000 0.66130  0.58630  0.98930  Biso   1.000  C
  C141     1.0000 0.41370  0.01070  0.66130  Biso   1.000  C
  C142     1.0000 0.41370  0.98930  0.33870  Biso   1.000  C
  C143     1.0000 0.58630  0.01070  0.33870  Biso   1.000  C
  C144     1.0000 0.58630  0.98930  0.66130  Biso   1.000  C
  C145     1.0000 0.14940  0.45050  0.92520  Biso   1.000  C
  C146     1.0000 0.85060  0.54950  0.92520  Biso   1.000  C
  C147     1.0000 0.85060  0.45050  0.07480  Biso   1.000  C
  C148     1.0000 0.14940  0.54950  0.07480  Biso   1.000  C
  C149     1.0000 0.92520  0.14940  0.45050  Biso   1.000  C
  C150     1.0000 0.92520  0.85060  0.54950  Biso   1.000  C
  C151     1.0000 0.07480  0.85060  0.45050  Biso   1.000  C
  C152     1.0000 0.07480  0.14940  0.54950  Biso   1.000  C
  C153     1.0000 0.45050  0.92520  0.14940  Biso   1.000  C
  C154     1.0000 0.54950  0.92520  0.85060  Biso   1.000  C
  C155     1.0000 0.45050  0.07480  0.85060  Biso   1.000  C
  C156     1.0000 0.54950  0.07480  0.14940  Biso   1.000  C
  C157     1.0000 0.45050  0.14940  0.92520  Biso   1.000  C
  C158     1.0000 0.54950  0.85060  0.92520  Biso   1.000  C
  C159     1.0000 0.45050  0.85060  0.07480  Biso   1.000  C
  C160     1.0000 0.54950  0.14940  0.07480  Biso   1.000  C
  C161     1.0000 0.14940  0.92520  0.45050  Biso   1.000  C
  C162     1.0000 0.85060  0.92520  0.54950  Biso   1.000  C
  C163     1.0000 0.85060  0.07480  0.45050  Biso   1.000  C
  C164     1.0000 0.14940  0.07480  0.54950  Biso   1.000  C
  C165     1.0000 0.92520  0.45050  0.14940  Biso   1.000  C
  C166     1.0000 0.92520  0.54950  0.85060  Biso   1.000  C
  C167     1.0000 0.07480  0.45050  0.85060  Biso   1.000  C
  C168     1.0000 0.07480  0.54950  0.14940  Biso   1.000  C
  C169     1.0000 0.64940  0.95050  0.42520  Biso   1.000  C
  C170     1.0000 0.35060  0.04950  0.42520  Biso   1.000  C
  C171     1.0000 0.35060  0.95050  0.57480  Biso   1.000  C
  C172     1.0000 0.64940  0.04950  0.57480  Biso   1.000  C
  C173     1.0000 0.42520  0.64940  0.95050  Biso   1.000  C
  C174     1.0000 0.42520  0.35060  0.04950  Biso   1.000  C
  C175     1.0000 0.57480  0.35060  0.95050  Biso   1.000  C
  C176     1.0000 0.57480  0.64940  0.04950  Biso   1.000  C
  C177     1.0000 0.95050  0.42520  0.64940  Biso   1.000  C
  C178     1.0000 0.04950  0.42520  0.35060  Biso   1.000  C
  C179     1.0000 0.95050  0.57480  0.35060  Biso   1.000  C
  C180     1.0000 0.04950  0.57480  0.64940  Biso   1.000  C
  C181     1.0000 0.95050  0.64940  0.42520  Biso   1.000  C
  C182     1.0000 0.04950  0.35060  0.42520  Biso   1.000  C
  C183     1.0000 0.95050  0.35060  0.57480  Biso   1.000  C
  C184     1.0000 0.04950  0.64940  0.57480  Biso   1.000  C
  C185     1.0000 0.64940  0.42520  0.95050  Biso   1.000  C
  C186     1.0000 0.35060  0.42520  0.04950  Biso   1.000  C
  C187     1.0000 0.35060  0.57480  0.95050  Biso   1.000  C
  C188     1.0000 0.64940  0.57480  0.04950  Biso   1.000  C
  C189     1.0000 0.42520  0.95050  0.64940  Biso   1.000  C
  C190     1.0000 0.42520  0.04950  0.35060  Biso   1.000  C
  C191     1.0000 0.57480  0.95050  0.35060  Biso   1.000  C
  C192     1.0000 0.57480  0.04950  0.64940  Biso   1.000  C
  H1       1.0000 0.12130  0.44780  0.95460  Biso   1.000  H
  H2       1.0000 0.87870  0.55220  0.95460  Biso   1.000  H
  H3       1.0000 0.87870  0.44780  0.04540  Biso   1.000  H
  H4       1.0000 0.12130  0.55220  0.04540  Biso   1.000  H
  H5       1.0000 0.95460  0.12130  0.44780  Biso   1.000  H
  H6       1.0000 0.95460  0.87870  0.55220  Biso   1.000  H
  H7       1.0000 0.04540  0.87870  0.44780  Biso   1.000  H
  H8       1.0000 0.04540  0.12130  0.55220  Biso   1.000  H
  H9       1.0000 0.44780  0.95460  0.12130  Biso   1.000  H
  H10      1.0000 0.55220  0.95460  0.87870  Biso   1.000  H
  H11      1.0000 0.44780  0.04540  0.87870  Biso   1.000  H
  H12      1.0000 0.55220  0.04540  0.12130  Biso   1.000  H
  H13      1.0000 0.44780  0.12130  0.95460  Biso   1.000  H
  H14      1.0000 0.55220  0.87870  0.95460  Biso   1.000  H
  H15      1.0000 0.44780  0.87870  0.04540  Biso   1.000  H
  H16      1.0000 0.55220  0.12130  0.04540  Biso   1.000  H
  H17      1.0000 0.12130  0.95460  0.44780  Biso   1.000  H
  H18      1.0000 0.87870  0.95460  0.55220  Biso   1.000  H
  H19      1.0000 0.87870  0.04540  0.44780  Biso   1.000  H
  H20      1.0000 0.12130  0.04540  0.55220  Biso   1.000  H
  H21      1.0000 0.95460  0.44780  0.12130  Biso   1.000  H
  H22      1.0000 0.95460  0.55220  0.87870  Biso   1.000  H
  H23      1.0000 0.04540  0.44780  0.87870  Biso   1.000  H
  H24      1.0000 0.04540  0.55220  0.12130  Biso   1.000  H
  H25      1.0000 0.62130  0.94780  0.45460  Biso   1.000  H
  H26      1.0000 0.37870  0.05220  0.45460  Biso   1.000  H
  H27      1.0000 0.37870  0.94780  0.54540  Biso   1.000  H
  H28      1.0000 0.62130  0.05220  0.54540  Biso   1.000  H
  H29      1.0000 0.45460  0.62130  0.94780  Biso   1.000  H
  H30      1.0000 0.45460  0.37870  0.05220  Biso   1.000  H
  H31      1.0000 0.54540  0.37870  0.94780  Biso   1.000  H
  H32      1.0000 0.54540  0.62130  0.05220  Biso   1.000  H
  H33      1.0000 0.94780  0.45460  0.62130  Biso   1.000  H
  H34      1.0000 0.05220  0.45460  0.37870  Biso   1.000  H
  H35      1.0000 0.94780  0.54540  0.37870  Biso   1.000  H
  H36      1.0000 0.05220  0.54540  0.62130  Biso   1.000  H
  H37      1.0000 0.94780  0.62130  0.45460  Biso   1.000  H
  H38      1.0000 0.05220  0.37870  0.45460  Biso   1.000  H
  H39      1.0000 0.94780  0.37870  0.54540  Biso   1.000  H
  H40      1.0000 0.05220  0.62130  0.54540  Biso   1.000  H
  H41      1.0000 0.62130  0.45460  0.94780  Biso   1.000  H
  H42      1.0000 0.37870  0.45460  0.05220  Biso   1.000  H
  H43      1.0000 0.37870  0.54540  0.94780  Biso   1.000  H
  H44      1.0000 0.62130  0.54540  0.05220  Biso   1.000  H
  H45      1.0000 0.45460  0.94780  0.62130  Biso   1.000  H
  H46      1.0000 0.45460  0.05220  0.37870  Biso   1.000  H
  H47      1.0000 0.54540  0.94780  0.37870  Biso   1.000  H
  H48      1.0000 0.54540  0.05220  0.62130  Biso   1.000  H
  H49      1.0000 0.18340  0.43230  0.93840  Biso   1.000  H
  H50      1.0000 0.81660  0.56770  0.93840  Biso   1.000  H
  H51      1.0000 0.81660  0.43230  0.06160  Biso   1.000  H
  H52      1.0000 0.18340  0.56770  0.06160  Biso   1.000  H
  H53      1.0000 0.93840  0.18340  0.43230  Biso   1.000  H
  H54      1.0000 0.93840  0.81660  0.56770  Biso   1.000  H
  H55      1.0000 0.06160  0.81660  0.43230  Biso   1.000  H
  H56      1.0000 0.06160  0.18340  0.56770  Biso   1.000  H
  H57      1.0000 0.43230  0.93840  0.18340  Biso   1.000  H
  H58      1.0000 0.56770  0.93840  0.81660  Biso   1.000  H
  H59      1.0000 0.43230  0.06160  0.81660  Biso   1.000  H
  H60      1.0000 0.56770  0.06160  0.18340  Biso   1.000  H
  H61      1.0000 0.43230  0.18340  0.93840  Biso   1.000  H
  H62      1.0000 0.56770  0.81660  0.93840  Biso   1.000  H
  H63      1.0000 0.43230  0.81660  0.06160  Biso   1.000  H
  H64      1.0000 0.56770  0.18340  0.06160  Biso   1.000  H
  H65      1.0000 0.18340  0.93840  0.43230  Biso   1.000  H
  H66      1.0000 0.81660  0.93840  0.56770  Biso   1.000  H
  H67      1.0000 0.81660  0.06160  0.43230  Biso   1.000  H
  H68      1.0000 0.18340  0.06160  0.56770  Biso   1.000  H
  H69      1.0000 0.93840  0.43230  0.18340  Biso   1.000  H
  H70      1.0000 0.93840  0.56770  0.81660  Biso   1.000  H
  H71      1.0000 0.06160  0.43230  0.81660  Biso   1.000  H
  H72      1.0000 0.06160  0.56770  0.18340  Biso   1.000  H
  H73      1.0000 0.68340  0.93230  0.43840  Biso   1.000  H
  H74      1.0000 0.31660  0.06770  0.43840  Biso   1.000  H
  H75      1.0000 0.31660  0.93230  0.56160  Biso   1.000  H
  H76      1.0000 0.68340  0.06770  0.56160  Biso   1.000  H
  H77      1.0000 0.43840  0.68340  0.93230  Biso   1.000  H
  H78      1.0000 0.43840  0.31660  0.06770  Biso   1.000  H
  H79      1.0000 0.56160  0.31660  0.93230  Biso   1.000  H
  H80      1.0000 0.56160  0.68340  0.06770  Biso   1.000  H
  H81      1.0000 0.93230  0.43840  0.68340  Biso   1.000  H
  H82      1.0000 0.06770  0.43840  0.31660  Biso   1.000  H
  H83      1.0000 0.93230  0.56160  0.31660  Biso   1.000  H
  H84      1.0000 0.06770  0.56160  0.68340  Biso   1.000  H
  H85      1.0000 0.93230  0.68340  0.43840  Biso   1.000  H
  H86      1.0000 0.06770  0.31660  0.43840  Biso   1.000  H
  H87      1.0000 0.93230  0.31660  0.56160  Biso   1.000  H
  H88      1.0000 0.06770  0.68340  0.56160  Biso   1.000  H
  H89      1.0000 0.68340  0.43840  0.93230  Biso   1.000  H
  H90      1.0000 0.31660  0.43840  0.06770  Biso   1.000  H
  H91      1.0000 0.31660  0.56160  0.93230  Biso   1.000  H
  H92      1.0000 0.68340  0.56160  0.06770  Biso   1.000  H
  H93      1.0000 0.43840  0.93230  0.68340  Biso   1.000  H
  H94      1.0000 0.43840  0.06770  0.31660  Biso   1.000  H
  H95      1.0000 0.56160  0.93230  0.31660  Biso   1.000  H
  H96      1.0000 0.56160  0.06770  0.68340  Biso   1.000  H
  C193     1.0000 0.12790  0.42070  0.87210  Biso   1.000  C
  C194     1.0000 0.87210  0.57930  0.87210  Biso   1.000  C
  C195     1.0000 0.87210  0.42070  0.12790  Biso   1.000  C
  C196     1.0000 0.12790  0.57930  0.12790  Biso   1.000  C
  C197     1.0000 0.87210  0.12790  0.42070  Biso   1.000  C
  C198     1.0000 0.87210  0.87210  0.57930  Biso   1.000  C
  C199     1.0000 0.12790  0.87210  0.42070  Biso   1.000  C
  C200     1.0000 0.12790  0.12790  0.57930  Biso   1.000  C
  C201     1.0000 0.42070  0.87210  0.12790  Biso   1.000  C
  C202     1.0000 0.57930  0.87210  0.87210  Biso   1.000  C
  C203     1.0000 0.42070  0.12790  0.87210  Biso   1.000  C
  C204     1.0000 0.57930  0.12790  0.12790  Biso   1.000  C
  C205     1.0000 0.62790  0.92070  0.37210  Biso   1.000  C
  C206     1.0000 0.37210  0.07930  0.37210  Biso   1.000  C
  C207     1.0000 0.37210  0.92070  0.62790  Biso   1.000  C
  C208     1.0000 0.62790  0.07930  0.62790  Biso   1.000  C
  C209     1.0000 0.37210  0.62790  0.92070  Biso   1.000  C
  C210     1.0000 0.37210  0.37210  0.07930  Biso   1.000  C
  C211     1.0000 0.62790  0.37210  0.92070  Biso   1.000  C
  C212     1.0000 0.62790  0.62790  0.07930  Biso   1.000  C
  C213     1.0000 0.92070  0.37210  0.62790  Biso   1.000  C
  C214     1.0000 0.07930  0.37210  0.37210  Biso   1.000  C
  C215     1.0000 0.92070  0.62790  0.37210  Biso   1.000  C
  C216     1.0000 0.07930  0.62790  0.62790  Biso   1.000  C
  H97      1.0000 0.11940  0.38180  0.88060  Biso   1.000  H
  H98      1.0000 0.88060  0.61820  0.88060  Biso   1.000  H
  H99      1.0000 0.88060  0.38180  0.11940  Biso   1.000  H
  H100     1.0000 0.11940  0.61820  0.11940  Biso   1.000  H
  H101     1.0000 0.88060  0.11940  0.38180  Biso   1.000  H
  H102     1.0000 0.88060  0.88060  0.61820  Biso   1.000  H
  H103     1.0000 0.11940  0.88060  0.38180  Biso   1.000  H
  H104     1.0000 0.11940  0.11940  0.61820  Biso   1.000  H
  H105     1.0000 0.38180  0.88060  0.11940  Biso   1.000  H
  H106     1.0000 0.61820  0.88060  0.88060  Biso   1.000  H
  H107     1.0000 0.38180  0.11940  0.88060  Biso   1.000  H
  H108     1.0000 0.61820  0.11940  0.11940  Biso   1.000  H
  H109     1.0000 0.61940  0.88180  0.38060  Biso   1.000  H
  H110     1.0000 0.38060  0.11820  0.38060  Biso   1.000  H
  H111     1.0000 0.38060  0.88180  0.61940  Biso   1.000  H
  H112     1.0000 0.61940  0.11820  0.61940  Biso   1.000  H
  H113     1.0000 0.38060  0.61940  0.88180  Biso   1.000  H
  H114     1.0000 0.38060  0.38060  0.11820  Biso   1.000  H
  H115     1.0000 0.61940  0.38060  0.88180  Biso   1.000  H
  H116     1.0000 0.61940  0.61940  0.11820  Biso   1.000  H
  H117     1.0000 0.88180  0.38060  0.61940  Biso   1.000  H
  H118     1.0000 0.11820  0.38060  0.38060  Biso   1.000  H
  H119     1.0000 0.88180  0.61940  0.38060  Biso   1.000  H
  H120     1.0000 0.11820  0.61940  0.61940  Biso   1.000  H
  H121     1.0000 0.15670  0.42150  0.84330  Biso   1.000  H
  H122     1.0000 0.84330  0.57850  0.84330  Biso   1.000  H
  H123     1.0000 0.84330  0.42150  0.15670  Biso   1.000  H
  H124     1.0000 0.15670  0.57850  0.15670  Biso   1.000  H
  H125     1.0000 0.84330  0.15670  0.42150  Biso   1.000  H
  H126     1.0000 0.84330  0.84330  0.57850  Biso   1.000  H
  H127     1.0000 0.15670  0.84330  0.42150  Biso   1.000  H
  H128     1.0000 0.15670  0.15670  0.57850  Biso   1.000  H
  H129     1.0000 0.42150  0.84330  0.15670  Biso   1.000  H
  H130     1.0000 0.57850  0.84330  0.84330  Biso   1.000  H
  H131     1.0000 0.42150  0.15670  0.84330  Biso   1.000  H
  H132     1.0000 0.57850  0.15670  0.15670  Biso   1.000  H
  H133     1.0000 0.65670  0.92150  0.34330  Biso   1.000  H
  H134     1.0000 0.34330  0.07850  0.34330  Biso   1.000  H
  H135     1.0000 0.34330  0.92150  0.65670  Biso   1.000  H
  H136     1.0000 0.65670  0.07850  0.65670  Biso   1.000  H
  H137     1.0000 0.34330  0.65670  0.92150  Biso   1.000  H
  H138     1.0000 0.34330  0.34330  0.07850  Biso   1.000  H
  H139     1.0000 0.65670  0.34330  0.92150  Biso   1.000  H
  H140     1.0000 0.65670  0.65670  0.07850  Biso   1.000  H
  H141     1.0000 0.92150  0.34330  0.65670  Biso   1.000  H
  H142     1.0000 0.07850  0.34330  0.34330  Biso   1.000  H
  H143     1.0000 0.92150  0.65670  0.34330  Biso   1.000  H
  H144     1.0000 0.07850  0.65670  0.65670  Biso   1.000  H
  C217     1.0000 0.19350  0.68440  0.88130  Biso   1.000  C
  C218     1.0000 0.80650  0.31560  0.88130  Biso   1.000  C
  C219     1.0000 0.80650  0.68440  0.11870  Biso   1.000  C
  C220     1.0000 0.19350  0.31560  0.11870  Biso   1.000  C
  C221     1.0000 0.88130  0.19350  0.68440  Biso   1.000  C
  C222     1.0000 0.88130  0.80650  0.31560  Biso   1.000  C
  C223     1.0000 0.11870  0.80650  0.68440  Biso   1.000  C
  C224     1.0000 0.11870  0.19350  0.31560  Biso   1.000  C
  C225     1.0000 0.68440  0.88130  0.19350  Biso   1.000  C
  C226     1.0000 0.31560  0.88130  0.80650  Biso   1.000  C
  C227     1.0000 0.68440  0.11870  0.80650  Biso   1.000  C
  C228     1.0000 0.31560  0.11870  0.19350  Biso   1.000  C
  C229     1.0000 0.68440  0.19350  0.88130  Biso   1.000  C
  C230     1.0000 0.31560  0.80650  0.88130  Biso   1.000  C
  C231     1.0000 0.68440  0.80650  0.11870  Biso   1.000  C
  C232     1.0000 0.31560  0.19350  0.11870  Biso   1.000  C
  C233     1.0000 0.19350  0.88130  0.68440  Biso   1.000  C
  C234     1.0000 0.80650  0.88130  0.31560  Biso   1.000  C
  C235     1.0000 0.80650  0.11870  0.68440  Biso   1.000  C
  C236     1.0000 0.19350  0.11870  0.31560  Biso   1.000  C
  C237     1.0000 0.88130  0.68440  0.19350  Biso   1.000  C
  C238     1.0000 0.88130  0.31560  0.80650  Biso   1.000  C
  C239     1.0000 0.11870  0.68440  0.80650  Biso   1.000  C
  C240     1.0000 0.11870  0.31560  0.19350  Biso   1.000  C
  C241     1.0000 0.69350  0.18440  0.38130  Biso   1.000  C
  C242     1.0000 0.30650  0.81560  0.38130  Biso   1.000  C
  C243     1.0000 0.30650  0.18440  0.61870  Biso   1.000  C
  C244     1.0000 0.69350  0.81560  0.61870  Biso   1.000  C
  C245     1.0000 0.38130  0.69350  0.18440  Biso   1.000  C
  C246     1.0000 0.38130  0.30650  0.81560  Biso   1.000  C
  C247     1.0000 0.61870  0.30650  0.18440  Biso   1.000  C
  C248     1.0000 0.61870  0.69350  0.81560  Biso   1.000  C
  C249     1.0000 0.18440  0.38130  0.69350  Biso   1.000  C
  C250     1.0000 0.81560  0.38130  0.30650  Biso   1.000  C
  C251     1.0000 0.18440  0.61870  0.30650  Biso   1.000  C
  C252     1.0000 0.81560  0.61870  0.69350  Biso   1.000  C
  C253     1.0000 0.18440  0.69350  0.38130  Biso   1.000  C
  C254     1.0000 0.81560  0.30650  0.38130  Biso   1.000  C
  C255     1.0000 0.18440  0.30650  0.61870  Biso   1.000  C
  C256     1.0000 0.81560  0.69350  0.61870  Biso   1.000  C
  C257     1.0000 0.69350  0.38130  0.18440  Biso   1.000  C
  C258     1.0000 0.30650  0.38130  0.81560  Biso   1.000  C
  C259     1.0000 0.30650  0.61870  0.18440  Biso   1.000  C
  C260     1.0000 0.69350  0.61870  0.81560  Biso   1.000  C
  C261     1.0000 0.38130  0.18440  0.69350  Biso   1.000  C
  C262     1.0000 0.38130  0.81560  0.30650  Biso   1.000  C
  C263     1.0000 0.61870  0.18440  0.30650  Biso   1.000  C
  C264     1.0000 0.61870  0.81560  0.69350  Biso   1.000  C
  H145     1.0000 0.22560  0.68680  0.85640  Biso   1.000  H
  H146     1.0000 0.77440  0.31320  0.85640  Biso   1.000  H
  H147     1.0000 0.77440  0.68680  0.14360  Biso   1.000  H
  H148     1.0000 0.22560  0.31320  0.14360  Biso   1.000  H
  H149     1.0000 0.85640  0.22560  0.68680  Biso   1.000  H
  H150     1.0000 0.85640  0.77440  0.31320  Biso   1.000  H
  H151     1.0000 0.14360  0.77440  0.68680  Biso   1.000  H
  H152     1.0000 0.14360  0.22560  0.31320  Biso   1.000  H
  H153     1.0000 0.68680  0.85640  0.22560  Biso   1.000  H
  H154     1.0000 0.31320  0.85640  0.77440  Biso   1.000  H
  H155     1.0000 0.68680  0.14360  0.77440  Biso   1.000  H
  H156     1.0000 0.31320  0.14360  0.22560  Biso   1.000  H
  H157     1.0000 0.68680  0.22560  0.85640  Biso   1.000  H
  H158     1.0000 0.31320  0.77440  0.85640  Biso   1.000  H
  H159     1.0000 0.68680  0.77440  0.14360  Biso   1.000  H
  H160     1.0000 0.31320  0.22560  0.14360  Biso   1.000  H
  H161     1.0000 0.22560  0.85640  0.68680  Biso   1.000  H
  H162     1.0000 0.77440  0.85640  0.31320  Biso   1.000  H
  H163     1.0000 0.77440  0.14360  0.68680  Biso   1.000  H
  H164     1.0000 0.22560  0.14360  0.31320  Biso   1.000  H
  H165     1.0000 0.85640  0.68680  0.22560  Biso   1.000  H
  H166     1.0000 0.85640  0.31320  0.77440  Biso   1.000  H
  H167     1.0000 0.14360  0.68680  0.77440  Biso   1.000  H
  H168     1.0000 0.14360  0.31320  0.22560  Biso   1.000  H
  H169     1.0000 0.72560  0.18680  0.35640  Biso   1.000  H
  H170     1.0000 0.27440  0.81320  0.35640  Biso   1.000  H
  H171     1.0000 0.27440  0.18680  0.64360  Biso   1.000  H
  H172     1.0000 0.72560  0.81320  0.64360  Biso   1.000  H
  H173     1.0000 0.35640  0.72560  0.18680  Biso   1.000  H
  H174     1.0000 0.35640  0.27440  0.81320  Biso   1.000  H
  H175     1.0000 0.64360  0.27440  0.18680  Biso   1.000  H
  H176     1.0000 0.64360  0.72560  0.81320  Biso   1.000  H
  H177     1.0000 0.18680  0.35640  0.72560  Biso   1.000  H
  H178     1.0000 0.81320  0.35640  0.27440  Biso   1.000  H
  H179     1.0000 0.18680  0.64360  0.27440  Biso   1.000  H
  H180     1.0000 0.81320  0.64360  0.72560  Biso   1.000  H
  H181     1.0000 0.18680  0.72560  0.35640  Biso   1.000  H
  H182     1.0000 0.81320  0.27440  0.35640  Biso   1.000  H
  H183     1.0000 0.18680  0.27440  0.64360  Biso   1.000  H
  H184     1.0000 0.81320  0.72560  0.64360  Biso   1.000  H
  H185     1.0000 0.72560  0.35640  0.18680  Biso   1.000  H
  H186     1.0000 0.27440  0.35640  0.81320  Biso   1.000  H
  H187     1.0000 0.27440  0.64360  0.18680  Biso   1.000  H
  H188     1.0000 0.72560  0.64360  0.81320  Biso   1.000  H
  H189     1.0000 0.35640  0.18680  0.72560  Biso   1.000  H
  H190     1.0000 0.35640  0.81320  0.27440  Biso   1.000  H
  H191     1.0000 0.64360  0.18680  0.27440  Biso   1.000  H
  H192     1.0000 0.64360  0.81320  0.72560  Biso   1.000  H
  H193     1.0000 0.20340  0.70340  0.91600  Biso   1.000  H
  H194     1.0000 0.79660  0.29660  0.91600  Biso   1.000  H
  H195     1.0000 0.79660  0.70340  0.08400  Biso   1.000  H
  H196     1.0000 0.20340  0.29660  0.08400  Biso   1.000  H
  H197     1.0000 0.91600  0.20340  0.70340  Biso   1.000  H
  H198     1.0000 0.91600  0.79660  0.29660  Biso   1.000  H
  H199     1.0000 0.08400  0.79660  0.70340  Biso   1.000  H
  H200     1.0000 0.08400  0.20340  0.29660  Biso   1.000  H
  H201     1.0000 0.70340  0.91600  0.20340  Biso   1.000  H
  H202     1.0000 0.29660  0.91600  0.79660  Biso   1.000  H
  H203     1.0000 0.70340  0.08400  0.79660  Biso   1.000  H
  H204     1.0000 0.29660  0.08400  0.20340  Biso   1.000  H
  H205     1.0000 0.70340  0.20340  0.91600  Biso   1.000  H
  H206     1.0000 0.29660  0.79660  0.91600  Biso   1.000  H
  H207     1.0000 0.70340  0.79660  0.08400  Biso   1.000  H
  H208     1.0000 0.29660  0.20340  0.08400  Biso   1.000  H
  H209     1.0000 0.20340  0.91600  0.70340  Biso   1.000  H
  H210     1.0000 0.79660  0.91600  0.29660  Biso   1.000  H
  H211     1.0000 0.79660  0.08400  0.70340  Biso   1.000  H
  H212     1.0000 0.20340  0.08400  0.29660  Biso   1.000  H
  H213     1.0000 0.91600  0.70340  0.20340  Biso   1.000  H
  H214     1.0000 0.91600  0.29660  0.79660  Biso   1.000  H
  H215     1.0000 0.08400  0.70340  0.79660  Biso   1.000  H
  H216     1.0000 0.08400  0.29660  0.20340  Biso   1.000  H
  H217     1.0000 0.70340  0.20340  0.41600  Biso   1.000  H
  H218     1.0000 0.29660  0.79660  0.41600  Biso   1.000  H
  H219     1.0000 0.29660  0.20340  0.58400  Biso   1.000  H
  H220     1.0000 0.70340  0.79660  0.58400  Biso   1.000  H
  H221     1.0000 0.41600  0.70340  0.20340  Biso   1.000  H
  H222     1.0000 0.41600  0.29660  0.79660  Biso   1.000  H
  H223     1.0000 0.58400  0.29660  0.20340  Biso   1.000  H
  H224     1.0000 0.58400  0.70340  0.79660  Biso   1.000  H
  H225     1.0000 0.20340  0.41600  0.70340  Biso   1.000  H
  H226     1.0000 0.79660  0.41600  0.29660  Biso   1.000  H
  H227     1.0000 0.20340  0.58400  0.29660  Biso   1.000  H
  H228     1.0000 0.79660  0.58400  0.70340  Biso   1.000  H
  H229     1.0000 0.20340  0.70340  0.41600  Biso   1.000  H
  H230     1.0000 0.79660  0.29660  0.41600  Biso   1.000  H
  H231     1.0000 0.20340  0.29660  0.58400  Biso   1.000  H
  H232     1.0000 0.79660  0.70340  0.58400  Biso   1.000  H
  H233     1.0000 0.70340  0.41600  0.20340  Biso   1.000  H
  H234     1.0000 0.29660  0.41600  0.79660  Biso   1.000  H
  H235     1.0000 0.29660  0.58400  0.20340  Biso   1.000  H
  H236     1.0000 0.70340  0.58400  0.79660  Biso   1.000  H
  H237     1.0000 0.41600  0.20340  0.70340  Biso   1.000  H
  H238     1.0000 0.41600  0.79660  0.29660  Biso   1.000  H
  H239     1.0000 0.58400  0.20340  0.29660  Biso   1.000  H
  H240     1.0000 0.58400  0.79660  0.70340  Biso   1.000  H
  C265     1.0000 0.14640  0.71510  0.85360  Biso   1.000  C
  C266     1.0000 0.85360  0.28490  0.85360  Biso   1.000  C
  C267     1.0000 0.85360  0.71510  0.14640  Biso   1.000  C
  C268     1.0000 0.14640  0.28490  0.14640  Biso   1.000  C
  C269     1.0000 0.85360  0.14640  0.71510  Biso   1.000  C
  C270     1.0000 0.85360  0.85360  0.28490  Biso   1.000  C
  C271     1.0000 0.14640  0.85360  0.71510  Biso   1.000  C
  C272     1.0000 0.14640  0.14640  0.28490  Biso   1.000  C
  C273     1.0000 0.71510  0.85360  0.14640  Biso   1.000  C
  C274     1.0000 0.28490  0.85360  0.85360  Biso   1.000  C
  C275     1.0000 0.71510  0.14640  0.85360  Biso   1.000  C
  C276     1.0000 0.28490  0.14640  0.14640  Biso   1.000  C
  C277     1.0000 0.64640  0.21510  0.35360  Biso   1.000  C
  C278     1.0000 0.35360  0.78490  0.35360  Biso   1.000  C
  C279     1.0000 0.35360  0.21510  0.64640  Biso   1.000  C
  C280     1.0000 0.64640  0.78490  0.64640  Biso   1.000  C
  C281     1.0000 0.35360  0.64640  0.21510  Biso   1.000  C
  C282     1.0000 0.35360  0.35360  0.78490  Biso   1.000  C
  C283     1.0000 0.64640  0.35360  0.21510  Biso   1.000  C
  C284     1.0000 0.64640  0.64640  0.78490  Biso   1.000  C
  C285     1.0000 0.21510  0.35360  0.64640  Biso   1.000  C
  C286     1.0000 0.78490  0.35360  0.35360  Biso   1.000  C
  C287     1.0000 0.21510  0.64640  0.35360  Biso   1.000  C
  C288     1.0000 0.78490  0.64640  0.64640  Biso   1.000  C
  H241     1.0000 0.15940  0.75150  0.84060  Biso   1.000  H
  H242     1.0000 0.84060  0.24850  0.84060  Biso   1.000  H
  H243     1.0000 0.84060  0.75150  0.15940  Biso   1.000  H
  H244     1.0000 0.15940  0.24850  0.15940  Biso   1.000  H
  H245     1.0000 0.84060  0.15940  0.75150  Biso   1.000  H
  H246     1.0000 0.84060  0.84060  0.24850  Biso   1.000  H
  H247     1.0000 0.15940  0.84060  0.75150  Biso   1.000  H
  H248     1.0000 0.15940  0.15940  0.24850  Biso   1.000  H
  H249     1.0000 0.75150  0.84060  0.15940  Biso   1.000  H
  H250     1.0000 0.24850  0.84060  0.84060  Biso   1.000  H
  H251     1.0000 0.75150  0.15940  0.84060  Biso   1.000  H
  H252     1.0000 0.24850  0.15940  0.15940  Biso   1.000  H
  H253     1.0000 0.65940  0.25150  0.34060  Biso   1.000  H
  H254     1.0000 0.34060  0.74850  0.34060  Biso   1.000  H
  H255     1.0000 0.34060  0.25150  0.65940  Biso   1.000  H
  H256     1.0000 0.65940  0.74850  0.65940  Biso   1.000  H
  H257     1.0000 0.34060  0.65940  0.25150  Biso   1.000  H
  H258     1.0000 0.34060  0.34060  0.74850  Biso   1.000  H
  H259     1.0000 0.65940  0.34060  0.25150  Biso   1.000  H
  H260     1.0000 0.65940  0.65940  0.74850  Biso   1.000  H
  H261     1.0000 0.25150  0.34060  0.65940  Biso   1.000  H
  H262     1.0000 0.74850  0.34060  0.34060  Biso   1.000  H
  H263     1.0000 0.25150  0.65940  0.34060  Biso   1.000  H
  H264     1.0000 0.74850  0.65940  0.65940  Biso   1.000  H
  H265     1.0000 0.11790  0.72170  0.88210  Biso   1.000  H
  H266     1.0000 0.88210  0.27830  0.88210  Biso   1.000  H
  H267     1.0000 0.88210  0.72170  0.11790  Biso   1.000  H
  H268     1.0000 0.11790  0.27830  0.11790  Biso   1.000  H
  H269     1.0000 0.88210  0.11790  0.72170  Biso   1.000  H
  H270     1.0000 0.88210  0.88210  0.27830  Biso   1.000  H
  H271     1.0000 0.11790  0.88210  0.72170  Biso   1.000  H
  H272     1.0000 0.11790  0.11790  0.27830  Biso   1.000  H
  H273     1.0000 0.72170  0.88210  0.11790  Biso   1.000  H
  H274     1.0000 0.27830  0.88210  0.88210  Biso   1.000  H
  H275     1.0000 0.72170  0.11790  0.88210  Biso   1.000  H
  H276     1.0000 0.27830  0.11790  0.11790  Biso   1.000  H
  H277     1.0000 0.61790  0.22170  0.38210  Biso   1.000  H
  H278     1.0000 0.38210  0.77830  0.38210  Biso   1.000  H
  H279     1.0000 0.38210  0.22170  0.61790  Biso   1.000  H
  H280     1.0000 0.61790  0.77830  0.61790  Biso   1.000  H
  H281     1.0000 0.38210  0.61790  0.22170  Biso   1.000  H
  H282     1.0000 0.38210  0.38210  0.77830  Biso   1.000  H
  H283     1.0000 0.61790  0.38210  0.22170  Biso   1.000  H
  H284     1.0000 0.61790  0.61790  0.77830  Biso   1.000  H
  H285     1.0000 0.22170  0.38210  0.61790  Biso   1.000  H
  H286     1.0000 0.77830  0.38210  0.38210  Biso   1.000  H
  H287     1.0000 0.22170  0.61790  0.38210  Biso   1.000  H
  H288     1.0000 0.77830  0.61790  0.61790  Biso   1.000  H
  C289     1.0000 0.26280  0.57050  0.73720  Biso   1.000  C
  C290     1.0000 0.73720  0.42950  0.73720  Biso   1.000  C
  C291     1.0000 0.73720  0.57050  0.26280  Biso   1.000  C
  C292     1.0000 0.26280  0.42950  0.26280  Biso   1.000  C
  C293     1.0000 0.73720  0.26280  0.57050  Biso   1.000  C
  C294     1.0000 0.73720  0.73720  0.42950  Biso   1.000  C
  C295     1.0000 0.26280  0.73720  0.57050  Biso   1.000  C
  C296     1.0000 0.26280  0.26280  0.42950  Biso   1.000  C
  C297     1.0000 0.57050  0.73720  0.26280  Biso   1.000  C
  C298     1.0000 0.42950  0.73720  0.73720  Biso   1.000  C
  C299     1.0000 0.57050  0.26280  0.73720  Biso   1.000  C
  C300     1.0000 0.42950  0.26280  0.26280  Biso   1.000  C
  C301     1.0000 0.76280  0.07050  0.23720  Biso   1.000  C
  C302     1.0000 0.23720  0.92950  0.23720  Biso   1.000  C
  C303     1.0000 0.23720  0.07050  0.76280  Biso   1.000  C
  C304     1.0000 0.76280  0.92950  0.76280  Biso   1.000  C
  C305     1.0000 0.23720  0.76280  0.07050  Biso   1.000  C
  C306     1.0000 0.23720  0.23720  0.92950  Biso   1.000  C
  C307     1.0000 0.76280  0.23720  0.07050  Biso   1.000  C
  C308     1.0000 0.76280  0.76280  0.92950  Biso   1.000  C
  C309     1.0000 0.07050  0.23720  0.76280  Biso   1.000  C
  C310     1.0000 0.92950  0.23720  0.23720  Biso   1.000  C
  C311     1.0000 0.07050  0.76280  0.23720  Biso   1.000  C
  C312     1.0000 0.92950  0.76280  0.76280  Biso   1.000  C
  C313     1.0000 0.00000  0.50000  0.00000  Biso   1.000  C
  C314     1.0000 0.00000  0.00000  0.50000  Biso   1.000  C
  C315     1.0000 0.50000  0.00000  0.00000  Biso   1.000  C
  C316     1.0000 0.50000  0.00000  0.50000  Biso   1.000  C
  C317     1.0000 0.50000  0.50000  0.00000  Biso   1.000  C
  C318     1.0000 0.00000  0.50000  0.50000  Biso   1.000  C
  N97      1.0000 0.27350  0.72650  0.72650  Biso   1.000  N
  N98      1.0000 0.72650  0.27350  0.72650  Biso   1.000  N
  N99      1.0000 0.72650  0.72650  0.27350  Biso   1.000  N
  N100     1.0000 0.27350  0.27350  0.27350  Biso   1.000  N
  N101     1.0000 0.77350  0.22650  0.22650  Biso   1.000  N
  N102     1.0000 0.22650  0.77350  0.22650  Biso   1.000  N
  N103     1.0000 0.22650  0.22650  0.77350  Biso   1.000  N
  N104     1.0000 0.77350  0.77350  0.77350  Biso   1.000  N
  O1       1.0000 0.29560  0.70440  0.76750  Biso   1.000  O
  O2       1.0000 0.70440  0.29560  0.76750  Biso   1.000  O
  O3       1.0000 0.70440  0.70440  0.23250  Biso   1.000  O
  O4       1.0000 0.29560  0.29560  0.23250  Biso   1.000  O
  O5       1.0000 0.76750  0.29560  0.70440  Biso   1.000  O
  O6       1.0000 0.76750  0.70440  0.29560  Biso   1.000  O
  O7       1.0000 0.23250  0.70440  0.70440  Biso   1.000  O
  O8       1.0000 0.23250  0.29560  0.29560  Biso   1.000  O
  O9       1.0000 0.70440  0.76750  0.29560  Biso   1.000  O
  O10      1.0000 0.29560  0.76750  0.70440  Biso   1.000  O
  O11      1.0000 0.70440  0.23250  0.70440  Biso   1.000  O
  O12      1.0000 0.29560  0.23250  0.29560  Biso   1.000  O
  O13      1.0000 0.79560  0.20440  0.26750  Biso   1.000  O
  O14      1.0000 0.20440  0.79560  0.26750  Biso   1.000  O
  O15      1.0000 0.20440  0.20440  0.73250  Biso   1.000  O
  O16      1.0000 0.79560  0.79560  0.73250  Biso   1.000  O
  O17      1.0000 0.26750  0.79560  0.20440  Biso   1.000  O
  O18      1.0000 0.26750  0.20440  0.79560  Biso   1.000  O
  O19      1.0000 0.73250  0.20440  0.20440  Biso   1.000  O
  O20      1.0000 0.73250  0.79560  0.79560  Biso   1.000  O
  O21      1.0000 0.20440  0.26750  0.79560  Biso   1.000  O
  O22      1.0000 0.79560  0.26750  0.20440  Biso   1.000  O
  O23      1.0000 0.20440  0.73250  0.20440  Biso   1.000  O
  O24      1.0000 0.79560  0.73250  0.79560  Biso   1.000  O
  Cl1      1.0000 0.19620  0.53270  0.72660  Biso   1.000  Cl
  Cl2      1.0000 0.80380  0.46730  0.72660  Biso   1.000  Cl
  Cl3      1.0000 0.80380  0.53270  0.27340  Biso   1.000  Cl
  Cl4      1.0000 0.19620  0.46730  0.27340  Biso   1.000  Cl
  Cl5      1.0000 0.72660  0.19620  0.53270  Biso   1.000  Cl
  Cl6      1.0000 0.72660  0.80380  0.46730  Biso   1.000  Cl
  Cl7      1.0000 0.27340  0.80380  0.53270  Biso   1.000  Cl
  Cl8      1.0000 0.27340  0.19620  0.46730  Biso   1.000  Cl
  Cl9      1.0000 0.53270  0.72660  0.19620  Biso   1.000  Cl
  Cl10     1.0000 0.46730  0.72660  0.80380  Biso   1.000  Cl
  Cl11     1.0000 0.53270  0.27340  0.80380  Biso   1.000  Cl
  Cl12     1.0000 0.46730  0.27340  0.19620  Biso   1.000  Cl
  Cl13     1.0000 0.53270  0.19620  0.72660  Biso   1.000  Cl
  Cl14     1.0000 0.46730  0.80380  0.72660  Biso   1.000  Cl
  Cl15     1.0000 0.53270  0.80380  0.27340  Biso   1.000  Cl
  Cl16     1.0000 0.46730  0.19620  0.27340  Biso   1.000  Cl
  Cl17     1.0000 0.19620  0.72660  0.53270  Biso   1.000  Cl
  Cl18     1.0000 0.80380  0.72660  0.46730  Biso   1.000  Cl
  Cl19     1.0000 0.80380  0.27340  0.53270  Biso   1.000  Cl
  Cl20     1.0000 0.19620  0.27340  0.46730  Biso   1.000  Cl
  Cl21     1.0000 0.72660  0.53270  0.19620  Biso   1.000  Cl
  Cl22     1.0000 0.72660  0.46730  0.80380  Biso   1.000  Cl
  Cl23     1.0000 0.27340  0.53270  0.80380  Biso   1.000  Cl
  Cl24     1.0000 0.27340  0.46730  0.19620  Biso   1.000  Cl
  Cl25     1.0000 0.69620  0.03270  0.22660  Biso   1.000  Cl
  Cl26     1.0000 0.30380  0.96730  0.22660  Biso   1.000  Cl
  Cl27     1.0000 0.30380  0.03270  0.77340  Biso   1.000  Cl
  Cl28     1.0000 0.69620  0.96730  0.77340  Biso   1.000  Cl
  Cl29     1.0000 0.22660  0.69620  0.03270  Biso   1.000  Cl
  Cl30     1.0000 0.22660  0.30380  0.96730  Biso   1.000  Cl
  Cl31     1.0000 0.77340  0.30380  0.03270  Biso   1.000  Cl
  Cl32     1.0000 0.77340  0.69620  0.96730  Biso   1.000  Cl
  Cl33     1.0000 0.03270  0.22660  0.69620  Biso   1.000  Cl
  Cl34     1.0000 0.96730  0.22660  0.30380  Biso   1.000  Cl
  Cl35     1.0000 0.03270  0.77340  0.30380  Biso   1.000  Cl
  Cl36     1.0000 0.96730  0.77340  0.69620  Biso   1.000  Cl
  Cl37     1.0000 0.03270  0.69620  0.22660  Biso   1.000  Cl
  Cl38     1.0000 0.96730  0.30380  0.22660  Biso   1.000  Cl
  Cl39     1.0000 0.03270  0.30380  0.77340  Biso   1.000  Cl
  Cl40     1.0000 0.96730  0.69620  0.77340  Biso   1.000  Cl
  Cl41     1.0000 0.69620  0.22660  0.03270  Biso   1.000  Cl
  Cl42     1.0000 0.30380  0.22660  0.96730  Biso   1.000  Cl
  Cl43     1.0000 0.30380  0.77340  0.03270  Biso   1.000  Cl
  Cl44     1.0000 0.69620  0.77340  0.96730  Biso   1.000  Cl
  Cl45     1.0000 0.22660  0.03270  0.69620  Biso   1.000  Cl
  Cl46     1.0000 0.22660  0.96730  0.30380  Biso   1.000  Cl
  Cl47     1.0000 0.77340  0.03270  0.30380  Biso   1.000  Cl
  Cl48     1.0000 0.77340  0.96730  0.69620  Biso   1.000  Cl
  Cl49     1.0000 0.31050  0.52960  0.68950  Biso   1.000  Cl
  Cl50     1.0000 0.68950  0.47040  0.68950  Biso   1.000  Cl
  Cl51     1.0000 0.68950  0.52960  0.31050  Biso   1.000  Cl
  Cl52     1.0000 0.31050  0.47040  0.31050  Biso   1.000  Cl
  Cl53     1.0000 0.68950  0.31050  0.52960  Biso   1.000  Cl
  Cl54     1.0000 0.68950  0.68950  0.47040  Biso   1.000  Cl
  Cl55     1.0000 0.31050  0.68950  0.52960  Biso   1.000  Cl
  Cl56     1.0000 0.31050  0.31050  0.47040  Biso   1.000  Cl
  Cl57     1.0000 0.52960  0.68950  0.31050  Biso   1.000  Cl
  Cl58     1.0000 0.47040  0.68950  0.68950  Biso   1.000  Cl
  Cl59     1.0000 0.52960  0.31050  0.68950  Biso   1.000  Cl
  Cl60     1.0000 0.47040  0.31050  0.31050  Biso   1.000  Cl
  Cl61     1.0000 0.81050  0.02960  0.18950  Biso   1.000  Cl
  Cl62     1.0000 0.18950  0.97040  0.18950  Biso   1.000  Cl
  Cl63     1.0000 0.18950  0.02960  0.81050  Biso   1.000  Cl
  Cl64     1.0000 0.81050  0.97040  0.81050  Biso   1.000  Cl
  Cl65     1.0000 0.18950  0.81050  0.02960  Biso   1.000  Cl
  Cl66     1.0000 0.18950  0.18950  0.97040  Biso   1.000  Cl
  Cl67     1.0000 0.81050  0.18950  0.02960  Biso   1.000  Cl
  Cl68     1.0000 0.81050  0.81050  0.97040  Biso   1.000  Cl
  Cl69     1.0000 0.02960  0.18950  0.81050  Biso   1.000  Cl
  Cl70     1.0000 0.97040  0.18950  0.18950  Biso   1.000  Cl
  Cl71     1.0000 0.02960  0.81050  0.18950  Biso   1.000  Cl
  Cl72     1.0000 0.97040  0.81050  0.81050  Biso   1.000  Cl
  Cl73     1.0000 0.19640  0.55460  0.71510  Biso   1.000  Cl
  Cl74     1.0000 0.80360  0.44540  0.71510  Biso   1.000  Cl
  Cl75     1.0000 0.80360  0.55460  0.28490  Biso   1.000  Cl
  Cl76     1.0000 0.19640  0.44540  0.28490  Biso   1.000  Cl
  Cl77     1.0000 0.71510  0.19640  0.55460  Biso   1.000  Cl
  Cl78     1.0000 0.71510  0.80360  0.44540  Biso   1.000  Cl
  Cl79     1.0000 0.28490  0.80360  0.55460  Biso   1.000  Cl
  Cl80     1.0000 0.28490  0.19640  0.44540  Biso   1.000  Cl
  Cl81     1.0000 0.55460  0.71510  0.19640  Biso   1.000  Cl
  Cl82     1.0000 0.44540  0.71510  0.80360  Biso   1.000  Cl
  Cl83     1.0000 0.55460  0.28490  0.80360  Biso   1.000  Cl
  Cl84     1.0000 0.44540  0.28490  0.19640  Biso   1.000  Cl
  Cl85     1.0000 0.55460  0.19640  0.71510  Biso   1.000  Cl
  Cl86     1.0000 0.44540  0.80360  0.71510  Biso   1.000  Cl
  Cl87     1.0000 0.55460  0.80360  0.28490  Biso   1.000  Cl
  Cl88     1.0000 0.44540  0.19640  0.28490  Biso   1.000  Cl
  Cl89     1.0000 0.19640  0.71510  0.55460  Biso   1.000  Cl
  Cl90     1.0000 0.80360  0.71510  0.44540  Biso   1.000  Cl
  Cl91     1.0000 0.80360  0.28490  0.55460  Biso   1.000  Cl
  Cl92     1.0000 0.19640  0.28490  0.44540  Biso   1.000  Cl
  Cl93     1.0000 0.71510  0.55460  0.19640  Biso   1.000  Cl
  Cl94     1.0000 0.71510  0.44540  0.80360  Biso   1.000  Cl
  Cl95     1.0000 0.28490  0.55460  0.80360  Biso   1.000  Cl
  Cl96     1.0000 0.28490  0.44540  0.19640  Biso   1.000  Cl
  Cl97     1.0000 0.69640  0.05460  0.21510  Biso   1.000  Cl
  Cl98     1.0000 0.30360  0.94540  0.21510  Biso   1.000  Cl
  Cl99     1.0000 0.30360  0.05460  0.78490  Biso   1.000  Cl
  Cl100    1.0000 0.69640  0.94540  0.78490  Biso   1.000  Cl
  Cl101    1.0000 0.21510  0.69640  0.05460  Biso   1.000  Cl
  Cl102    1.0000 0.21510  0.30360  0.94540  Biso   1.000  Cl
  Cl103    1.0000 0.78490  0.30360  0.05460  Biso   1.000  Cl
  Cl104    1.0000 0.78490  0.69640  0.94540  Biso   1.000  Cl
  Cl105    1.0000 0.05460  0.21510  0.69640  Biso   1.000  Cl
  Cl106    1.0000 0.94540  0.21510  0.30360  Biso   1.000  Cl
  Cl107    1.0000 0.05460  0.78490  0.30360  Biso   1.000  Cl
  Cl108    1.0000 0.94540  0.78490  0.69640  Biso   1.000  Cl
  Cl109    1.0000 0.05460  0.69640  0.21510  Biso   1.000  Cl
  Cl110    1.0000 0.94540  0.30360  0.21510  Biso   1.000  Cl
  Cl111    1.0000 0.05460  0.30360  0.78490  Biso   1.000  Cl
  Cl112    1.0000 0.94540  0.69640  0.78490  Biso   1.000  Cl
  Cl113    1.0000 0.69640  0.21510  0.05460  Biso   1.000  Cl
  Cl114    1.0000 0.30360  0.21510  0.94540  Biso   1.000  Cl
  Cl115    1.0000 0.30360  0.78490  0.05460  Biso   1.000  Cl
  Cl116    1.0000 0.69640  0.78490  0.94540  Biso   1.000  Cl
  Cl117    1.0000 0.21510  0.05460  0.69640  Biso   1.000  Cl
  Cl118    1.0000 0.21510  0.94540  0.30360  Biso   1.000  Cl
  Cl119    1.0000 0.78490  0.05460  0.30360  Biso   1.000  Cl
  Cl120    1.0000 0.78490  0.94540  0.69640  Biso   1.000  Cl
  Cl121    1.0000 0.31230  0.56550  0.68770  Biso   1.000  Cl
  Cl122    1.0000 0.68770  0.43450  0.68770  Biso   1.000  Cl
  Cl123    1.0000 0.68770  0.56550  0.31230  Biso   1.000  Cl
  Cl124    1.0000 0.31230  0.43450  0.31230  Biso   1.000  Cl
  Cl125    1.0000 0.68770  0.31230  0.56550  Biso   1.000  Cl
  Cl126    1.0000 0.68770  0.68770  0.43450  Biso   1.000  Cl
  Cl127    1.0000 0.31230  0.68770  0.56550  Biso   1.000  Cl
  Cl128    1.0000 0.31230  0.31230  0.43450  Biso   1.000  Cl
  Cl129    1.0000 0.56550  0.68770  0.31230  Biso   1.000  Cl
  Cl130    1.0000 0.43450  0.68770  0.68770  Biso   1.000  Cl
  Cl131    1.0000 0.56550  0.31230  0.68770  Biso   1.000  Cl
  Cl132    1.0000 0.43450  0.31230  0.31230  Biso   1.000  Cl
  Cl133    1.0000 0.81230  0.06550  0.18770  Biso   1.000  Cl
  Cl134    1.0000 0.18770  0.93450  0.18770  Biso   1.000  Cl
  Cl135    1.0000 0.18770  0.06550  0.81230  Biso   1.000  Cl
  Cl136    1.0000 0.81230  0.93450  0.81230  Biso   1.000  Cl
  Cl137    1.0000 0.18770  0.81230  0.06550  Biso   1.000  Cl
  Cl138    1.0000 0.18770  0.18770  0.93450  Biso   1.000  Cl
  Cl139    1.0000 0.81230  0.18770  0.06550  Biso   1.000  Cl
  Cl140    1.0000 0.81230  0.81230  0.93450  Biso   1.000  Cl
  Cl141    1.0000 0.06550  0.18770  0.81230  Biso   1.000  Cl
  Cl142    1.0000 0.93450  0.18770  0.18770  Biso   1.000  Cl
  Cl143    1.0000 0.06550  0.81230  0.18770  Biso   1.000  Cl
  Cl144    1.0000 0.93450  0.81230  0.81230  Biso   1.000  Cl
  Cl145    1.0000 0.03710  0.53060  0.96290  Biso   1.000  Cl
  Cl146    1.0000 0.96290  0.46940  0.96290  Biso   1.000  Cl
  Cl147    1.0000 0.96290  0.53060  0.03710  Biso   1.000  Cl
  Cl148    1.0000 0.03710  0.46940  0.03710  Biso   1.000  Cl
  Cl149    1.0000 0.96290  0.03710  0.53060  Biso   1.000  Cl
  Cl150    1.0000 0.96290  0.96290  0.46940  Biso   1.000  Cl
  Cl151    1.0000 0.03710  0.96290  0.53060  Biso   1.000  Cl
  Cl152    1.0000 0.03710  0.03710  0.46940  Biso   1.000  Cl
  Cl153    1.0000 0.53060  0.96290  0.03710  Biso   1.000  Cl
  Cl154    1.0000 0.46940  0.96290  0.96290  Biso   1.000  Cl
  Cl155    1.0000 0.53060  0.03710  0.96290  Biso   1.000  Cl
  Cl156    1.0000 0.46940  0.03710  0.03710  Biso   1.000  Cl
  Cl157    1.0000 0.53710  0.03060  0.46290  Biso   1.000  Cl
  Cl158    1.0000 0.46290  0.96940  0.46290  Biso   1.000  Cl
  Cl159    1.0000 0.46290  0.03060  0.53710  Biso   1.000  Cl
  Cl160    1.0000 0.53710  0.96940  0.53710  Biso   1.000  Cl
  Cl161    1.0000 0.46290  0.53710  0.03060  Biso   1.000  Cl
  Cl162    1.0000 0.46290  0.46290  0.96940  Biso   1.000  Cl
  Cl163    1.0000 0.53710  0.46290  0.03060  Biso   1.000  Cl
  Cl164    1.0000 0.53710  0.53710  0.96940  Biso   1.000  Cl
  Cl165    1.0000 0.03060  0.46290  0.53710  Biso   1.000  Cl
  Cl166    1.0000 0.96940  0.46290  0.46290  Biso   1.000  Cl
  Cl167    1.0000 0.03060  0.53710  0.46290  Biso   1.000  Cl
  Cl168    1.0000 0.96940  0.53710  0.53710  Biso   1.000  Cl
