data_image0
_cell_length_a       19.3956
_cell_length_b       20.5548
_cell_length_c       22.1639
_cell_angle_alpha    99.668
_cell_angle_beta     114.706
_cell_angle_gamma    91.687

_symmetry_space_group_name_H-M    "P 1"
_symmetry_int_tables_number       1

loop_
  _symmetry_equiv_pos_as_xyz
  'x, y, z'

loop_
  _atom_site_label
  _atom_site_occupancy
  _atom_site_fract_x
  _atom_site_fract_y
  _atom_site_fract_z
  _atom_site_thermal_displace_type
  _atom_site_B_iso_or_equiv
  _atom_site_type_symbol
  C1       1.0000 0.68620  0.74000  0.38020  Biso   1.000  C
  C2       1.0000 0.31380  0.26000  0.61980  Biso   1.000  C
  H1       1.0000 0.73590  0.76320  0.40560  Biso   1.000  H
  H2       1.0000 0.26410  0.23680  0.59440  Biso   1.000  H
  C3       1.0000 0.65220  0.73520  0.31100  Biso   1.000  C
  C4       1.0000 0.34780  0.26480  0.68900  Biso   1.000  C
  H3       1.0000 0.67850  0.75430  0.28940  Biso   1.000  H
  H4       1.0000 0.32150  0.24570  0.71060  Biso   1.000  H
  C5       1.0000 0.54330  0.67600  0.30720  Biso   1.000  C
  C6       1.0000 0.45670  0.32400  0.69280  Biso   1.000  C
  H5       1.0000 0.49300  0.65370  0.28310  Biso   1.000  H
  H6       1.0000 0.50700  0.34630  0.71690  Biso   1.000  H
  C7       1.0000 0.58100  0.68210  0.37660  Biso   1.000  C
  C8       1.0000 0.41900  0.31790  0.62340  Biso   1.000  C
  H7       1.0000 0.55570  0.66340  0.39930  Biso   1.000  H
  H8       1.0000 0.44430  0.33660  0.60070  Biso   1.000  H
  C9       1.0000 0.57910  0.70230  0.27310  Biso   1.000  C
  C10      1.0000 0.42090  0.29770  0.72690  Biso   1.000  C
  C11      1.0000 0.54360  0.69270  0.19740  Biso   1.000  C
  C12      1.0000 0.45640  0.30730  0.80260  Biso   1.000  C
  H9       1.0000 0.55220  0.73450  0.18370  Biso   1.000  H
  H10      1.0000 0.44780  0.26550  0.81630  Biso   1.000  H
  H11      1.0000 0.48780  0.68040  0.17910  Biso   1.000  H
  H12      1.0000 0.51220  0.31960  0.82090  Biso   1.000  H
  C13      1.0000 0.57960  0.63740  0.16870  Biso   1.000  C
  C14      1.0000 0.42040  0.36260  0.83130  Biso   1.000  C
  H13      1.0000 0.63520  0.65060  0.18700  Biso   1.000  H
  H14      1.0000 0.36480  0.34940  0.81300  Biso   1.000  H
  H15      1.0000 0.57260  0.59650  0.18440  Biso   1.000  H
  H16      1.0000 0.42740  0.40350  0.81560  Biso   1.000  H
  C15      1.0000 0.54680  0.62270  0.09370  Biso   1.000  C
  C16      1.0000 0.45320  0.37730  0.90630  Biso   1.000  C
  C17      1.0000 0.48130  0.57810  0.05480  Biso   1.000  C
  C18      1.0000 0.51870  0.42190  0.94520  Biso   1.000  C
  H17      1.0000 0.45760  0.55520  0.07620  Biso   1.000  H
  H18      1.0000 0.54240  0.44480  0.92380  Biso   1.000  H
  C19      1.0000 0.45080  0.56740  0.98460  Biso   1.000  C
  C20      1.0000 0.54920  0.43260  0.01540  Biso   1.000  C
  H19      1.0000 0.40570  0.53750  0.95910  Biso   1.000  H
  H20      1.0000 0.59430  0.46250  0.04090  Biso   1.000  H
  C21      1.0000 0.57860  0.65310  0.05850  Biso   1.000  C
  C22      1.0000 0.42140  0.34690  0.94150  Biso   1.000  C
  H21      1.0000 0.62330  0.68380  0.08270  Biso   1.000  H
  H22      1.0000 0.37670  0.31620  0.91730  Biso   1.000  H
  C23      1.0000 0.54580  0.63910  0.98840  Biso   1.000  C
  C24      1.0000 0.45420  0.36090  0.01160  Biso   1.000  C
  H23      1.0000 0.56960  0.66010  0.96590  Biso   1.000  H
  H24      1.0000 0.43040  0.33990  0.03410  Biso   1.000  H
  C25      1.0000 0.30360  0.54070  0.84030  Biso   1.000  C
  C26      1.0000 0.69640  0.45930  0.15970  Biso   1.000  C
  C27      1.0000 0.24290  0.49790  0.84550  Biso   1.000  C
  C28      1.0000 0.75710  0.50210  0.15450  Biso   1.000  C
  C29      1.0000 0.25530  0.43480  0.85970  Biso   1.000  C
  C30      1.0000 0.74470  0.56520  0.14030  Biso   1.000  C
  H25      1.0000 0.30190  0.41800  0.86440  Biso   1.000  H
  H26      1.0000 0.69810  0.58200  0.13560  Biso   1.000  H
  C31      1.0000 0.20120  0.39630  0.86730  Biso   1.000  C
  C32      1.0000 0.79880  0.60370  0.13270  Biso   1.000  C
  H27      1.0000 0.21070  0.35340  0.87730  Biso   1.000  H
  H28      1.0000 0.78930  0.64660  0.12270  Biso   1.000  H
  C33      1.0000 0.13270  0.42070  0.86010  Biso   1.000  C
  C34      1.0000 0.86730  0.57930  0.13990  Biso   1.000  C
  H29      1.0000 0.09530  0.39450  0.86550  Biso   1.000  H
  H30      1.0000 0.90470  0.60550  0.13450  Biso   1.000  H
  C35      1.0000 0.11900  0.48280  0.84530  Biso   1.000  C
  C36      1.0000 0.88100  0.51720  0.15470  Biso   1.000  C
  C37      1.0000 0.04460  0.50930  0.83800  Biso   1.000  C
  C38      1.0000 0.95540  0.49070  0.16200  Biso   1.000  C
  C39      1.0000 0.17440  0.52180  0.83810  Biso   1.000  C
  C40      1.0000 0.82560  0.47820  0.16190  Biso   1.000  C
  H31      1.0000 0.16500  0.56480  0.82810  Biso   1.000  H
  H32      1.0000 0.83500  0.43520  0.17190  Biso   1.000  H
  C41      1.0000 0.55730  0.61530  0.84180  Biso   1.000  C
  C42      1.0000 0.44270  0.38470  0.15820  Biso   1.000  C
  C43      1.0000 0.61890  0.65010  0.82980  Biso   1.000  C
  C44      1.0000 0.38110  0.34990  0.17020  Biso   1.000  C
  C45      1.0000 0.60970  0.71020  0.80970  Biso   1.000  C
  C46      1.0000 0.39030  0.28980  0.19030  Biso   1.000  C
  H33      1.0000 0.56450  0.73050  0.80380  Biso   1.000  H
  H34      1.0000 0.43550  0.26950  0.19620  Biso   1.000  H
  C47      1.0000 0.66660  0.74160  0.79800  Biso   1.000  C
  C48      1.0000 0.33340  0.25840  0.20200  Biso   1.000  C
  H35      1.0000 0.66000  0.78310  0.78390  Biso   1.000  H
  H36      1.0000 0.34000  0.21690  0.21610  Biso   1.000  H
  C49      1.0000 0.73200  0.71240  0.80690  Biso   1.000  C
  C50      1.0000 0.26800  0.28760  0.19310  Biso   1.000  C
  H37      1.0000 0.77060  0.73340  0.79850  Biso   1.000  H
  H38      1.0000 0.22940  0.26660  0.20150  Biso   1.000  H
  C51      1.0000 0.74180  0.65130  0.82840  Biso   1.000  C
  C52      1.0000 0.25820  0.34870  0.17160  Biso   1.000  C
  C53      1.0000 0.68490  0.62000  0.83860  Biso   1.000  C
  C54      1.0000 0.31510  0.38000  0.16140  Biso   1.000  C
  H39      1.0000 0.69070  0.57790  0.85150  Biso   1.000  H
  H40      1.0000 0.30930  0.42210  0.14850  Biso   1.000  H
  C55      1.0000 0.81310  0.61770  0.83720  Biso   1.000  C
  C56      1.0000 0.18690  0.38230  0.16280  Biso   1.000  C
  C57      1.0000 0.40410  0.51050  0.70810  Biso   1.000  C
  C58      1.0000 0.59590  0.48950  0.29190  Biso   1.000  C
  H41      1.0000 0.44500  0.48640  0.73090  Biso   1.000  H
  H42      1.0000 0.55500  0.51360  0.26910  Biso   1.000  H
  C59      1.0000 0.36370  0.49180  0.63900  Biso   1.000  C
  C60      1.0000 0.63630  0.50820  0.36100  Biso   1.000  C
  H43      1.0000 0.37690  0.45520  0.61510  Biso   1.000  H
  H44      1.0000 0.62310  0.54480  0.38490  Biso   1.000  H
  C61      1.0000 0.33230  0.59750  0.71120  Biso   1.000  C
  C62      1.0000 0.66770  0.40250  0.28880  Biso   1.000  C
  H45      1.0000 0.32170  0.63500  0.73610  Biso   1.000  H
  H46      1.0000 0.67830  0.36500  0.26390  Biso   1.000  H
  C63      1.0000 0.29010  0.58140  0.64180  Biso   1.000  C
  C64      1.0000 0.70990  0.41860  0.35820  Biso   1.000  C
  H47      1.0000 0.25170  0.60800  0.61970  Biso   1.000  H
  H48      1.0000 0.74830  0.39200  0.38030  Biso   1.000  H
  C65      1.0000 0.30410  0.52570  0.60420  Biso   1.000  C
  C66      1.0000 0.69590  0.47430  0.39580  Biso   1.000  C
  C67      1.0000 0.25360  0.50220  0.53000  Biso   1.000  C
  C68      1.0000 0.74640  0.49780  0.47000  Biso   1.000  C
  H49      1.0000 0.19990  0.50580  0.52220  Biso   1.000  H
  H50      1.0000 0.80010  0.49420  0.47780  Biso   1.000  H
  H51      1.0000 0.25860  0.45460  0.51720  Biso   1.000  H
  H52      1.0000 0.74140  0.54540  0.48280  Biso   1.000  H
  C69      1.0000 0.27100  0.54050  0.48300  Biso   1.000  C
  C70      1.0000 0.72900  0.45950  0.51700  Biso   1.000  C
  H53      1.0000 0.26180  0.58750  0.49200  Biso   1.000  H
  H54      1.0000 0.73820  0.41250  0.50800  Biso   1.000  H
  H55      1.0000 0.32510  0.53910  0.49110  Biso   1.000  H
  H56      1.0000 0.67490  0.46090  0.50890  Biso   1.000  H
  C71      1.0000 0.21900  0.50780  0.41100  Biso   1.000  C
  C72      1.0000 0.78100  0.49220  0.58900  Biso   1.000  C
  C73      1.0000 0.14370  0.51810  0.38010  Biso   1.000  C
  C74      1.0000 0.85630  0.48190  0.61990  Biso   1.000  C
  H57      1.0000 0.12340  0.54880  0.40370  Biso   1.000  H
  H58      1.0000 0.87660  0.45120  0.59630  Biso   1.000  H
  C75      1.0000 0.09660  0.48430  0.31490  Biso   1.000  C
  C76      1.0000 0.90340  0.51570  0.68510  Biso   1.000  C
  H59      1.0000 0.04480  0.49290  0.29510  Biso   1.000  H
  H60      1.0000 0.95520  0.50710  0.70490  Biso   1.000  H
  C77      1.0000 0.24420  0.46200  0.37400  Biso   1.000  C
  C78      1.0000 0.75580  0.53800  0.62600  Biso   1.000  C
  H61      1.0000 0.29600  0.45310  0.39290  Biso   1.000  H
  H62      1.0000 0.70400  0.54690  0.60710  Biso   1.000  H
  C79      1.0000 0.19450  0.42880  0.30970  Biso   1.000  C
  C80      1.0000 0.80550  0.57120  0.69030  Biso   1.000  C
  H63      1.0000 0.21330  0.39640  0.28610  Biso   1.000  H
  H64      1.0000 0.78670  0.60360  0.71390  Biso   1.000  H
  C81      1.0000 0.02720  0.68640  0.95660  Biso   1.000  C
  C82      1.0000 0.97280  0.31360  0.04340  Biso   1.000  C
  C83      1.0000 0.04670  0.70820  0.02530  Biso   1.000  C
  C84      1.0000 0.95330  0.29180  0.97470  Biso   1.000  C
  H65      1.0000 0.07070  0.75210  0.04720  Biso   1.000  H
  H66      1.0000 0.92930  0.24790  0.95280  Biso   1.000  H
  C85      1.0000 0.98050  0.58350  0.96040  Biso   1.000  C
  C86      1.0000 0.01950  0.41650  0.03960  Biso   1.000  C
  H67      1.0000 0.95850  0.53930  0.93780  Biso   1.000  H
  H68      1.0000 0.04150  0.46070  0.06220  Biso   1.000  H
  C87      1.0000 0.99760  0.60220  0.02840  Biso   1.000  C
  C88      1.0000 0.00240  0.39780  0.97160  Biso   1.000  C
  C89      1.0000 0.03090  0.66590  0.06220  Biso   1.000  C
  C90      1.0000 0.96910  0.33410  0.93780  Biso   1.000  C
  C91      1.0000 0.04810  0.69080  0.13570  Biso   1.000  C
  C92      1.0000 0.95190  0.30920  0.86430  Biso   1.000  C
  C93      1.0000 0.11450  0.65870  0.18290  Biso   1.000  C
  C94      1.0000 0.88550  0.34130  0.81710  Biso   1.000  C
  H69      1.0000 0.10150  0.60990  0.17180  Biso   1.000  H
  H70      1.0000 0.89850  0.39010  0.82820  Biso   1.000  H
  H71      1.0000 0.16070  0.66850  0.17610  Biso   1.000  H
  H72      1.0000 0.83930  0.33150  0.82390  Biso   1.000  H
  C95      1.0000 0.13060  0.68440  0.25550  Biso   1.000  C
  C96      1.0000 0.86940  0.31560  0.74450  Biso   1.000  C
  C97      1.0000 0.17990  0.74150  0.29110  Biso   1.000  C
  C98      1.0000 0.82010  0.25850  0.70890  Biso   1.000  C
  H73      1.0000 0.20410  0.76420  0.26990  Biso   1.000  H
  H74      1.0000 0.79590  0.23580  0.73010  Biso   1.000  H
  C99      1.0000 0.19390  0.76550  0.35770  Biso   1.000  C
  C100     1.0000 0.80610  0.23450  0.64230  Biso   1.000  C
  H75      1.0000 0.22830  0.80460  0.38160  Biso   1.000  H
  H76      1.0000 0.77170  0.19540  0.61840  Biso   1.000  H
  C101     1.0000 0.11120  0.68150  0.35470  Biso   1.000  C
  C102     1.0000 0.88880  0.31850  0.64530  Biso   1.000  C
  H77      1.0000 0.08610  0.66060  0.37620  Biso   1.000  H
  H78      1.0000 0.91390  0.33940  0.62380  Biso   1.000  H
  C103     1.0000 0.09500  0.65480  0.28790  Biso   1.000  C
  C104     1.0000 0.90500  0.34520  0.71210  Biso   1.000  C
  H79      1.0000 0.05960  0.61620  0.26450  Biso   1.000  H
  H80      1.0000 0.94040  0.38380  0.73550  Biso   1.000  H
  C105     1.0000 0.34150  0.78550  0.49970  Biso   1.000  C
  C106     1.0000 0.65850  0.21450  0.50030  Biso   1.000  C
  C107     1.0000 0.40000  0.82610  0.48870  Biso   1.000  C
  C108     1.0000 0.60000  0.17390  0.51130  Biso   1.000  C
  C109     1.0000 0.38440  0.88550  0.46760  Biso   1.000  C
  C110     1.0000 0.61560  0.11450  0.53240  Biso   1.000  C
  H81      1.0000 0.33690  0.90160  0.46100  Biso   1.000  H
  H82      1.0000 0.66310  0.09840  0.53900  Biso   1.000  H
  C111     1.0000 0.43730  0.92220  0.45580  Biso   1.000  C
  C112     1.0000 0.56270  0.07780  0.54420  Biso   1.000  C
  H83      1.0000 0.42580  0.96280  0.44070  Biso   1.000  H
  H84      1.0000 0.57420  0.03720  0.55930  Biso   1.000  H
  C113     1.0000 0.50710  0.89870  0.46640  Biso   1.000  C
  C114     1.0000 0.49290  0.10130  0.53360  Biso   1.000  C
  H85      1.0000 0.54400  0.92380  0.45920  Biso   1.000  H
  H86      1.0000 0.45600  0.07620  0.54080  Biso   1.000  H
  C115     1.0000 0.52320  0.83900  0.48720  Biso   1.000  C
  C116     1.0000 0.47680  0.16100  0.51280  Biso   1.000  C
  C117     1.0000 0.46990  0.80260  0.49855  Biso   1.000  C
  C118     1.0000 0.53010  0.19740  0.50145  Biso   1.000  C
  H87      1.0000 0.48110  0.76170  0.51310  Biso   1.000  H
  H88      1.0000 0.51890  0.23830  0.48690  Biso   1.000  H
  C119     1.0000 0.10260  0.67380  0.50770  Biso   1.000  C
  C120     1.0000 0.89740  0.32620  0.49230  Biso   1.000  C
  C121     1.0000 0.03460  0.65210  0.51970  Biso   1.000  C
  C122     1.0000 0.96540  0.34790  0.48030  Biso   1.000  C
  C123     1.0000 0.97580  0.69180  0.51160  Biso   1.000  C
  C124     1.0000 0.02420  0.30820  0.48840  Biso   1.000  C
  H89      1.0000 0.97720  0.73300  0.49780  Biso   1.000  H
  H90      1.0000 0.02280  0.26700  0.50220  Biso   1.000  H
  C125     1.0000 0.91440  0.67050  0.52390  Biso   1.000  C
  C126     1.0000 0.08560  0.32950  0.47610  Biso   1.000  C
  C127     1.0000 0.91360  0.61190  0.54560  Biso   1.000  C
  C128     1.0000 0.08640  0.38810  0.45440  Biso   1.000  C
  H91      1.0000 0.87230  0.59820  0.55470  Biso   1.000  H
  H92      1.0000 0.12770  0.40180  0.44530  Biso   1.000  H
  C129     1.0000 0.97250  0.57260  0.55440  Biso   1.000  C
  C130     1.0000 0.02750  0.42740  0.44560  Biso   1.000  C
  H93      1.0000 0.97160  0.53210  0.56940  Biso   1.000  H
  H94      1.0000 0.02840  0.46790  0.43060  Biso   1.000  H
  C131     1.0000 0.03320  0.59270  0.54090  Biso   1.000  C
  C132     1.0000 0.96680  0.40730  0.45910  Biso   1.000  C
  H95      1.0000 0.07340  0.56570  0.54640  Biso   1.000  H
  H96      1.0000 0.92660  0.43430  0.45360  Biso   1.000  H
  C133     1.0000 0.21700  0.83430  0.62710  Biso   1.000  C
  C134     1.0000 0.78300  0.16570  0.37290  Biso   1.000  C
  H97      1.0000 0.17550  0.85730  0.60320  Biso   1.000  H
  H98      1.0000 0.82450  0.14270  0.39680  Biso   1.000  H
  C135     1.0000 0.25370  0.85230  0.69680  Biso   1.000  C
  C136     1.0000 0.74630  0.14770  0.30320  Biso   1.000  C
  H99      1.0000 0.23670  0.88660  0.71980  Biso   1.000  H
  H100     1.0000 0.76330  0.11340  0.28020  Biso   1.000  H
  C137     1.0000 0.33470  0.76930  0.69600  Biso   1.000  C
  C138     1.0000 0.66530  0.23070  0.30400  Biso   1.000  C
  H101     1.0000 0.37540  0.74490  0.71860  Biso   1.000  H
  H102     1.0000 0.62460  0.25510  0.28140  Biso   1.000  H
  C139     1.0000 0.29570  0.75340  0.62690  Biso   1.000  C
  C140     1.0000 0.70430  0.24660  0.37310  Biso   1.000  C
  H103     1.0000 0.31030  0.71810  0.60290  Biso   1.000  H
  H104     1.0000 0.68970  0.28190  0.39710  Biso   1.000  H
  C141     1.0000 0.31550  0.82060  0.73350  Biso   1.000  C
  C142     1.0000 0.68450  0.17940  0.26650  Biso   1.000  C
  C143     1.0000 0.35810  0.84420  0.80880  Biso   1.000  C
  C144     1.0000 0.64190  0.15580  0.19120  Biso   1.000  C
  H105     1.0000 0.37940  0.89100  0.81760  Biso   1.000  H
  H106     1.0000 0.62060  0.10900  0.18240  Biso   1.000  H
  H107     1.0000 0.32110  0.84350  0.82880  Biso   1.000  H
  H108     1.0000 0.67890  0.15650  0.17120  Biso   1.000  H
  C145     1.0000 0.42160  0.80580  0.84480  Biso   1.000  C
  C146     1.0000 0.57840  0.19420  0.15520  Biso   1.000  C
  H109     1.0000 0.45630  0.80290  0.82220  Biso   1.000  H
  H110     1.0000 0.54370  0.19710  0.17780  Biso   1.000  H
  H111     1.0000 0.39980  0.76000  0.83990  Biso   1.000  H
  H112     1.0000 0.60020  0.24000  0.16010  Biso   1.000  H
  C147     1.0000 0.46840  0.83440  0.91960  Biso   1.000  C
  C148     1.0000 0.53160  0.16560  0.08040  Biso   1.000  C
  C149     1.0000 0.45430  0.89270  0.95250  Biso   1.000  C
  C150     1.0000 0.54570  0.10730  0.04750  Biso   1.000  C
  H113     1.0000 0.41290  0.91580  0.92850  Biso   1.000  H
  H114     1.0000 0.58710  0.08420  0.07150  Biso   1.000  H
  C151     1.0000 0.50070  0.91680  0.02020  Biso   1.000  C
  C152     1.0000 0.49930  0.08320  0.97980  Biso   1.000  C
  H115     1.0000 0.49100  0.95730  0.04160  Biso   1.000  H
  H116     1.0000 0.50900  0.04270  0.95840  Biso   1.000  H
  C153     1.0000 0.52880  0.80300  0.95790  Biso   1.000  C
  C154     1.0000 0.47120  0.19700  0.04210  Biso   1.000  C
  H117     1.0000 0.54040  0.76300  0.93750  Biso   1.000  H
  H118     1.0000 0.45960  0.23700  0.06250  Biso   1.000  H
  C155     1.0000 0.57250  0.82940  0.02570  Biso   1.000  C
  C156     1.0000 0.42750  0.17060  0.97430  Biso   1.000  C
  H119     1.0000 0.61370  0.80680  0.05110  Biso   1.000  H
  H120     1.0000 0.38630  0.19320  0.94890  Biso   1.000  H
  C157     1.0000 0.73170  0.82870  0.17930  Biso   1.000  C
  C158     1.0000 0.26830  0.17130  0.82070  Biso   1.000  C
  C159     1.0000 0.81400  0.81720  0.19420  Biso   1.000  C
  C160     1.0000 0.18600  0.18280  0.80580  Biso   1.000  C
  C161     1.0000 0.86060  0.86170  0.18220  Biso   1.000  C
  C162     1.0000 0.13940  0.13830  0.81780  Biso   1.000  C
  H121     1.0000 0.84120  0.90000  0.16510  Biso   1.000  H
  H122     1.0000 0.15880  0.10000  0.83490  Biso   1.000  H
  C163     1.0000 0.93580  0.84980  0.19540  Biso   1.000  C
  C164     1.0000 0.06420  0.15020  0.80460  Biso   1.000  C
  C165     1.0000 0.96340  0.79450  0.22090  Biso   1.000  C
  C166     1.0000 0.03660  0.20550  0.77910  Biso   1.000  C
  H123     1.0000 0.01420  0.78600  0.22940  Biso   1.000  H
  H124     1.0000 0.98580  0.21400  0.77060  Biso   1.000  H
  C167     1.0000 0.91800  0.75100  0.23440  Biso   1.000  C
  C168     1.0000 0.08200  0.24900  0.76560  Biso   1.000  C
  H125     1.0000 0.93810  0.71360  0.25310  Biso   1.000  H
  H126     1.0000 0.06190  0.28640  0.74690  Biso   1.000  H
  C169     1.0000 0.84260  0.76250  0.22040  Biso   1.000  C
  C170     1.0000 0.15740  0.23750  0.77960  Biso   1.000  C
  H127     1.0000 0.81110  0.73250  0.22880  Biso   1.000  H
  H128     1.0000 0.18890  0.26750  0.77120  Biso   1.000  H
  C171     1.0000 0.71190  0.99670  0.09810  Biso   1.000  C
  C172     1.0000 0.28810  0.00330  0.90190  Biso   1.000  C
  H129     1.0000 0.68140  0.96210  0.06100  Biso   1.000  H
  H130     1.0000 0.31860  0.03790  0.93900  Biso   1.000  H
  C173     1.0000 0.79570  0.00080  0.04330  Biso   1.000  C
  C174     1.0000 0.20430  0.99920  0.95670  Biso   1.000  C
  H131     1.0000 0.84780  0.98830  0.06170  Biso   1.000  H
  H132     1.0000 0.15220  0.01170  0.93830  Biso   1.000  H
  H133     1.0000 0.79350  0.03760  0.01980  Biso   1.000  H
  H134     1.0000 0.20650  0.96240  0.98020  Biso   1.000  H
  H135     1.0000 0.76050  0.96270  0.01130  Biso   1.000  H
  H136     1.0000 0.23950  0.03730  0.98870  Biso   1.000  H
  C175     1.0000 0.82710  0.07160  0.15300  Biso   1.000  C
  C176     1.0000 0.17290  0.92840  0.84700  Biso   1.000  C
  H137     1.0000 0.87920  0.05930  0.16640  Biso   1.000  H
  H138     1.0000 0.12080  0.94070  0.83360  Biso   1.000  H
  H139     1.0000 0.81420  0.07520  0.19160  Biso   1.000  H
  H140     1.0000 0.18580  0.92480  0.80840  Biso   1.000  H
  H141     1.0000 0.82400  0.11440  0.13860  Biso   1.000  H
  H142     1.0000 0.17600  0.88560  0.86140  Biso   1.000  H
  C177     1.0000 0.48410  0.95220  0.15940  Biso   1.000  C
  C178     1.0000 0.51590  0.04780  0.84060  Biso   1.000  C
  C179     1.0000 0.42340  0.99830  0.15160  Biso   1.000  C
  C180     1.0000 0.57660  0.00170  0.84840  Biso   1.000  C
  C181     1.0000 0.43230  0.06000  0.13690  Biso   1.000  C
  C182     1.0000 0.56770  0.94000  0.86310  Biso   1.000  C
  H143     1.0000 0.47700  0.07310  0.13240  Biso   1.000  H
  H144     1.0000 0.52300  0.92690  0.86760  Biso   1.000  H
  C183     1.0000 0.37660  0.10280  0.12880  Biso   1.000  C
  C184     1.0000 0.62340  0.89720  0.87120  Biso   1.000  C
  H145     1.0000 0.38300  0.14500  0.11840  Biso   1.000  H
  H146     1.0000 0.61700  0.85500  0.88160  Biso   1.000  H
  C185     1.0000 0.31140  0.08380  0.13580  Biso   1.000  C
  C186     1.0000 0.68860  0.91620  0.86420  Biso   1.000  C
  H147     1.0000 0.27310  0.11300  0.13020  Biso   1.000  H
  H148     1.0000 0.72690  0.88700  0.86980  Biso   1.000  H
  C187     1.0000 0.30230  0.02250  0.15090  Biso   1.000  C
  C188     1.0000 0.69770  0.97750  0.84910  Biso   1.000  C
  C189     1.0000 0.35720  0.97890  0.15778  Biso   1.000  C
  C190     1.0000 0.64280  0.02110  0.84222  Biso   1.000  C
  H149     1.0000 0.34990  0.93620  0.16660  Biso   1.000  H
  H150     1.0000 0.65010  0.06380  0.83340  Biso   1.000  H
  C191     1.0000 0.23010  0.00330  0.15850  Biso   1.000  C
  C192     1.0000 0.76990  0.99670  0.84150  Biso   1.000  C
  C193     1.0000 0.77090  0.00170  0.68750  Biso   1.000  C
  C194     1.0000 0.22910  0.99830  0.31250  Biso   1.000  C
  H151     1.0000 0.75170  0.97910  0.71220  Biso   1.000  H
  H152     1.0000 0.24830  0.02090  0.28780  Biso   1.000  H
  C195     1.0000 0.73970  0.98120  0.61800  Biso   1.000  C
  C196     1.0000 0.26030  0.01880  0.38200  Biso   1.000  C
  H153     1.0000 0.70090  0.94470  0.59610  Biso   1.000  H
  H154     1.0000 0.29910  0.05530  0.40390  Biso   1.000  H
  C197     1.0000 0.85230  0.08320  0.68630  Biso   1.000  C
  C198     1.0000 0.14770  0.91680  0.31370  Biso   1.000  C
  H155     1.0000 0.89190  0.11890  0.70980  Biso   1.000  H
  H156     1.0000 0.10810  0.88110  0.29020  Biso   1.000  H
  C199     1.0000 0.82380  0.06630  0.61660  Biso   1.000  C
  C200     1.0000 0.17620  0.93370  0.38340  Biso   1.000  C
  H157     1.0000 0.84380  0.09020  0.59320  Biso   1.000  H
  H158     1.0000 0.15620  0.90980  0.40680  Biso   1.000  H
  C201     1.0000 0.76570  0.01440  0.58050  Biso   1.000  C
  C202     1.0000 0.23430  0.98560  0.41950  Biso   1.000  C
  C203     1.0000 0.73190  0.99760  0.50460  Biso   1.000  C
  C204     1.0000 0.26810  0.00240  0.49540  Biso   1.000  C
  H159     1.0000 0.72860  0.03940  0.48730  Biso   1.000  H
  H160     1.0000 0.27140  0.96060  0.51270  Biso   1.000  H
  H161     1.0000 0.67930  0.97570  0.48740  Biso   1.000  H
  H162     1.0000 0.32070  0.02430  0.51260  Biso   1.000  H
  C205     1.0000 0.77690  0.95230  0.47610  Biso   1.000  C
  C206     1.0000 0.22310  0.04770  0.52390  Biso   1.000  C
  H163     1.0000 0.83070  0.97200  0.49550  Biso   1.000  H
  H164     1.0000 0.16930  0.02800  0.50450  Biso   1.000  H
  H165     1.0000 0.77610  0.90850  0.48890  Biso   1.000  H
  H166     1.0000 0.22390  0.09150  0.51110  Biso   1.000  H
  C207     1.0000 0.98540  0.89620  0.17920  Biso   1.000  C
  C208     1.0000 0.01460  0.10380  0.82080  Biso   1.000  C
  C209     1.0000 0.00920  0.92450  0.04210  Biso   1.000  C
  C210     1.0000 0.99080  0.07550  0.95790  Biso   1.000  C
  H167     1.0000 0.98510  0.94440  0.06900  Biso   1.000  H
  H168     1.0000 0.01490  0.05560  0.93100  Biso   1.000  H
  C211     1.0000 0.97100  0.91610  0.97270  Biso   1.000  C
  C212     1.0000 0.02900  0.08390  0.02730  Biso   1.000  C
  H169     1.0000 0.92180  0.93060  0.95290  Biso   1.000  H
  H170     1.0000 0.07820  0.06940  0.04710  Biso   1.000  H
  C213     1.0000 0.00360  0.88670  0.93150  Biso   1.000  C
  C214     1.0000 0.99640  0.11330  0.06850  Biso   1.000  C
  C215     1.0000 0.07600  0.86840  0.96380  Biso   1.000  C
  C216     1.0000 0.92400  0.13160  0.03620  Biso   1.000  C
  H171     1.0000 0.10110  0.84850  0.93780  Biso   1.000  H
  H172     1.0000 0.89890  0.15150  0.06220  Biso   1.000  H
  C217     1.0000 0.11210  0.87880  0.03370  Biso   1.000  C
  C218     1.0000 0.88790  0.12120  0.96630  Biso   1.000  C
  H173     1.0000 0.16220  0.86640  0.05470  Biso   1.000  H
  H174     1.0000 0.83780  0.13360  0.94530  Biso   1.000  H
  C219     1.0000 0.96070  0.87300  0.85530  Biso   1.000  C
  C220     1.0000 0.03930  0.12700  0.14470  Biso   1.000  C
  H175     1.0000 0.99500  0.85670  0.83470  Biso   1.000  H
  H176     1.0000 0.00500  0.14330  0.16530  Biso   1.000  H
  H177     1.0000 0.94290  0.91450  0.84000  Biso   1.000  H
  H178     1.0000 0.05710  0.08550  0.16000  Biso   1.000  H
  C221     1.0000 0.89200  0.82090  0.83240  Biso   1.000  C
  C222     1.0000 0.10800  0.17910  0.16760  Biso   1.000  C
  H179     1.0000 0.91040  0.78090  0.85100  Biso   1.000  H
  H180     1.0000 0.08960  0.21910  0.14900  Biso   1.000  H
  H181     1.0000 0.85720  0.83860  0.85190  Biso   1.000  H
  H182     1.0000 0.14280  0.16140  0.14810  Biso   1.000  H
  C223     1.0000 0.84790  0.80080  0.75720  Biso   1.000  C
  C224     1.0000 0.15210  0.19920  0.24280  Biso   1.000  C
  C225     1.0000 0.86640  0.74830  0.72040  Biso   1.000  C
  C226     1.0000 0.13360  0.25170  0.27960  Biso   1.000  C
  H183     1.0000 0.90890  0.72560  0.74290  Biso   1.000  H
  H184     1.0000 0.09110  0.27440  0.25710  Biso   1.000  H
  C227     1.0000 0.78500  0.83160  0.72050  Biso   1.000  C
  C228     1.0000 0.21500  0.16840  0.27950  Biso   1.000  C
  H185     1.0000 0.76960  0.86770  0.74310  Biso   1.000  H
  H186     1.0000 0.23040  0.13230  0.25690  Biso   1.000  H
  C229     1.0000 0.74470  0.80980  0.65120  Biso   1.000  C
  C230     1.0000 0.25530  0.19020  0.34880  Biso   1.000  C
  H187     1.0000 0.70200  0.83160  0.62730  Biso   1.000  H
  H188     1.0000 0.29800  0.16840  0.37270  Biso   1.000  H
  C231     1.0000 0.82360  0.72910  0.65160  Biso   1.000  C
  C232     1.0000 0.17640  0.27090  0.34840  Biso   1.000  C
  H189     1.0000 0.83740  0.69270  0.62790  Biso   1.000  H
  H190     1.0000 0.16260  0.30730  0.37210  Biso   1.000  H
  C233     1.0000 0.58520  0.60440  0.51230  Biso   1.000  C
  C234     1.0000 0.41480  0.39560  0.48770  Biso   1.000  C
  H191     1.0000 0.55050  0.57820  0.47000  Biso   1.000  H
  H192     1.0000 0.44950  0.42180  0.53000  Biso   1.000  H
  C235     1.0000 0.60670  0.66140  0.62480  Biso   1.000  C
  C236     1.0000 0.39330  0.33860  0.37520  Biso   1.000  C
  H193     1.0000 0.60750  0.64030  0.66150  Biso   1.000  H
  H194     1.0000 0.39250  0.35970  0.33850  Biso   1.000  H
  H195     1.0000 0.58520  0.70370  0.62710  Biso   1.000  H
  H196     1.0000 0.41480  0.29630  0.37290  Biso   1.000  H
  H197     1.0000 0.65900  0.66930  0.62950  Biso   1.000  H
  H198     1.0000 0.34100  0.33070  0.37050  Biso   1.000  H
  C237     1.0000 0.48280  0.59450  0.54780  Biso   1.000  C
  C238     1.0000 0.51720  0.40550  0.45220  Biso   1.000  C
  H199     1.0000 0.47520  0.60950  0.58870  Biso   1.000  H
  H200     1.0000 0.52480  0.39050  0.41130  Biso   1.000  H
  H201     1.0000 0.44580  0.61240  0.51020  Biso   1.000  H
  H202     1.0000 0.55420  0.38760  0.48980  Biso   1.000  H
  H203     1.0000 0.47540  0.54590  0.53620  Biso   1.000  H
  H204     1.0000 0.52460  0.45410  0.46380  Biso   1.000  H
  C239     1.0000 0.60040  0.81520  0.49830  Biso   1.000  C
  C240     1.0000 0.39960  0.18480  0.50170  Biso   1.000  C
  C241     1.0000 0.84940  0.71360  0.51330  Biso   1.000  C
  C242     1.0000 0.15060  0.28640  0.48670  Biso   1.000  C
  C243     1.0000 0.38110  0.78630  0.20700  Biso   1.000  C
  C244     1.0000 0.61890  0.21370  0.79300  Biso   1.000  C
  H205     1.0000 0.40970  0.76380  0.24420  Biso   1.000  H
  H206     1.0000 0.59030  0.23620  0.75580  Biso   1.000  H
  H207     1.0000 0.41430  0.82320  0.20720  Biso   1.000  H
  H208     1.0000 0.58570  0.17680  0.79280  Biso   1.000  H
  H209     1.0000 0.36300  0.75470  0.16370  Biso   1.000  H
  H210     1.0000 0.63700  0.24530  0.83630  Biso   1.000  H
  C245     1.0000 0.33170  0.85580  0.27960  Biso   1.000  C
  C246     1.0000 0.66830  0.14420  0.72040  Biso   1.000  C
  H211     1.0000 0.36800  0.89370  0.28670  Biso   1.000  H
  H212     1.0000 0.63200  0.10630  0.71330  Biso   1.000  H
  H213     1.0000 0.35350  0.83180  0.31680  Biso   1.000  H
  H214     1.0000 0.64650  0.16820  0.68320  Biso   1.000  H
  H215     1.0000 0.28400  0.87180  0.27810  Biso   1.000  H
  H216     1.0000 0.71600  0.12820  0.72190  Biso   1.000  H
  C247     1.0000 0.24420  0.79590  0.16700  Biso   1.000  C
  C248     1.0000 0.75580  0.20410  0.83300  Biso   1.000  C
  H217     1.0000 0.24700  0.76400  0.12700  Biso   1.000  H
  H218     1.0000 0.75300  0.23600  0.87300  Biso   1.000  H
  C249     1.0000 0.74040  0.96600  0.29700  Biso   1.000  C
  C250     1.0000 0.25960  0.03400  0.70300  Biso   1.000  C
  H219     1.0000 0.76560  0.98620  0.27490  Biso   1.000  H
  H220     1.0000 0.23440  0.01380  0.72510  Biso   1.000  H
  C251     1.0000 0.77610  0.97340  0.36660  Biso   1.000  C
  C252     1.0000 0.22390  0.02660  0.63340  Biso   1.000  C
  H221     1.0000 0.82440  0.99910  0.39150  Biso   1.000  H
  H222     1.0000 0.17560  0.00090  0.60850  Biso   1.000  H
  C253     1.0000 0.74220  0.94370  0.40030  Biso   1.000  C
  C254     1.0000 0.25780  0.05630  0.59970  Biso   1.000  C
  C255     1.0000 0.67100  0.90700  0.36080  Biso   1.000  C
  C256     1.0000 0.32900  0.09300  0.63920  Biso   1.000  C
  H223     1.0000 0.64550  0.88500  0.38140  Biso   1.000  H
  H224     1.0000 0.35450  0.11500  0.61860  Biso   1.000  H
  C257     1.0000 0.63790  0.90280  0.29170  Biso   1.000  C
  C258     1.0000 0.36210  0.09720  0.70830  Biso   1.000  C
  H225     1.0000 0.58890  0.87850  0.26560  Biso   1.000  H
  H226     1.0000 0.41110  0.12150  0.73440  Biso   1.000  H
  Cu1      1.0000 0.43561  0.57990  0.84730  Biso   1.000  Cu
  Cu2      1.0000 0.56439  0.42010  0.15270  Biso   1.000  Cu
  Cu3      1.0000 0.05536  0.39922  0.17791  Biso   1.000  Cu
  Cu4      1.0000 0.94464  0.60078  0.82209  Biso   1.000  Cu
  Cu5      1.0000 0.19314  0.76740  0.49067  Biso   1.000  Cu
  Cu6      1.0000 0.80686  0.23260  0.50933  Biso   1.000  Cu
  Cu7      1.0000 0.62307  0.92134  0.15821  Biso   1.000  Cu
  Cu8      1.0000 0.37693  0.07866  0.84179  Biso   1.000  Cu
  Cu9      1.0000 0.13083  0.91755  0.17475  Biso   1.000  Cu
  Cu10     1.0000 0.86917  0.08245  0.82525  Biso   1.000  Cu
  Cu11     1.0000 0.70338  0.72655  0.51483  Biso   1.000  Cu
  Cu12     1.0000 0.29662  0.27345  0.48517  Biso   1.000  Cu
  N1       1.0000 0.48177  0.59712  0.95075  Biso   1.000  N
  N2       1.0000 0.51823  0.40288  0.04925  Biso   1.000  N
  N3       1.0000 0.38776  0.56207  0.74478  Biso   1.000  N
  N4       1.0000 0.61224  0.43793  0.25522  Biso   1.000  N
  N5       1.0000 0.12120  0.43998  0.27871  Biso   1.000  N
  N6       1.0000 0.87880  0.56002  0.72129  Biso   1.000  N
  N7       1.0000 0.99376  0.62507  0.92496  Biso   1.000  N
  N8       1.0000 0.00624  0.37493  0.07504  Biso   1.000  N
  N9       1.0000 0.16089  0.73573  0.39022  Biso   1.000  N
  N10      1.0000 0.83911  0.26427  0.60978  Biso   1.000  N
  N11      1.0000 0.23788  0.78558  0.59190  Biso   1.000  N
  N12      1.0000 0.76212  0.21442  0.40810  Biso   1.000  N
  N13      1.0000 0.55867  0.88585  0.05698  Biso   1.000  N
  N14      1.0000 0.44133  0.11415  0.94302  Biso   1.000  N
  N15      1.0000 0.77410  0.02110  0.09740  Biso   1.000  N
  N16      1.0000 0.22590  0.97890  0.90260  Biso   1.000  N
  N17      1.0000 0.67193  0.93163  0.25953  Biso   1.000  N
  N18      1.0000 0.32807  0.06837  0.74047  Biso   1.000  N
  N19      1.0000 0.82657  0.05160  0.72212  Biso   1.000  N
  N20      1.0000 0.17343  0.94840  0.27788  Biso   1.000  N
  N21      1.0000 0.07930  0.90574  0.07337  Biso   1.000  N
  N22      1.0000 0.92070  0.09426  0.92663  Biso   1.000  N
  N23      1.0000 0.76343  0.75918  0.61619  Biso   1.000  N
  N24      1.0000 0.23657  0.24082  0.38381  Biso   1.000  N
  N25      1.0000 0.65192  0.71335  0.41332  Biso   1.000  N
  N26      1.0000 0.34808  0.28665  0.58668  Biso   1.000  N
  N27      1.0000 0.56030  0.61810  0.56010  Biso   1.000  N
  N28      1.0000 0.43970  0.38190  0.43990  Biso   1.000  N
  N29      1.0000 0.31610  0.81160  0.21580  Biso   1.000  N
  N30      1.0000 0.68390  0.18840  0.78420  Biso   1.000  N
  O1       1.0000 0.55888  0.55635  0.84638  Biso   1.000  O
  O2       1.0000 0.44112  0.44365  0.15362  Biso   1.000  O
  O3       1.0000 0.50522  0.65009  0.84590  Biso   1.000  O
  O4       1.0000 0.49478  0.34991  0.15410  Biso   1.000  O
  O5       1.0000 0.36178  0.51093  0.84158  Biso   1.000  O
  O6       1.0000 0.63822  0.48907  0.15842  Biso   1.000  O
  O7       1.0000 0.29740  0.59903  0.83689  Biso   1.000  O
  O8       1.0000 0.70260  0.40097  0.16311  Biso   1.000  O
  O9       1.0000 0.99770  0.47620  0.84860  Biso   1.000  O
  O10      1.0000 0.00230  0.52380  0.15140  Biso   1.000  O
  O11      1.0000 0.81842  0.56268  0.85204  Biso   1.000  O
  O12      1.0000 0.18158  0.43732  0.14796  Biso   1.000  O
  O13      1.0000 0.03474  0.56542  0.82053  Biso   1.000  O
  O14      1.0000 0.96526  0.43458  0.17947  Biso   1.000  O
  O15      1.0000 0.86271  0.65049  0.82575  Biso   1.000  O
  O16      1.0000 0.13729  0.34951  0.17425  Biso   1.000  O
  O17      1.0000 0.28386  0.81704  0.49830  Biso   1.000  O
  O18      1.0000 0.71614  0.18296  0.50170  Biso   1.000  O
  O19      1.0000 0.34978  0.72856  0.50874  Biso   1.000  O
  O20      1.0000 0.65022  0.27144  0.49126  Biso   1.000  O
  O21      1.0000 0.09811  0.72814  0.48539  Biso   1.000  O
  O22      1.0000 0.90189  0.27186  0.51461  Biso   1.000  O
  O23      1.0000 0.15595  0.64018  0.51855  Biso   1.000  O
  O24      1.0000 0.84405  0.35982  0.48145  Biso   1.000  O
  O25      1.0000 0.71061  0.88087  0.15478  Biso   1.000  O
  O26      1.0000 0.28939  0.11913  0.84522  Biso   1.000  O
  O27      1.0000 0.69199  0.78942  0.19061  Biso   1.000  O
  O28      1.0000 0.30801  0.21058  0.80939  Biso   1.000  O
  O29      1.0000 0.47121  0.89300  0.16058  Biso   1.000  O
  O30      1.0000 0.52879  0.10700  0.83942  Biso   1.000  O
  O31      1.0000 0.54710  0.97849  0.16302  Biso   1.000  O
  O32      1.0000 0.45290  0.02151  0.83698  Biso   1.000  O
  O33      1.0000 0.18113  0.04219  0.14903  Biso   1.000  O
  O34      1.0000 0.81887  0.95781  0.85097  Biso   1.000  O
  O35      1.0000 0.22715  0.94786  0.17537  Biso   1.000  O
  O36      1.0000 0.77285  0.05214  0.82463  Biso   1.000  O
  O37      1.0000 0.96953  0.95307  0.17345  Biso   1.000  O
  O38      1.0000 0.03047  0.04693  0.82655  Biso   1.000  O
  O39      1.0000 0.04220  0.87046  0.17327  Biso   1.000  O
  O40      1.0000 0.95780  0.12954  0.82673  Biso   1.000  O
  O41      1.0000 0.64733  0.85027  0.49000  Biso   1.000  O
  O42      1.0000 0.35267  0.14973  0.51000  Biso   1.000  O
  O43      1.0000 0.61076  0.75927  0.51654  Biso   1.000  O
  O44      1.0000 0.38924  0.24073  0.48346  Biso   1.000  O
  O45      1.0000 0.78837  0.68242  0.50966  Biso   1.000  O
  O46      1.0000 0.21163  0.31758  0.49034  Biso   1.000  O
  O47      1.0000 0.85766  0.77236  0.50901  Biso   1.000  O
  O48      1.0000 0.14234  0.22764  0.49099  Biso   1.000  O
  O49      1.0000 0.64849  0.62240  0.51784  Biso   1.000  O
  O50      1.0000 0.35151  0.37760  0.48216  Biso   1.000  O
  O51      1.0000 0.18667  0.81308  0.17083  Biso   1.000  O
  O52      1.0000 0.81333  0.18692  0.82917  Biso   1.000  O
  O53      1.0000 0.68779  0.01308  0.14132  Biso   1.000  O
  O54      1.0000 0.31221  0.98692  0.85868  Biso   1.000  O
  C259     1.0000 0.91570  0.27990  0.17520  Biso   1.000  C
  C260     1.0000 0.08430  0.72010  0.82480  Biso   1.000  C
  H227     1.0000 0.88020  0.25460  0.13280  Biso   1.000  H
  H228     1.0000 0.11980  0.74540  0.86720  Biso   1.000  H
  C261     1.0000 0.81320  0.27740  0.21180  Biso   1.000  C
  C262     1.0000 0.18680  0.72260  0.78820  Biso   1.000  C
  H229     1.0000 0.79040  0.31710  0.22260  Biso   1.000  H
  H230     1.0000 0.20960  0.68290  0.77740  Biso   1.000  H
  H231     1.0000 0.78260  0.25560  0.16440  Biso   1.000  H
  H232     1.0000 0.21740  0.74440  0.83560  Biso   1.000  H
  H233     1.0000 0.81440  0.24670  0.24150  Biso   1.000  H
  H234     1.0000 0.18560  0.75330  0.75850  Biso   1.000  H
  C263     1.0000 0.93830  0.34030  0.28480  Biso   1.000  C
  C264     1.0000 0.06170  0.65970  0.71520  Biso   1.000  C
  H235     1.0000 0.91290  0.37970  0.29100  Biso   1.000  H
  H236     1.0000 0.08710  0.62030  0.70900  Biso   1.000  H
  H237     1.0000 0.94850  0.31730  0.32240  Biso   1.000  H
  H238     1.0000 0.05150  0.68270  0.67760  Biso   1.000  H
  H239     1.0000 0.98660  0.35390  0.28370  Biso   1.000  H
  H240     1.0000 0.01340  0.64610  0.71630  Biso   1.000  H
  N31      1.0000 0.88960  0.29640  0.22170  Biso   1.000  N
  N32      1.0000 0.11040  0.70360  0.77830  Biso   1.000  N
  O55      1.0000 0.97847  0.29313  0.18031  Biso   1.000  O
  O56      1.0000 0.02153  0.70687  0.81969  Biso   1.000  O
  C265     1.0000 0.04820  0.84780  0.44160  Biso   1.000  C
  C266     1.0000 0.95180  0.15220  0.55840  Biso   1.000  C
  H241     1.0000 0.03970  0.81690  0.40150  Biso   1.000  H
  H242     1.0000 0.96030  0.18310  0.59850  Biso   1.000  H
  C267     1.0000 0.99190  0.90180  0.51110  Biso   1.000  C
  C268     1.0000 0.00810  0.09820  0.48890  Biso   1.000  C
  H243     1.0000 0.95800  0.87850  0.52500  Biso   1.000  H
  H244     1.0000 0.04200  0.12150  0.47500  Biso   1.000  H
  H245     1.0000 0.04450  0.90630  0.54610  Biso   1.000  H
  H246     1.0000 0.95550  0.09370  0.45390  Biso   1.000  H
  H247     1.0000 0.97610  0.94600  0.50490  Biso   1.000  H
  H248     1.0000 0.02390  0.05400  0.49510  Biso   1.000  H
  C269     1.0000 0.91110  0.84010  0.39860  Biso   1.000  C
  C270     1.0000 0.08890  0.15990  0.60140  Biso   1.000  C
  H249     1.0000 0.88180  0.87790  0.38700  Biso   1.000  H
  H250     1.0000 0.11820  0.12210  0.61300  Biso   1.000  H
  H251     1.0000 0.91180  0.81400  0.35760  Biso   1.000  H
  H252     1.0000 0.08820  0.18600  0.64240  Biso   1.000  H
  H253     1.0000 0.88720  0.81210  0.41780  Biso   1.000  H
  H254     1.0000 0.11280  0.18790  0.58220  Biso   1.000  H
  N33      1.0000 0.98750  0.86400  0.44710  Biso   1.000  N
  N34      1.0000 0.01250  0.13600  0.55290  Biso   1.000  N
  O57      1.0000 0.11503  0.86568  0.47954  Biso   1.000  O
  O58      1.0000 0.88497  0.13432  0.52046  Biso   1.000  O
  C271     1.0000 0.26400  0.23380  0.99520  Biso   1.000  C
  C272     1.0000 0.73600  0.76620  0.00480  Biso   1.000  C
  H255     1.0000 0.28010  0.19120  0.00140  Biso   1.000  H
  H256     1.0000 0.71990  0.80880  0.99860  Biso   1.000  H
  C273     1.0000 0.15090  0.19260  0.00290  Biso   1.000  C
  C274     1.0000 0.84910  0.80740  0.99710  Biso   1.000  C
  H257     1.0000 0.10120  0.18480  0.96340  Biso   1.000  H
  H258     1.0000 0.89880  0.81520  0.03660  Biso   1.000  H
  H259     1.0000 0.14380  0.20760  0.04400  Biso   1.000  H
  H260     1.0000 0.85620  0.79240  0.95600  Biso   1.000  H
  H261     1.0000 0.17500  0.15130  0.00600  Biso   1.000  H
  H262     1.0000 0.82500  0.84870  0.99400  Biso   1.000  H
  C275     1.0000 0.16660  0.30470  0.98490  Biso   1.000  C
  C276     1.0000 0.83340  0.69530  0.01510  Biso   1.000  C
  H263     1.0000 0.14780  0.32010  0.01890  Biso   1.000  H
  H264     1.0000 0.85220  0.67990  0.98110  Biso   1.000  H
  H265     1.0000 0.12440  0.29800  0.93950  Biso   1.000  H
  H266     1.0000 0.87560  0.70200  0.06050  Biso   1.000  H
  H267     1.0000 0.20630  0.33790  0.98870  Biso   1.000  H
  H268     1.0000 0.79370  0.66210  0.01130  Biso   1.000  H
  N35      1.0000 0.19850  0.24210  0.99600  Biso   1.000  N
  N36      1.0000 0.80150  0.75790  0.00400  Biso   1.000  N
  O59      1.0000 0.30770  0.27090  0.98800  Biso   1.000  O
  O60      1.0000 0.69230  0.72910  0.01200  Biso   1.000  O
  C277     1.0000 0.01990  0.83320  0.66770  Biso   1.000  C
  C278     1.0000 0.98010  0.16680  0.33230  Biso   1.000  C
  H269     1.0000 0.01850  0.81450  0.70510  Biso   1.000  H
  H270     1.0000 0.98150  0.18550  0.29490  Biso   1.000  H
  H271     1.0000 0.07120  0.83260  0.66940  Biso   1.000  H
  H272     1.0000 0.92880  0.16740  0.33060  Biso   1.000  H
  H273     1.0000 0.98270  0.80670  0.62440  Biso   1.000  H
  H274     1.0000 0.01730  0.19330  0.37560  Biso   1.000  H
  C279     1.0000 0.92680  0.91010  0.67110  Biso   1.000  C
  C280     1.0000 0.07320  0.08990  0.32890  Biso   1.000  C
  H275     1.0000 0.88780  0.88820  0.62640  Biso   1.000  H
  H276     1.0000 0.11220  0.11180  0.37360  Biso   1.000  H
  H277     1.0000 0.92090  0.95760  0.67870  Biso   1.000  H
  H278     1.0000 0.07910  0.04240  0.32130  Biso   1.000  H
  H279     1.0000 0.92080  0.89040  0.70610  Biso   1.000  H
  H280     1.0000 0.07920  0.10960  0.29390  Biso   1.000  H
  C281     1.0000 0.04880  0.95170  0.68190  Biso   1.000  C
  C282     1.0000 0.95120  0.04830  0.31810  Biso   1.000  C
  H281     1.0000 0.03350  0.99490  0.68780  Biso   1.000  H
  H282     1.0000 0.96650  0.00510  0.31220  Biso   1.000  H
  N37      1.0000 0.00110  0.90170  0.67410  Biso   1.000  N
  N38      1.0000 0.99890  0.09830  0.32590  Biso   1.000  N
  O61      1.0000 0.11290  0.94760  0.68230  Biso   1.000  O
  O62      1.0000 0.88710  0.05240  0.31770  Biso   1.000  O
  C283     1.0000 0.59310  0.25310  0.96110  Biso   1.000  C
  C284     1.0000 0.40690  0.74690  0.03890  Biso   1.000  C
  H283     1.0000 0.58330  0.28090  0.92710  Biso   1.000  H
  H284     1.0000 0.41670  0.71910  0.07290  Biso   1.000  H
  H285     1.0000 0.57540  0.27310  0.99470  Biso   1.000  H
  H286     1.0000 0.42460  0.72690  0.00530  Biso   1.000  H
  H287     1.0000 0.56570  0.20870  0.93880  Biso   1.000  H
  H288     1.0000 0.43430  0.79130  0.06120  Biso   1.000  H
  C285     1.0000 0.69940  0.18890  0.99550  Biso   1.000  C
  C286     1.0000 0.30060  0.81110  0.00450  Biso   1.000  C
  H289     1.0000 0.66310  0.15080  0.97180  Biso   1.000  H
  H290     1.0000 0.33690  0.84920  0.02820  Biso   1.000  H
  C287     1.0000 0.72440  0.30970  0.02560  Biso   1.000  C
  C288     1.0000 0.27560  0.69030  0.97440  Biso   1.000  C
  H291     1.0000 0.71100  0.33970  0.99330  Biso   1.000  H
  H292     1.0000 0.28900  0.66030  0.00670  Biso   1.000  H
  H293     1.0000 0.77740  0.30050  0.03830  Biso   1.000  H
  H294     1.0000 0.22260  0.69950  0.96170  Biso   1.000  H
  H295     1.0000 0.71870  0.33060  0.06610  Biso   1.000  H
  H296     1.0000 0.28130  0.66940  0.93390  Biso   1.000  H
  N39      1.0000 0.67410  0.24800  0.99440  Biso   1.000  N
  N40      1.0000 0.32590  0.75200  0.00560  Biso   1.000  N
  O63      1.0000 0.76730  0.18020  0.02550  Biso   1.000  O
  O64      1.0000 0.23270  0.81980  0.97450  Biso   1.000  O
  C289     1.0000 0.73380  0.51000  0.96360  Biso   1.000  C
  C290     1.0000 0.26620  0.49000  0.03640  Biso   1.000  C
  H297     1.0000 0.74660  0.50290  0.00950  Biso   1.000  H
  H298     1.0000 0.25340  0.49710  0.99050  Biso   1.000  H
  H299     1.0000 0.68470  0.52840  0.94620  Biso   1.000  H
  H300     1.0000 0.31530  0.47160  0.05380  Biso   1.000  H
  H301     1.0000 0.77370  0.54120  0.96460  Biso   1.000  H
  H302     1.0000 0.22630  0.45880  0.03540  Biso   1.000  H
  C291     1.0000 0.79810  0.41720  0.93330  Biso   1.000  C
  C292     1.0000 0.20190  0.58280  0.06670  Biso   1.000  C
  H303     1.0000 0.83930  0.44250  0.97500  Biso   1.000  H
  H304     1.0000 0.16070  0.55750  0.02500  Biso   1.000  H
  H305     1.0000 0.79060  0.37150  0.93840  Biso   1.000  H
  H306     1.0000 0.20940  0.62850  0.06160  Biso   1.000  H
  H307     1.0000 0.81160  0.41700  0.89530  Biso   1.000  H
  H308     1.0000 0.18840  0.58300  0.10470  Biso   1.000  H
  C293     1.0000 0.66360  0.42210  0.86560  Biso   1.000  C
  C294     1.0000 0.33640  0.57790  0.13440  Biso   1.000  C
  H309     1.0000 0.62120  0.44710  0.85650  Biso   1.000  H
  H310     1.0000 0.37880  0.55290  0.14350  Biso   1.000  H
  N41      1.0000 0.72840  0.44770  0.92010  Biso   1.000  N
  N42      1.0000 0.27160  0.55230  0.07990  Biso   1.000  N
  O65      1.0000 0.65430  0.37020  0.82710  Biso   1.000  O
  O66      1.0000 0.34570  0.62980  0.17290  Biso   1.000  O
  C295     1.0000 0.15290  0.48240  0.65840  Biso   1.000  C
  C296     1.0000 0.84710  0.51760  0.34160  Biso   1.000  C
  H311     1.0000 0.20300  0.50190  0.69430  Biso   1.000  H
  H312     1.0000 0.79700  0.49810  0.30570  Biso   1.000  H
  H313     1.0000 0.11310  0.50720  0.66450  Biso   1.000  H
  H314     1.0000 0.88690  0.49280  0.33550  Biso   1.000  H
  H315     1.0000 0.15150  0.48460  0.61420  Biso   1.000  H
  H316     1.0000 0.84850  0.51540  0.38580  Biso   1.000  H
  C297     1.0000 0.07300  0.39160  0.65900  Biso   1.000  C
  C298     1.0000 0.92700  0.60840  0.34100  Biso   1.000  C
  H317     1.0000 0.06570  0.34590  0.65970  Biso   1.000  H
  H318     1.0000 0.93430  0.65410  0.34030  Biso   1.000  H
  C299     1.0000 0.19840  0.37220  0.66470  Biso   1.000  C
  C300     1.0000 0.80160  0.62780  0.33530  Biso   1.000  C
  H319     1.0000 0.24640  0.39110  0.70380  Biso   1.000  H
  H320     1.0000 0.75360  0.60890  0.29620  Biso   1.000  H
  H321     1.0000 0.20560  0.36880  0.62300  Biso   1.000  H
  H322     1.0000 0.79440  0.63120  0.37700  Biso   1.000  H
  H323     1.0000 0.18340  0.32790  0.66900  Biso   1.000  H
  H324     1.0000 0.81660  0.67210  0.33100  Biso   1.000  H
  N43      1.0000 0.13970  0.41440  0.66190  Biso   1.000  N
  N44      1.0000 0.86030  0.58560  0.33810  Biso   1.000  N
  O67      1.0000 0.02070  0.42440  0.65540  Biso   1.000  O
  O68      1.0000 0.97930  0.57560  0.34460  Biso   1.000  O
  C301     1.0000 0.56290  0.06960  0.33820  Biso   1.000  C
  C302     1.0000 0.43710  0.93040  0.66180  Biso   1.000  C
  H325     1.0000 0.56970  0.07300  0.29740  Biso   1.000  H
  H326     1.0000 0.43030  0.92700  0.70260  Biso   1.000  H
  H327     1.0000 0.56000  0.02290  0.34200  Biso   1.000  H
  H328     1.0000 0.44000  0.97710  0.65800  Biso   1.000  H
  H329     1.0000 0.60630  0.09490  0.37820  Biso   1.000  H
  H330     1.0000 0.39370  0.90510  0.62180  Biso   1.000  H
  C303     1.0000 0.49310  0.16520  0.32290  Biso   1.000  C
  C304     1.0000 0.50690  0.83480  0.67710  Biso   1.000  C
  H331     1.0000 0.53840  0.19300  0.35850  Biso   1.000  H
  H332     1.0000 0.46160  0.80700  0.64150  Biso   1.000  H
  H333     1.0000 0.44710  0.18210  0.32460  Biso   1.000  H
  H334     1.0000 0.55290  0.81790  0.67540  Biso   1.000  H
  H335     1.0000 0.49210  0.16630  0.27860  Biso   1.000  H
  H336     1.0000 0.50790  0.83370  0.72140  Biso   1.000  H
  C305     1.0000 0.43730  0.07100  0.33660  Biso   1.000  C
  C306     1.0000 0.56270  0.92900  0.66340  Biso   1.000  C
  H337     1.0000 0.44060  0.02710  0.34510  Biso   1.000  H
  H338     1.0000 0.55940  0.97290  0.65490  Biso   1.000  H
  N45      1.0000 0.49580  0.09510  0.33390  Biso   1.000  N
  N46      1.0000 0.50420  0.90490  0.66610  Biso   1.000  N
  O69      1.0000 0.37710  0.09180  0.33060  Biso   1.000  O
  O70      1.0000 0.62290  0.90820  0.66940  Biso   1.000  O
  C307     1.0000 0.60810  0.46490  0.68070  Biso   1.000  C
  C308     1.0000 0.39190  0.53510  0.31930  Biso   1.000  C
  H339     1.0000 0.62850  0.50300  0.71610  Biso   1.000  H
  H340     1.0000 0.37150  0.49700  0.28390  Biso   1.000  H
  C309     1.0000 0.62970  0.35980  0.62980  Biso   1.000  C
  C310     1.0000 0.37030  0.64020  0.37020  Biso   1.000  C
  H341     1.0000 0.66100  0.35660  0.60450  Biso   1.000  H
  H342     1.0000 0.33900  0.64340  0.39550  Biso   1.000  H
  H343     1.0000 0.57600  0.35970  0.59850  Biso   1.000  H
  H344     1.0000 0.42400  0.64030  0.40150  Biso   1.000  H
  H345     1.0000 0.63500  0.32170  0.65220  Biso   1.000  H
  H346     1.0000 0.36500  0.67830  0.34780  Biso   1.000  H
  C311     1.0000 0.73210  0.42700  0.73260  Biso   1.000  C
  C312     1.0000 0.26790  0.57300  0.26740  Biso   1.000  C
  H347     1.0000 0.76810  0.42550  0.71200  Biso   1.000  H
  H348     1.0000 0.23190  0.57450  0.28800  Biso   1.000  H
  H349     1.0000 0.73800  0.39060  0.75720  Biso   1.000  H
  H350     1.0000 0.26200  0.60940  0.24280  Biso   1.000  H
  H351     1.0000 0.74230  0.46950  0.76410  Biso   1.000  H
  H352     1.0000 0.25770  0.53050  0.23590  Biso   1.000  H
  N47      1.0000 0.65460  0.42020  0.67990  Biso   1.000  N
  N48      1.0000 0.34540  0.57980  0.32010  Biso   1.000  N
  O71      1.0000 0.54090  0.46260  0.64050  Biso   1.000  O
  O72      1.0000 0.45910  0.53740  0.35950  Biso   1.000  O
