data_image0
_cell_length_a       31.9175
_cell_length_b       16.0167
_cell_length_c       13.8946
_cell_angle_alpha    90
_cell_angle_beta     105.994
_cell_angle_gamma    90

_symmetry_space_group_name_H-M    "P 1"
_symmetry_int_tables_number       1

loop_
  _symmetry_equiv_pos_as_xyz
  'x, y, z'

loop_
  _atom_site_label
  _atom_site_occupancy
  _atom_site_fract_x
  _atom_site_fract_y
  _atom_site_fract_z
  _atom_site_thermal_displace_type
  _atom_site_B_iso_or_equiv
  _atom_site_type_symbol
  Cu1      1.0000 0.16796  0.23514  0.73388  Biso   1.000  Cu
  Cu2      1.0000 0.66796  0.73514  0.73388  Biso   1.000  Cu
  Cu3      1.0000 0.16796  0.76486  0.23388  Biso   1.000  Cu
  Cu4      1.0000 0.66796  0.26486  0.23388  Biso   1.000  Cu
  Cu5      1.0000 0.83204  0.76486  0.26612  Biso   1.000  Cu
  Cu6      1.0000 0.33204  0.26486  0.26612  Biso   1.000  Cu
  Cu7      1.0000 0.83204  0.23514  0.76612  Biso   1.000  Cu
  Cu8      1.0000 0.33204  0.73514  0.76612  Biso   1.000  Cu
  Cu9      1.0000 0.08305  0.26087  0.02411  Biso   1.000  Cu
  Cu10     1.0000 0.58305  0.76087  0.02411  Biso   1.000  Cu
  Cu11     1.0000 0.08305  0.73913  0.52411  Biso   1.000  Cu
  Cu12     1.0000 0.58305  0.23913  0.52411  Biso   1.000  Cu
  Cu13     1.0000 0.91695  0.73913  0.97589  Biso   1.000  Cu
  Cu14     1.0000 0.41695  0.23913  0.97589  Biso   1.000  Cu
  Cu15     1.0000 0.91695  0.26087  0.47589  Biso   1.000  Cu
  Cu16     1.0000 0.41695  0.76087  0.47589  Biso   1.000  Cu
  V1       1.0000 0.24006  0.14049  0.47606  Biso   1.000  V
  V2       1.0000 0.74006  0.64049  0.47606  Biso   1.000  V
  V3       1.0000 0.24006  0.85951  0.97606  Biso   1.000  V
  V4       1.0000 0.74006  0.35951  0.97606  Biso   1.000  V
  V5       1.0000 0.75994  0.85951  0.52394  Biso   1.000  V
  V6       1.0000 0.25994  0.35951  0.52394  Biso   1.000  V
  V7       1.0000 0.75994  0.14049  0.02394  Biso   1.000  V
  V8       1.0000 0.25994  0.64049  0.02394  Biso   1.000  V
  V9       1.0000 0.00000  0.14562  0.25000  Biso   1.000  V
  V10      1.0000 0.50000  0.64562  0.25000  Biso   1.000  V
  V11      1.0000 0.00000  0.85438  0.75000  Biso   1.000  V
  V12      1.0000 0.50000  0.35438  0.75000  Biso   1.000  V
  V13      1.0000 0.00000  0.37580  0.25000  Biso   1.000  V
  V14      1.0000 0.50000  0.87580  0.25000  Biso   1.000  V
  V15      1.0000 0.00000  0.62420  0.75000  Biso   1.000  V
  V16      1.0000 0.50000  0.12420  0.75000  Biso   1.000  V
  V17      1.0000 0.16154  0.24731  0.47741  Biso   1.000  V
  V18      1.0000 0.66154  0.74731  0.47741  Biso   1.000  V
  V19      1.0000 0.16154  0.75269  0.97741  Biso   1.000  V
  V20      1.0000 0.66154  0.25269  0.97741  Biso   1.000  V
  V21      1.0000 0.83846  0.75269  0.52259  Biso   1.000  V
  V22      1.0000 0.33846  0.25269  0.52259  Biso   1.000  V
  V23      1.0000 0.83846  0.24731  0.02259  Biso   1.000  V
  V24      1.0000 0.33846  0.74731  0.02259  Biso   1.000  V
  V25      1.0000 0.08773  0.26703  0.26757  Biso   1.000  V
  V26      1.0000 0.58773  0.76703  0.26757  Biso   1.000  V
  V27      1.0000 0.08773  0.73297  0.76757  Biso   1.000  V
  V28      1.0000 0.58773  0.23297  0.76757  Biso   1.000  V
  V29      1.0000 0.91227  0.73297  0.73243  Biso   1.000  V
  V30      1.0000 0.41227  0.23297  0.73243  Biso   1.000  V
  V31      1.0000 0.91227  0.26703  0.23243  Biso   1.000  V
  V32      1.0000 0.41227  0.76703  0.23243  Biso   1.000  V
  P1       1.0000 0.26085  0.22666  0.69924  Biso   1.000  P
  P2       1.0000 0.76085  0.72666  0.69924  Biso   1.000  P
  P3       1.0000 0.26085  0.77334  0.19924  Biso   1.000  P
  P4       1.0000 0.76085  0.27334  0.19924  Biso   1.000  P
  P5       1.0000 0.73915  0.77334  0.30076  Biso   1.000  P
  P6       1.0000 0.23915  0.27334  0.30076  Biso   1.000  P
  P7       1.0000 0.73915  0.22666  0.80076  Biso   1.000  P
  P8       1.0000 0.23915  0.72666  0.80076  Biso   1.000  P
  P9       1.0000 0.98613  0.25689  0.05043  Biso   1.000  P
  P10      1.0000 0.48613  0.75689  0.05043  Biso   1.000  P
  P11      1.0000 0.98613  0.74311  0.55043  Biso   1.000  P
  P12      1.0000 0.48613  0.24311  0.55043  Biso   1.000  P
  P13      1.0000 0.01387  0.74311  0.94957  Biso   1.000  P
  P14      1.0000 0.51387  0.24311  0.94957  Biso   1.000  P
  P15      1.0000 0.01387  0.25689  0.44957  Biso   1.000  P
  P16      1.0000 0.51387  0.75689  0.44957  Biso   1.000  P
  N1       1.0000 0.16146  0.35704  0.76420  Biso   1.000  N
  N2       1.0000 0.66146  0.85704  0.76420  Biso   1.000  N
  N3       1.0000 0.16146  0.64296  0.26420  Biso   1.000  N
  N4       1.0000 0.66146  0.14296  0.26420  Biso   1.000  N
  N5       1.0000 0.83854  0.64296  0.23580  Biso   1.000  N
  N6       1.0000 0.33854  0.14296  0.23580  Biso   1.000  N
  N7       1.0000 0.83854  0.35704  0.73580  Biso   1.000  N
  N8       1.0000 0.33854  0.85704  0.73580  Biso   1.000  N
  N9       1.0000 0.10928  0.23536  0.75009  Biso   1.000  N
  N10      1.0000 0.60928  0.73536  0.75009  Biso   1.000  N
  N11      1.0000 0.10928  0.76464  0.25009  Biso   1.000  N
  N12      1.0000 0.60928  0.26464  0.25009  Biso   1.000  N
  N13      1.0000 0.89072  0.76464  0.24991  Biso   1.000  N
  N14      1.0000 0.39072  0.26464  0.24991  Biso   1.000  N
  N15      1.0000 0.89072  0.23536  0.74991  Biso   1.000  N
  N16      1.0000 0.39072  0.73536  0.74991  Biso   1.000  N
  N17      1.0000 0.15665  0.11122  0.73446  Biso   1.000  N
  N18      1.0000 0.65665  0.61122  0.73446  Biso   1.000  N
  N19      1.0000 0.15665  0.88878  0.23446  Biso   1.000  N
  N20      1.0000 0.65665  0.38878  0.23446  Biso   1.000  N
  N21      1.0000 0.84335  0.88878  0.26554  Biso   1.000  N
  N22      1.0000 0.34335  0.38878  0.26554  Biso   1.000  N
  N23      1.0000 0.84335  0.11122  0.76554  Biso   1.000  N
  N24      1.0000 0.34335  0.61122  0.76554  Biso   1.000  N
  N25      1.0000 0.08807  0.13807  0.99634  Biso   1.000  N
  N26      1.0000 0.58807  0.63807  0.99634  Biso   1.000  N
  N27      1.0000 0.08807  0.86193  0.49634  Biso   1.000  N
  N28      1.0000 0.58807  0.36193  0.49634  Biso   1.000  N
  N29      1.0000 0.91193  0.86193  0.00366  Biso   1.000  N
  N30      1.0000 0.41193  0.36193  0.00366  Biso   1.000  N
  N31      1.0000 0.91193  0.13807  0.50366  Biso   1.000  N
  N32      1.0000 0.41193  0.63807  0.50366  Biso   1.000  N
  N33      1.0000 0.14130  0.25751  0.00599  Biso   1.000  N
  N34      1.0000 0.64130  0.75751  0.00599  Biso   1.000  N
  N35      1.0000 0.14130  0.74249  0.50599  Biso   1.000  N
  N36      1.0000 0.64130  0.24249  0.50599  Biso   1.000  N
  N37      1.0000 0.85870  0.74249  0.99401  Biso   1.000  N
  N38      1.0000 0.35870  0.24249  0.99401  Biso   1.000  N
  N39      1.0000 0.85870  0.25751  0.49401  Biso   1.000  N
  N40      1.0000 0.35870  0.75751  0.49401  Biso   1.000  N
  N41      1.0000 0.09598  0.38371  0.02365  Biso   1.000  N
  N42      1.0000 0.59598  0.88371  0.02365  Biso   1.000  N
  N43      1.0000 0.09598  0.61629  0.52365  Biso   1.000  N
  N44      1.0000 0.59598  0.11629  0.52365  Biso   1.000  N
  N45      1.0000 0.90402  0.61629  0.97635  Biso   1.000  N
  N46      1.0000 0.40402  0.11629  0.97635  Biso   1.000  N
  N47      1.0000 0.90402  0.38371  0.47635  Biso   1.000  N
  N48      1.0000 0.40402  0.88371  0.47635  Biso   1.000  N
  O1       1.0000 0.22968  0.23330  0.76395  Biso   1.000  O
  O2       1.0000 0.72968  0.73330  0.76395  Biso   1.000  O
  O3       1.0000 0.22968  0.76670  0.26395  Biso   1.000  O
  O4       1.0000 0.72968  0.26670  0.26395  Biso   1.000  O
  O5       1.0000 0.77032  0.76670  0.23605  Biso   1.000  O
  O6       1.0000 0.27032  0.26670  0.23605  Biso   1.000  O
  O7       1.0000 0.77032  0.23330  0.73605  Biso   1.000  O
  O8       1.0000 0.27032  0.73330  0.73605  Biso   1.000  O
  O9       1.0000 0.30423  0.19149  0.77144  Biso   1.000  O
  O10      1.0000 0.80423  0.69149  0.77144  Biso   1.000  O
  O11      1.0000 0.30423  0.80851  0.27144  Biso   1.000  O
  O12      1.0000 0.80423  0.30851  0.27144  Biso   1.000  O
  O13      1.0000 0.69577  0.80851  0.22856  Biso   1.000  O
  O14      1.0000 0.19577  0.30851  0.22856  Biso   1.000  O
  O15      1.0000 0.69577  0.19149  0.72856  Biso   1.000  O
  O16      1.0000 0.19577  0.69149  0.72856  Biso   1.000  O
  H1       1.0000 0.32280  0.22990  0.78630  Biso   1.000  H
  H2       1.0000 0.82280  0.72990  0.78630  Biso   1.000  H
  H3       1.0000 0.32280  0.77010  0.28630  Biso   1.000  H
  H4       1.0000 0.82280  0.27010  0.28630  Biso   1.000  H
  H5       1.0000 0.67720  0.77010  0.21370  Biso   1.000  H
  H6       1.0000 0.17720  0.27010  0.21370  Biso   1.000  H
  H7       1.0000 0.67720  0.22990  0.71370  Biso   1.000  H
  H8       1.0000 0.17720  0.72990  0.71370  Biso   1.000  H
  O17      1.0000 0.27016  0.31022  0.65909  Biso   1.000  O
  O18      1.0000 0.77016  0.81022  0.65909  Biso   1.000  O
  O19      1.0000 0.27016  0.68978  0.15909  Biso   1.000  O
  O20      1.0000 0.77016  0.18978  0.15909  Biso   1.000  O
  O21      1.0000 0.72984  0.68978  0.34091  Biso   1.000  O
  O22      1.0000 0.22984  0.18978  0.34091  Biso   1.000  O
  O23      1.0000 0.72984  0.31022  0.84091  Biso   1.000  O
  O24      1.0000 0.22984  0.81022  0.84091  Biso   1.000  O
  O25      1.0000 0.17633  0.15599  0.45359  Biso   1.000  O
  O26      1.0000 0.67633  0.65599  0.45359  Biso   1.000  O
  O27      1.0000 0.17633  0.84401  0.95359  Biso   1.000  O
  O28      1.0000 0.67633  0.34401  0.95359  Biso   1.000  O
  O29      1.0000 0.82367  0.84401  0.54641  Biso   1.000  O
  O30      1.0000 0.32367  0.34401  0.54641  Biso   1.000  O
  O31      1.0000 0.82367  0.15599  0.04641  Biso   1.000  O
  O32      1.0000 0.32367  0.65599  0.04641  Biso   1.000  O
  O33      1.0000 0.24420  0.16040  0.61827  Biso   1.000  O
  O34      1.0000 0.74420  0.66040  0.61827  Biso   1.000  O
  O35      1.0000 0.24420  0.83960  0.11827  Biso   1.000  O
  O36      1.0000 0.74420  0.33960  0.11827  Biso   1.000  O
  O37      1.0000 0.75580  0.83960  0.38173  Biso   1.000  O
  O38      1.0000 0.25580  0.33960  0.38173  Biso   1.000  O
  O39      1.0000 0.75580  0.16040  0.88173  Biso   1.000  O
  O40      1.0000 0.25580  0.66040  0.88173  Biso   1.000  O
  O41      1.0000 0.24521  0.04196  0.46542  Biso   1.000  O
  O42      1.0000 0.74521  0.54196  0.46542  Biso   1.000  O
  O43      1.0000 0.24521  0.95804  0.96542  Biso   1.000  O
  O44      1.0000 0.74521  0.45804  0.96542  Biso   1.000  O
  O45      1.0000 0.75479  0.95804  0.53458  Biso   1.000  O
  O46      1.0000 0.25479  0.45804  0.53458  Biso   1.000  O
  O47      1.0000 0.75479  0.04196  0.03458  Biso   1.000  O
  O48      1.0000 0.25479  0.54196  0.03458  Biso   1.000  O
  O49      1.0000 0.20249  0.30899  0.49680  Biso   1.000  O
  O50      1.0000 0.70249  0.80899  0.49680  Biso   1.000  O
  O51      1.0000 0.20249  0.69101  0.99680  Biso   1.000  O
  O52      1.0000 0.70249  0.19101  0.99680  Biso   1.000  O
  O53      1.0000 0.79751  0.69101  0.50320  Biso   1.000  O
  O54      1.0000 0.29751  0.19101  0.50320  Biso   1.000  O
  O55      1.0000 0.79751  0.30899  0.00320  Biso   1.000  O
  O56      1.0000 0.29751  0.80899  0.00320  Biso   1.000  O
  O57      1.0000 0.14108  0.24622  0.56975  Biso   1.000  O
  O58      1.0000 0.64108  0.74622  0.56975  Biso   1.000  O
  O59      1.0000 0.14108  0.75378  0.06975  Biso   1.000  O
  O60      1.0000 0.64108  0.25378  0.06975  Biso   1.000  O
  O61      1.0000 0.85892  0.75378  0.43025  Biso   1.000  O
  O62      1.0000 0.35892  0.25378  0.43025  Biso   1.000  O
  O63      1.0000 0.85892  0.24622  0.93025  Biso   1.000  O
  O64      1.0000 0.35892  0.74622  0.93025  Biso   1.000  O
  O65      1.0000 0.12291  0.28569  0.38020  Biso   1.000  O
  O66      1.0000 0.62291  0.78569  0.38020  Biso   1.000  O
  O67      1.0000 0.12291  0.71431  0.88020  Biso   1.000  O
  O68      1.0000 0.62291  0.21431  0.88020  Biso   1.000  O
  O69      1.0000 0.87709  0.71431  0.61980  Biso   1.000  O
  O70      1.0000 0.37709  0.21431  0.61980  Biso   1.000  O
  O71      1.0000 0.87709  0.28569  0.11980  Biso   1.000  O
  O72      1.0000 0.37709  0.78569  0.11980  Biso   1.000  O
  O73      1.0000 0.05950  0.18492  0.27260  Biso   1.000  O
  O74      1.0000 0.55950  0.68492  0.27260  Biso   1.000  O
  O75      1.0000 0.05950  0.81508  0.77260  Biso   1.000  O
  O76      1.0000 0.55950  0.31508  0.77260  Biso   1.000  O
  O77      1.0000 0.94050  0.81508  0.72740  Biso   1.000  O
  O78      1.0000 0.44050  0.31508  0.72740  Biso   1.000  O
  O79      1.0000 0.94050  0.18492  0.22740  Biso   1.000  O
  O80      1.0000 0.44050  0.68492  0.22740  Biso   1.000  O
  O81      1.0000 0.00000  0.04562  0.25000  Biso   1.000  O
  O82      1.0000 0.50000  0.54562  0.25000  Biso   1.000  O
  O83      1.0000 0.00000  0.95438  0.75000  Biso   1.000  O
  O84      1.0000 0.50000  0.45438  0.75000  Biso   1.000  O
  O85      1.0000 0.99265  0.17501  0.10780  Biso   1.000  O
  O86      1.0000 0.49265  0.67501  0.10780  Biso   1.000  O
  O87      1.0000 0.99265  0.82499  0.60780  Biso   1.000  O
  O88      1.0000 0.49265  0.32499  0.60780  Biso   1.000  O
  O89      1.0000 0.00735  0.82499  0.89220  Biso   1.000  O
  O90      1.0000 0.50735  0.32499  0.89220  Biso   1.000  O
  O91      1.0000 0.00735  0.17501  0.39220  Biso   1.000  O
  O92      1.0000 0.50735  0.67501  0.39220  Biso   1.000  O
  O93      1.0000 0.11511  0.25291  0.18939  Biso   1.000  O
  O94      1.0000 0.61511  0.75291  0.18939  Biso   1.000  O
  O95      1.0000 0.11511  0.74709  0.68939  Biso   1.000  O
  O96      1.0000 0.61511  0.24709  0.68939  Biso   1.000  O
  O97      1.0000 0.88489  0.74709  0.81061  Biso   1.000  O
  O98      1.0000 0.38489  0.24709  0.81061  Biso   1.000  O
  O99      1.0000 0.88489  0.25291  0.31061  Biso   1.000  O
  O100     1.0000 0.38489  0.75291  0.31061  Biso   1.000  O
  O101     1.0000 0.05772  0.34817  0.23510  Biso   1.000  O
  O102     1.0000 0.55772  0.84817  0.23510  Biso   1.000  O
  O103     1.0000 0.05772  0.65183  0.73510  Biso   1.000  O
  O104     1.0000 0.55772  0.15183  0.73510  Biso   1.000  O
  O105     1.0000 0.94228  0.65183  0.76490  Biso   1.000  O
  O106     1.0000 0.44228  0.15183  0.76490  Biso   1.000  O
  O107     1.0000 0.94228  0.34817  0.26490  Biso   1.000  O
  O108     1.0000 0.44228  0.84817  0.26490  Biso   1.000  O
  O109     1.0000 0.00000  0.47560  0.25000  Biso   1.000  O
  O110     1.0000 0.50000  0.97560  0.25000  Biso   1.000  O
  O111     1.0000 0.00000  0.52440  0.75000  Biso   1.000  O
  O112     1.0000 0.50000  0.02440  0.75000  Biso   1.000  O
  O113     1.0000 0.97832  0.32887  0.11522  Biso   1.000  O
  O114     1.0000 0.47832  0.82887  0.11522  Biso   1.000  O
  O115     1.0000 0.97832  0.67113  0.61522  Biso   1.000  O
  O116     1.0000 0.47832  0.17113  0.61522  Biso   1.000  O
  O117     1.0000 0.02168  0.67113  0.88478  Biso   1.000  O
  O118     1.0000 0.52168  0.17113  0.88478  Biso   1.000  O
  O119     1.0000 0.02168  0.32887  0.38478  Biso   1.000  O
  O120     1.0000 0.52168  0.82887  0.38478  Biso   1.000  O
  O121     1.0000 0.94450  0.25050  0.95823  Biso   1.000  O
  O122     1.0000 0.44450  0.75050  0.95823  Biso   1.000  O
  O123     1.0000 0.94450  0.74950  0.45823  Biso   1.000  O
  O124     1.0000 0.44450  0.24950  0.45823  Biso   1.000  O
  O125     1.0000 0.05550  0.74950  0.04177  Biso   1.000  O
  O126     1.0000 0.55550  0.24950  0.04177  Biso   1.000  O
  O127     1.0000 0.05550  0.25050  0.54177  Biso   1.000  O
  O128     1.0000 0.55550  0.75050  0.54177  Biso   1.000  O
  H9       1.0000 0.92210  0.24690  0.97880  Biso   1.000  H
  H10      1.0000 0.42210  0.74690  0.97880  Biso   1.000  H
  H11      1.0000 0.92210  0.75310  0.47880  Biso   1.000  H
  H12      1.0000 0.42210  0.25310  0.47880  Biso   1.000  H
  H13      1.0000 0.07790  0.75310  0.02120  Biso   1.000  H
  H14      1.0000 0.57790  0.25310  0.02120  Biso   1.000  H
  H15      1.0000 0.07790  0.24690  0.52120  Biso   1.000  H
  H16      1.0000 0.57790  0.74690  0.52120  Biso   1.000  H
  O129     1.0000 0.02187  0.27190  0.00060  Biso   1.000  O
  O130     1.0000 0.52187  0.77190  0.00060  Biso   1.000  O
  O131     1.0000 0.02187  0.72810  0.50060  Biso   1.000  O
  O132     1.0000 0.52187  0.22810  0.50060  Biso   1.000  O
  O133     1.0000 0.97813  0.72810  0.99940  Biso   1.000  O
  O134     1.0000 0.47813  0.22810  0.99940  Biso   1.000  O
  O135     1.0000 0.97813  0.27190  0.49940  Biso   1.000  O
  O136     1.0000 0.47813  0.77190  0.49940  Biso   1.000  O
  C1       1.0000 0.19267  0.41452  0.77570  Biso   1.000  C
  C2       1.0000 0.69267  0.91452  0.77570  Biso   1.000  C
  C3       1.0000 0.19267  0.58548  0.27570  Biso   1.000  C
  C4       1.0000 0.69267  0.08548  0.27570  Biso   1.000  C
  C5       1.0000 0.80733  0.58548  0.22430  Biso   1.000  C
  C6       1.0000 0.30733  0.08548  0.22430  Biso   1.000  C
  C7       1.0000 0.80733  0.41452  0.72430  Biso   1.000  C
  C8       1.0000 0.30733  0.91452  0.72430  Biso   1.000  C
  H17      1.0000 0.22050  0.39840  0.76980  Biso   1.000  H
  H18      1.0000 0.72050  0.89840  0.76980  Biso   1.000  H
  H19      1.0000 0.22050  0.60160  0.26980  Biso   1.000  H
  H20      1.0000 0.72050  0.10160  0.26980  Biso   1.000  H
  H21      1.0000 0.77950  0.60160  0.23020  Biso   1.000  H
  H22      1.0000 0.27950  0.10160  0.23020  Biso   1.000  H
  H23      1.0000 0.77950  0.39840  0.73020  Biso   1.000  H
  H24      1.0000 0.27950  0.89840  0.73020  Biso   1.000  H
  C9       1.0000 0.18550  0.49773  0.79590  Biso   1.000  C
  C10      1.0000 0.68550  0.99773  0.79590  Biso   1.000  C
  C11      1.0000 0.18550  0.50227  0.29590  Biso   1.000  C
  C12      1.0000 0.68550  0.00227  0.29590  Biso   1.000  C
  C13      1.0000 0.81450  0.50227  0.20410  Biso   1.000  C
  C14      1.0000 0.31450  0.00227  0.20410  Biso   1.000  C
  C15      1.0000 0.81450  0.49773  0.70410  Biso   1.000  C
  C16      1.0000 0.31450  0.99773  0.70410  Biso   1.000  C
  H25      1.0000 0.20840  0.53750  0.80610  Biso   1.000  H
  H26      1.0000 0.70840  0.03750  0.80610  Biso   1.000  H
  H27      1.0000 0.20840  0.46250  0.30610  Biso   1.000  H
  H28      1.0000 0.70840  0.96250  0.30610  Biso   1.000  H
  H29      1.0000 0.79160  0.46250  0.19390  Biso   1.000  H
  H30      1.0000 0.29160  0.96250  0.19390  Biso   1.000  H
  H31      1.0000 0.79160  0.53750  0.69390  Biso   1.000  H
  H32      1.0000 0.29160  0.03750  0.69390  Biso   1.000  H
  C17      1.0000 0.14442  0.52127  0.80100  Biso   1.000  C
  C18      1.0000 0.64442  0.02127  0.80100  Biso   1.000  C
  C19      1.0000 0.14442  0.47873  0.30100  Biso   1.000  C
  C20      1.0000 0.64442  0.97873  0.30100  Biso   1.000  C
  C21      1.0000 0.85558  0.47873  0.19900  Biso   1.000  C
  C22      1.0000 0.35558  0.97873  0.19900  Biso   1.000  C
  C23      1.0000 0.85558  0.52127  0.69900  Biso   1.000  C
  C24      1.0000 0.35558  0.02127  0.69900  Biso   1.000  C
  H33      1.0000 0.13870  0.57780  0.81390  Biso   1.000  H
  H34      1.0000 0.63870  0.07780  0.81390  Biso   1.000  H
  H35      1.0000 0.13870  0.42220  0.31390  Biso   1.000  H
  H36      1.0000 0.63870  0.92220  0.31390  Biso   1.000  H
  H37      1.0000 0.86130  0.42220  0.18610  Biso   1.000  H
  H38      1.0000 0.36130  0.92220  0.18610  Biso   1.000  H
  H39      1.0000 0.86130  0.57780  0.68610  Biso   1.000  H
  H40      1.0000 0.36130  0.07780  0.68610  Biso   1.000  H
  C25      1.0000 0.11140  0.46162  0.78710  Biso   1.000  C
  C26      1.0000 0.61140  0.96162  0.78710  Biso   1.000  C
  C27      1.0000 0.11140  0.53838  0.28710  Biso   1.000  C
  C28      1.0000 0.61140  0.03838  0.28710  Biso   1.000  C
  C29      1.0000 0.88860  0.53838  0.21290  Biso   1.000  C
  C30      1.0000 0.38860  0.03838  0.21290  Biso   1.000  C
  C31      1.0000 0.88860  0.46162  0.71290  Biso   1.000  C
  C32      1.0000 0.38860  0.96162  0.71290  Biso   1.000  C
  H41      1.0000 0.08290  0.47690  0.78890  Biso   1.000  H
  H42      1.0000 0.58290  0.97690  0.78890  Biso   1.000  H
  H43      1.0000 0.08290  0.52310  0.28890  Biso   1.000  H
  H44      1.0000 0.58290  0.02310  0.28890  Biso   1.000  H
  H45      1.0000 0.91710  0.52310  0.21110  Biso   1.000  H
  H46      1.0000 0.41710  0.02310  0.21110  Biso   1.000  H
  H47      1.0000 0.91710  0.47690  0.71110  Biso   1.000  H
  H48      1.0000 0.41710  0.97690  0.71110  Biso   1.000  H
  C33      1.0000 0.12132  0.37954  0.77070  Biso   1.000  C
  C34      1.0000 0.62132  0.87954  0.77070  Biso   1.000  C
  C35      1.0000 0.12132  0.62046  0.27070  Biso   1.000  C
  C36      1.0000 0.62132  0.12046  0.27070  Biso   1.000  C
  C37      1.0000 0.87868  0.62046  0.22930  Biso   1.000  C
  C38      1.0000 0.37868  0.12046  0.22930  Biso   1.000  C
  C39      1.0000 0.87868  0.37954  0.72930  Biso   1.000  C
  C40      1.0000 0.37868  0.87954  0.72930  Biso   1.000  C
  C41      1.0000 0.09078  0.30849  0.76090  Biso   1.000  C
  C42      1.0000 0.59078  0.80849  0.76090  Biso   1.000  C
  C43      1.0000 0.09078  0.69151  0.26090  Biso   1.000  C
  C44      1.0000 0.59078  0.19151  0.26090  Biso   1.000  C
  C45      1.0000 0.90922  0.69151  0.23910  Biso   1.000  C
  C46      1.0000 0.40922  0.19151  0.23910  Biso   1.000  C
  C47      1.0000 0.90922  0.30849  0.73910  Biso   1.000  C
  C48      1.0000 0.40922  0.80849  0.73910  Biso   1.000  C
  C49      1.0000 0.04722  0.31100  0.76250  Biso   1.000  C
  C50      1.0000 0.54722  0.81100  0.76250  Biso   1.000  C
  C51      1.0000 0.04722  0.68900  0.26250  Biso   1.000  C
  C52      1.0000 0.54722  0.18900  0.26250  Biso   1.000  C
  C53      1.0000 0.95278  0.68900  0.23750  Biso   1.000  C
  C54      1.0000 0.45278  0.18900  0.23750  Biso   1.000  C
  C55      1.0000 0.95278  0.31100  0.73750  Biso   1.000  C
  C56      1.0000 0.45278  0.81100  0.73750  Biso   1.000  C
  H49      1.0000 0.03400  0.36240  0.77180  Biso   1.000  H
  H50      1.0000 0.53400  0.86240  0.77180  Biso   1.000  H
  H51      1.0000 0.03400  0.63760  0.27180  Biso   1.000  H
  H52      1.0000 0.53400  0.13760  0.27180  Biso   1.000  H
  H53      1.0000 0.96600  0.63760  0.22820  Biso   1.000  H
  H54      1.0000 0.46600  0.13760  0.22820  Biso   1.000  H
  H55      1.0000 0.96600  0.36240  0.72820  Biso   1.000  H
  H56      1.0000 0.46600  0.86240  0.72820  Biso   1.000  H
  C57      1.0000 0.02322  0.23646  0.75020  Biso   1.000  C
  C58      1.0000 0.52322  0.73646  0.75020  Biso   1.000  C
  C59      1.0000 0.02322  0.76354  0.25020  Biso   1.000  C
  C60      1.0000 0.52322  0.26354  0.25020  Biso   1.000  C
  C61      1.0000 0.97678  0.76354  0.24980  Biso   1.000  C
  C62      1.0000 0.47678  0.26354  0.24980  Biso   1.000  C
  C63      1.0000 0.97678  0.23646  0.74980  Biso   1.000  C
  C64      1.0000 0.47678  0.73646  0.74980  Biso   1.000  C
  C65      1.0000 0.04390  0.16148  0.73850  Biso   1.000  C
  C66      1.0000 0.54390  0.66148  0.73850  Biso   1.000  C
  C67      1.0000 0.04390  0.83852  0.23850  Biso   1.000  C
  C68      1.0000 0.54390  0.33852  0.23850  Biso   1.000  C
  C69      1.0000 0.95610  0.83852  0.26150  Biso   1.000  C
  C70      1.0000 0.45610  0.33852  0.26150  Biso   1.000  C
  C71      1.0000 0.95610  0.16148  0.76150  Biso   1.000  C
  C72      1.0000 0.45610  0.66148  0.76150  Biso   1.000  C
  H57      1.0000 0.02840  0.11020  0.73020  Biso   1.000  H
  H58      1.0000 0.52840  0.61020  0.73020  Biso   1.000  H
  H59      1.0000 0.02840  0.88980  0.23020  Biso   1.000  H
  H60      1.0000 0.52840  0.38980  0.23020  Biso   1.000  H
  H61      1.0000 0.97160  0.88980  0.26980  Biso   1.000  H
  H62      1.0000 0.47160  0.38980  0.26980  Biso   1.000  H
  H63      1.0000 0.97160  0.11020  0.76980  Biso   1.000  H
  H64      1.0000 0.47160  0.61020  0.76980  Biso   1.000  H
  C73      1.0000 0.08752  0.16353  0.73920  Biso   1.000  C
  C74      1.0000 0.58752  0.66353  0.73920  Biso   1.000  C
  C75      1.0000 0.08752  0.83647  0.23920  Biso   1.000  C
  C76      1.0000 0.58752  0.33647  0.23920  Biso   1.000  C
  C77      1.0000 0.91248  0.83647  0.26080  Biso   1.000  C
  C78      1.0000 0.41248  0.33647  0.26080  Biso   1.000  C
  C79      1.0000 0.91248  0.16353  0.76080  Biso   1.000  C
  C80      1.0000 0.41248  0.66353  0.76080  Biso   1.000  C
  C81      1.0000 0.11505  0.09080  0.73160  Biso   1.000  C
  C82      1.0000 0.61505  0.59080  0.73160  Biso   1.000  C
  C83      1.0000 0.11505  0.90920  0.23160  Biso   1.000  C
  C84      1.0000 0.61505  0.40920  0.23160  Biso   1.000  C
  C85      1.0000 0.88495  0.90920  0.26840  Biso   1.000  C
  C86      1.0000 0.38495  0.40920  0.26840  Biso   1.000  C
  C87      1.0000 0.88495  0.09080  0.76840  Biso   1.000  C
  C88      1.0000 0.38495  0.59080  0.76840  Biso   1.000  C
  C89      1.0000 0.10145  0.00807  0.72600  Biso   1.000  C
  C90      1.0000 0.60145  0.50807  0.72600  Biso   1.000  C
  C91      1.0000 0.10145  0.99193  0.22600  Biso   1.000  C
  C92      1.0000 0.60145  0.49193  0.22600  Biso   1.000  C
  C93      1.0000 0.89855  0.99193  0.27400  Biso   1.000  C
  C94      1.0000 0.39855  0.49193  0.27400  Biso   1.000  C
  C95      1.0000 0.89855  0.00807  0.77400  Biso   1.000  C
  C96      1.0000 0.39855  0.50807  0.77400  Biso   1.000  C
  H65      1.0000 0.07200  0.99460  0.72200  Biso   1.000  H
  H66      1.0000 0.57200  0.49460  0.72200  Biso   1.000  H
  H67      1.0000 0.07200  0.00540  0.22200  Biso   1.000  H
  H68      1.0000 0.57200  0.50540  0.22200  Biso   1.000  H
  H69      1.0000 0.92800  0.00540  0.27800  Biso   1.000  H
  H70      1.0000 0.42800  0.50540  0.27800  Biso   1.000  H
  H71      1.0000 0.92800  0.99460  0.77800  Biso   1.000  H
  H72      1.0000 0.42800  0.49460  0.77800  Biso   1.000  H
  C97      1.0000 0.13159  0.94564  0.72640  Biso   1.000  C
  C98      1.0000 0.63159  0.44564  0.72640  Biso   1.000  C
  C99      1.0000 0.13159  0.05436  0.22640  Biso   1.000  C
  C100     1.0000 0.63159  0.55436  0.22640  Biso   1.000  C
  C101     1.0000 0.86841  0.05436  0.27360  Biso   1.000  C
  C102     1.0000 0.36841  0.55436  0.27360  Biso   1.000  C
  C103     1.0000 0.86841  0.94564  0.77360  Biso   1.000  C
  C104     1.0000 0.36841  0.44564  0.77360  Biso   1.000  C
  H73      1.0000 0.12310  0.88860  0.72380  Biso   1.000  H
  H74      1.0000 0.62310  0.38860  0.72380  Biso   1.000  H
  H75      1.0000 0.12310  0.11140  0.22380  Biso   1.000  H
  H76      1.0000 0.62310  0.61140  0.22380  Biso   1.000  H
  H77      1.0000 0.87690  0.11140  0.27620  Biso   1.000  H
  H78      1.0000 0.37690  0.61140  0.27620  Biso   1.000  H
  H79      1.0000 0.87690  0.88860  0.77620  Biso   1.000  H
  H80      1.0000 0.37690  0.38860  0.77620  Biso   1.000  H
  C105     1.0000 0.17408  0.96694  0.73080  Biso   1.000  C
  C106     1.0000 0.67408  0.46694  0.73080  Biso   1.000  C
  C107     1.0000 0.17408  0.03306  0.23080  Biso   1.000  C
  C108     1.0000 0.67408  0.53306  0.23080  Biso   1.000  C
  C109     1.0000 0.82592  0.03306  0.26920  Biso   1.000  C
  C110     1.0000 0.32592  0.53306  0.26920  Biso   1.000  C
  C111     1.0000 0.82592  0.96694  0.76920  Biso   1.000  C
  C112     1.0000 0.32592  0.46694  0.76920  Biso   1.000  C
  H81      1.0000 0.19510  0.92480  0.73160  Biso   1.000  H
  H82      1.0000 0.69510  0.42480  0.73160  Biso   1.000  H
  H83      1.0000 0.19510  0.07520  0.23160  Biso   1.000  H
  H84      1.0000 0.69510  0.57520  0.23160  Biso   1.000  H
  H85      1.0000 0.80490  0.07520  0.26840  Biso   1.000  H
  H86      1.0000 0.30490  0.57520  0.26840  Biso   1.000  H
  H87      1.0000 0.80490  0.92480  0.76840  Biso   1.000  H
  H88      1.0000 0.30490  0.42480  0.76840  Biso   1.000  H
  C113     1.0000 0.18553  0.05088  0.73390  Biso   1.000  C
  C114     1.0000 0.68553  0.55088  0.73390  Biso   1.000  C
  C115     1.0000 0.18553  0.94912  0.23390  Biso   1.000  C
  C116     1.0000 0.68553  0.44912  0.23390  Biso   1.000  C
  C117     1.0000 0.81447  0.94912  0.26610  Biso   1.000  C
  C118     1.0000 0.31447  0.44912  0.26610  Biso   1.000  C
  C119     1.0000 0.81447  0.05088  0.76610  Biso   1.000  C
  C120     1.0000 0.31447  0.55088  0.76610  Biso   1.000  C
  H89      1.0000 0.21460  0.06570  0.73570  Biso   1.000  H
  H90      1.0000 0.71460  0.56570  0.73570  Biso   1.000  H
  H91      1.0000 0.21460  0.93430  0.23570  Biso   1.000  H
  H92      1.0000 0.71460  0.43430  0.23570  Biso   1.000  H
  H93      1.0000 0.78540  0.93430  0.26430  Biso   1.000  H
  H94      1.0000 0.28540  0.43430  0.26430  Biso   1.000  H
  H95      1.0000 0.78540  0.06570  0.76430  Biso   1.000  H
  H96      1.0000 0.28540  0.56570  0.76430  Biso   1.000  H
  C121     1.0000 0.05679  0.08103  0.98880  Biso   1.000  C
  C122     1.0000 0.55679  0.58103  0.98880  Biso   1.000  C
  C123     1.0000 0.05679  0.91897  0.48880  Biso   1.000  C
  C124     1.0000 0.55679  0.41897  0.48880  Biso   1.000  C
  C125     1.0000 0.94321  0.91897  0.01120  Biso   1.000  C
  C126     1.0000 0.44321  0.41897  0.01120  Biso   1.000  C
  C127     1.0000 0.94321  0.08103  0.51120  Biso   1.000  C
  C128     1.0000 0.44321  0.58103  0.51120  Biso   1.000  C
  H97      1.0000 0.02920  0.09850  0.99500  Biso   1.000  H
  H98      1.0000 0.52920  0.59850  0.99500  Biso   1.000  H
  H99      1.0000 0.02920  0.90150  0.49500  Biso   1.000  H
  H100     1.0000 0.52920  0.40150  0.49500  Biso   1.000  H
  H101     1.0000 0.97080  0.90150  0.00500  Biso   1.000  H
  H102     1.0000 0.47080  0.40150  0.00500  Biso   1.000  H
  H103     1.0000 0.97080  0.09850  0.50500  Biso   1.000  H
  H104     1.0000 0.47080  0.59850  0.50500  Biso   1.000  H
  C129     1.0000 0.06317  0.99718  0.97240  Biso   1.000  C
  C130     1.0000 0.56317  0.49718  0.97240  Biso   1.000  C
  C131     1.0000 0.06317  0.00282  0.47240  Biso   1.000  C
  C132     1.0000 0.56317  0.50282  0.47240  Biso   1.000  C
  C133     1.0000 0.93683  0.00282  0.02760  Biso   1.000  C
  C134     1.0000 0.43683  0.50282  0.02760  Biso   1.000  C
  C135     1.0000 0.93683  0.99718  0.52760  Biso   1.000  C
  C136     1.0000 0.43683  0.49718  0.52760  Biso   1.000  C
  H105     1.0000 0.04020  0.95810  0.96580  Biso   1.000  H
  H106     1.0000 0.54020  0.45810  0.96580  Biso   1.000  H
  H107     1.0000 0.04020  0.04190  0.46580  Biso   1.000  H
  H108     1.0000 0.54020  0.54190  0.46580  Biso   1.000  H
  H109     1.0000 0.95980  0.04190  0.03420  Biso   1.000  H
  H110     1.0000 0.45980  0.54190  0.03420  Biso   1.000  H
  H111     1.0000 0.95980  0.95810  0.53420  Biso   1.000  H
  H112     1.0000 0.45980  0.45810  0.53420  Biso   1.000  H
  C137     1.0000 0.10379  0.97160  0.96580  Biso   1.000  C
  C138     1.0000 0.60379  0.47160  0.96580  Biso   1.000  C
  C139     1.0000 0.10379  0.02840  0.46580  Biso   1.000  C
  C140     1.0000 0.60379  0.52840  0.46580  Biso   1.000  C
  C141     1.0000 0.89621  0.02840  0.03420  Biso   1.000  C
  C142     1.0000 0.39621  0.52840  0.03420  Biso   1.000  C
  C143     1.0000 0.89621  0.97160  0.53420  Biso   1.000  C
  C144     1.0000 0.39621  0.47160  0.53420  Biso   1.000  C
  H113     1.0000 0.10910  0.91440  0.95530  Biso   1.000  H
  H114     1.0000 0.60910  0.41440  0.95530  Biso   1.000  H
  H115     1.0000 0.10910  0.08560  0.45530  Biso   1.000  H
  H116     1.0000 0.60910  0.58560  0.45530  Biso   1.000  H
  H117     1.0000 0.89090  0.08560  0.04470  Biso   1.000  H
  H118     1.0000 0.39090  0.58560  0.04470  Biso   1.000  H
  H119     1.0000 0.89090  0.91440  0.54470  Biso   1.000  H
  H120     1.0000 0.39090  0.41440  0.54470  Biso   1.000  H
  C145     1.0000 0.13689  0.03059  0.97460  Biso   1.000  C
  C146     1.0000 0.63689  0.53059  0.97460  Biso   1.000  C
  C147     1.0000 0.13689  0.96941  0.47460  Biso   1.000  C
  C148     1.0000 0.63689  0.46941  0.47460  Biso   1.000  C
  C149     1.0000 0.86311  0.96941  0.02540  Biso   1.000  C
  C150     1.0000 0.36311  0.46941  0.02540  Biso   1.000  C
  C151     1.0000 0.86311  0.03059  0.52540  Biso   1.000  C
  C152     1.0000 0.36311  0.53059  0.52540  Biso   1.000  C
  H121     1.0000 0.16500  0.01410  0.97090  Biso   1.000  H
  H122     1.0000 0.66500  0.51410  0.97090  Biso   1.000  H
  H123     1.0000 0.16500  0.98590  0.47090  Biso   1.000  H
  H124     1.0000 0.66500  0.48590  0.47090  Biso   1.000  H
  H125     1.0000 0.83500  0.98590  0.02910  Biso   1.000  H
  H126     1.0000 0.33500  0.48590  0.02910  Biso   1.000  H
  H127     1.0000 0.83500  0.01410  0.52910  Biso   1.000  H
  H128     1.0000 0.33500  0.51410  0.52910  Biso   1.000  H
  C153     1.0000 0.12790  0.11371  0.98890  Biso   1.000  C
  C154     1.0000 0.62790  0.61371  0.98890  Biso   1.000  C
  C155     1.0000 0.12790  0.88629  0.48890  Biso   1.000  C
  C156     1.0000 0.62790  0.38629  0.48890  Biso   1.000  C
  C157     1.0000 0.87210  0.88629  0.01110  Biso   1.000  C
  C158     1.0000 0.37210  0.38629  0.01110  Biso   1.000  C
  C159     1.0000 0.87210  0.11371  0.51110  Biso   1.000  C
  C160     1.0000 0.37210  0.61371  0.51110  Biso   1.000  C
  C161     1.0000 0.15904  0.18354  0.99650  Biso   1.000  C
  C162     1.0000 0.65904  0.68354  0.99650  Biso   1.000  C
  C163     1.0000 0.15904  0.81646  0.49650  Biso   1.000  C
  C164     1.0000 0.65904  0.31646  0.49650  Biso   1.000  C
  C165     1.0000 0.84096  0.81646  0.00350  Biso   1.000  C
  C166     1.0000 0.34096  0.31646  0.00350  Biso   1.000  C
  C167     1.0000 0.84096  0.18354  0.50350  Biso   1.000  C
  C168     1.0000 0.34096  0.68354  0.50350  Biso   1.000  C
  C169     1.0000 0.20199  0.17809  0.99330  Biso   1.000  C
  C170     1.0000 0.70199  0.67809  0.99330  Biso   1.000  C
  C171     1.0000 0.20199  0.82191  0.49330  Biso   1.000  C
  C172     1.0000 0.70199  0.32191  0.49330  Biso   1.000  C
  C173     1.0000 0.79801  0.82191  0.00670  Biso   1.000  C
  C174     1.0000 0.29801  0.32191  0.00670  Biso   1.000  C
  C175     1.0000 0.79801  0.17809  0.50670  Biso   1.000  C
  C176     1.0000 0.29801  0.67809  0.50670  Biso   1.000  C
  H129     1.0000 0.21440  0.12550  0.98540  Biso   1.000  H
  H130     1.0000 0.71440  0.62550  0.98540  Biso   1.000  H
  H131     1.0000 0.21440  0.87450  0.48540  Biso   1.000  H
  H132     1.0000 0.71440  0.37450  0.48540  Biso   1.000  H
  H133     1.0000 0.78560  0.87450  0.01460  Biso   1.000  H
  H134     1.0000 0.28560  0.37450  0.01460  Biso   1.000  H
  H135     1.0000 0.78560  0.12550  0.51460  Biso   1.000  H
  H136     1.0000 0.28560  0.62550  0.51460  Biso   1.000  H
  C177     1.0000 0.22686  0.25148  0.00180  Biso   1.000  C
  C178     1.0000 0.72686  0.75148  0.00180  Biso   1.000  C
  C179     1.0000 0.22686  0.74852  0.50180  Biso   1.000  C
  C180     1.0000 0.72686  0.24852  0.50180  Biso   1.000  C
  C181     1.0000 0.77314  0.74852  0.99820  Biso   1.000  C
  C182     1.0000 0.27314  0.24852  0.99820  Biso   1.000  C
  C183     1.0000 0.77314  0.25148  0.49820  Biso   1.000  C
  C184     1.0000 0.27314  0.75148  0.49820  Biso   1.000  C
  C185     1.0000 0.20695  0.32789  0.01230  Biso   1.000  C
  C186     1.0000 0.70695  0.82789  0.01230  Biso   1.000  C
  C187     1.0000 0.20695  0.67211  0.51230  Biso   1.000  C
  C188     1.0000 0.70695  0.17211  0.51230  Biso   1.000  C
  C189     1.0000 0.79305  0.67211  0.98770  Biso   1.000  C
  C190     1.0000 0.29305  0.17211  0.98770  Biso   1.000  C
  C191     1.0000 0.79305  0.32789  0.48770  Biso   1.000  C
  C192     1.0000 0.29305  0.82789  0.48770  Biso   1.000  C
  H137     1.0000 0.22280  0.37870  0.01770  Biso   1.000  H
  H138     1.0000 0.72280  0.87870  0.01770  Biso   1.000  H
  H139     1.0000 0.22280  0.62130  0.51770  Biso   1.000  H
  H140     1.0000 0.72280  0.12130  0.51770  Biso   1.000  H
  H141     1.0000 0.77720  0.62130  0.98230  Biso   1.000  H
  H142     1.0000 0.27720  0.12130  0.98230  Biso   1.000  H
  H143     1.0000 0.77720  0.37870  0.48230  Biso   1.000  H
  H144     1.0000 0.27720  0.87870  0.48230  Biso   1.000  H
  C193     1.0000 0.16391  0.32815  0.01460  Biso   1.000  C
  C194     1.0000 0.66391  0.82815  0.01460  Biso   1.000  C
  C195     1.0000 0.16391  0.67185  0.51460  Biso   1.000  C
  C196     1.0000 0.66391  0.17185  0.51460  Biso   1.000  C
  C197     1.0000 0.83609  0.67185  0.98540  Biso   1.000  C
  C198     1.0000 0.33609  0.17185  0.98540  Biso   1.000  C
  C199     1.0000 0.83609  0.32815  0.48540  Biso   1.000  C
  C200     1.0000 0.33609  0.82815  0.48540  Biso   1.000  C
  C201     1.0000 0.13786  0.40230  0.02670  Biso   1.000  C
  C202     1.0000 0.63786  0.90230  0.02670  Biso   1.000  C
  C203     1.0000 0.13786  0.59770  0.52670  Biso   1.000  C
  C204     1.0000 0.63786  0.09770  0.52670  Biso   1.000  C
  C205     1.0000 0.86214  0.59770  0.97330  Biso   1.000  C
  C206     1.0000 0.36214  0.09770  0.97330  Biso   1.000  C
  C207     1.0000 0.86214  0.40230  0.47330  Biso   1.000  C
  C208     1.0000 0.36214  0.90230  0.47330  Biso   1.000  C
  C209     1.0000 0.15294  0.48430  0.03710  Biso   1.000  C
  C210     1.0000 0.65294  0.98430  0.03710  Biso   1.000  C
  C211     1.0000 0.15294  0.51570  0.53710  Biso   1.000  C
  C212     1.0000 0.65294  0.01570  0.53710  Biso   1.000  C
  C213     1.0000 0.84706  0.51570  0.96290  Biso   1.000  C
  C214     1.0000 0.34706  0.01570  0.96290  Biso   1.000  C
  C215     1.0000 0.84706  0.48430  0.46290  Biso   1.000  C
  C216     1.0000 0.34706  0.98430  0.46290  Biso   1.000  C
  H145     1.0000 0.18250  0.49660  0.04110  Biso   1.000  H
  H146     1.0000 0.68250  0.99660  0.04110  Biso   1.000  H
  H147     1.0000 0.18250  0.50340  0.54110  Biso   1.000  H
  H148     1.0000 0.68250  0.00340  0.54110  Biso   1.000  H
  H149     1.0000 0.81750  0.50340  0.95890  Biso   1.000  H
  H150     1.0000 0.31750  0.00340  0.95890  Biso   1.000  H
  H151     1.0000 0.81750  0.49660  0.45890  Biso   1.000  H
  H152     1.0000 0.31750  0.99660  0.45890  Biso   1.000  H
  C217     1.0000 0.12397  0.54740  0.04170  Biso   1.000  C
  C218     1.0000 0.62397  0.04740  0.04170  Biso   1.000  C
  C219     1.0000 0.12397  0.45260  0.54170  Biso   1.000  C
  C220     1.0000 0.62397  0.95260  0.54170  Biso   1.000  C
  C221     1.0000 0.87603  0.45260  0.95830  Biso   1.000  C
  C222     1.0000 0.37603  0.95260  0.95830  Biso   1.000  C
  C223     1.0000 0.87603  0.54740  0.45830  Biso   1.000  C
  C224     1.0000 0.37603  0.04740  0.45830  Biso   1.000  C
  H153     1.0000 0.13350  0.60380  0.04810  Biso   1.000  H
  H154     1.0000 0.63350  0.10380  0.04810  Biso   1.000  H
  H155     1.0000 0.13350  0.39620  0.54810  Biso   1.000  H
  H156     1.0000 0.63350  0.89620  0.54810  Biso   1.000  H
  H157     1.0000 0.86650  0.39620  0.95190  Biso   1.000  H
  H158     1.0000 0.36650  0.89620  0.95190  Biso   1.000  H
  H159     1.0000 0.86650  0.60380  0.45190  Biso   1.000  H
  H160     1.0000 0.36650  0.10380  0.45190  Biso   1.000  H
  C225     1.0000 0.08115  0.52860  0.03700  Biso   1.000  C
  C226     1.0000 0.58115  0.02860  0.03700  Biso   1.000  C
  C227     1.0000 0.08115  0.47140  0.53700  Biso   1.000  C
  C228     1.0000 0.58115  0.97140  0.53700  Biso   1.000  C
  C229     1.0000 0.91885  0.47140  0.96300  Biso   1.000  C
  C230     1.0000 0.41885  0.97140  0.96300  Biso   1.000  C
  C231     1.0000 0.91885  0.52860  0.46300  Biso   1.000  C
  C232     1.0000 0.41885  0.02860  0.46300  Biso   1.000  C
  H161     1.0000 0.06090  0.57160  0.03900  Biso   1.000  H
  H162     1.0000 0.56090  0.07160  0.03900  Biso   1.000  H
  H163     1.0000 0.06090  0.42840  0.53900  Biso   1.000  H
  H164     1.0000 0.56090  0.92840  0.53900  Biso   1.000  H
  H165     1.0000 0.93910  0.42840  0.96100  Biso   1.000  H
  H166     1.0000 0.43910  0.92840  0.96100  Biso   1.000  H
  H167     1.0000 0.93910  0.57160  0.46100  Biso   1.000  H
  H168     1.0000 0.43910  0.07160  0.46100  Biso   1.000  H
  C233     1.0000 0.06850  0.44491  0.02930  Biso   1.000  C
  C234     1.0000 0.56850  0.94491  0.02930  Biso   1.000  C
  C235     1.0000 0.06850  0.55509  0.52930  Biso   1.000  C
  C236     1.0000 0.56850  0.05509  0.52930  Biso   1.000  C
  C237     1.0000 0.93150  0.55509  0.97070  Biso   1.000  C
  C238     1.0000 0.43150  0.05509  0.97070  Biso   1.000  C
  C239     1.0000 0.93150  0.44491  0.47070  Biso   1.000  C
  C240     1.0000 0.43150  0.94491  0.47070  Biso   1.000  C
  H169     1.0000 0.03940  0.43120  0.02810  Biso   1.000  H
  H170     1.0000 0.53940  0.93120  0.02810  Biso   1.000  H
  H171     1.0000 0.03940  0.56880  0.52810  Biso   1.000  H
  H172     1.0000 0.53940  0.06880  0.52810  Biso   1.000  H
  H173     1.0000 0.96060  0.56880  0.97190  Biso   1.000  H
  H174     1.0000 0.46060  0.06880  0.97190  Biso   1.000  H
  H175     1.0000 0.96060  0.43120  0.47190  Biso   1.000  H
  H176     1.0000 0.46060  0.93120  0.47190  Biso   1.000  H
