data_image0
_cell_length_a       18.249
_cell_length_b       18.249
_cell_length_c       72.569
_cell_angle_alpha    90
_cell_angle_beta     90
_cell_angle_gamma    120

_symmetry_space_group_name_H-M    "P 1"
_symmetry_int_tables_number       1

loop_
  _symmetry_equiv_pos_as_xyz
  'x, y, z'

loop_
  _atom_site_label
  _atom_site_occupancy
  _atom_site_fract_x
  _atom_site_fract_y
  _atom_site_fract_z
  _atom_site_thermal_displace_type
  _atom_site_B_iso_or_equiv
  _atom_site_type_symbol
  Cu1      1.0000 0.79219  0.17739  0.93112  Biso   1.000  Cu
  Cu2      1.0000 0.82261  0.61479  0.93112  Biso   1.000  Cu
  Cu3      1.0000 0.38521  0.20781  0.93112  Biso   1.000  Cu
  Cu4      1.0000 0.17739  0.79219  0.56888  Biso   1.000  Cu
  Cu5      1.0000 0.61479  0.82260  0.56888  Biso   1.000  Cu
  Cu6      1.0000 0.20781  0.38521  0.56888  Biso   1.000  Cu
  Cu7      1.0000 0.45885  0.51073  0.26445  Biso   1.000  Cu
  Cu8      1.0000 0.48927  0.94813  0.26445  Biso   1.000  Cu
  Cu9      1.0000 0.05187  0.54115  0.26445  Biso   1.000  Cu
  Cu10     1.0000 0.84406  0.12552  0.90221  Biso   1.000  Cu
  Cu11     1.0000 0.28146  0.15594  0.90221  Biso   1.000  Cu
  Cu12     1.0000 0.87448  0.71854  0.90221  Biso   1.000  Cu
  Cu13     1.0000 0.12552  0.84406  0.59779  Biso   1.000  Cu
  Cu14     1.0000 0.15594  0.28146  0.59779  Biso   1.000  Cu
  Cu15     1.0000 0.71854  0.87448  0.59779  Biso   1.000  Cu
  Cu16     1.0000 0.51073  0.45885  0.23555  Biso   1.000  Cu
  Cu17     1.0000 0.94813  0.48927  0.23555  Biso   1.000  Cu
  Cu18     1.0000 0.54115  0.05187  0.23555  Biso   1.000  Cu
  Cu19     1.0000 0.20781  0.82260  0.06888  Biso   1.000  Cu
  Cu20     1.0000 0.17739  0.38521  0.06888  Biso   1.000  Cu
  Cu21     1.0000 0.61479  0.79219  0.06888  Biso   1.000  Cu
  Cu22     1.0000 0.82261  0.20781  0.43112  Biso   1.000  Cu
  Cu23     1.0000 0.38521  0.17739  0.43112  Biso   1.000  Cu
  Cu24     1.0000 0.79219  0.61479  0.43112  Biso   1.000  Cu
  Cu25     1.0000 0.87448  0.15594  0.40221  Biso   1.000  Cu
  Cu26     1.0000 0.84406  0.71854  0.40221  Biso   1.000  Cu
  Cu27     1.0000 0.28146  0.12552  0.40221  Biso   1.000  Cu
  Cu28     1.0000 0.48927  0.54115  0.76445  Biso   1.000  Cu
  Cu29     1.0000 0.05187  0.51073  0.76445  Biso   1.000  Cu
  Cu30     1.0000 0.45885  0.94813  0.76445  Biso   1.000  Cu
  Cu31     1.0000 0.54115  0.48927  0.73555  Biso   1.000  Cu
  Cu32     1.0000 0.51073  0.05187  0.73555  Biso   1.000  Cu
  Cu33     1.0000 0.94813  0.45885  0.73555  Biso   1.000  Cu
  Cu34     1.0000 0.15594  0.87448  0.09779  Biso   1.000  Cu
  Cu35     1.0000 0.71854  0.84406  0.09779  Biso   1.000  Cu
  Cu36     1.0000 0.12552  0.28146  0.09779  Biso   1.000  Cu
  O1       1.0000 0.68754  0.13387  0.91743  Biso   1.000  O
  O2       1.0000 0.86613  0.55367  0.91743  Biso   1.000  O
  O3       1.0000 0.44633  0.31246  0.91743  Biso   1.000  O
  O4       1.0000 0.13387  0.68754  0.58257  Biso   1.000  O
  O5       1.0000 0.55367  0.86613  0.58257  Biso   1.000  O
  O6       1.0000 0.31246  0.44633  0.58257  Biso   1.000  O
  O7       1.0000 0.35421  0.46720  0.25076  Biso   1.000  O
  O8       1.0000 0.53280  0.88700  0.25076  Biso   1.000  O
  O9       1.0000 0.11300  0.64579  0.25076  Biso   1.000  O
  O10      1.0000 0.80054  0.02087  0.91590  Biso   1.000  O
  O11      1.0000 0.22034  0.19946  0.91590  Biso   1.000  O
  O12      1.0000 0.97913  0.77966  0.91590  Biso   1.000  O
  O13      1.0000 0.02087  0.80054  0.58410  Biso   1.000  O
  O14      1.0000 0.19946  0.22034  0.58410  Biso   1.000  O
  O15      1.0000 0.77966  0.97913  0.58410  Biso   1.000  O
  O16      1.0000 0.46720  0.35421  0.24924  Biso   1.000  O
  O17      1.0000 0.88700  0.53280  0.24924  Biso   1.000  O
  O18      1.0000 0.64579  0.11300  0.24924  Biso   1.000  O
  O19      1.0000 0.31246  0.86613  0.08257  Biso   1.000  O
  O20      1.0000 0.13387  0.44633  0.08257  Biso   1.000  O
  O21      1.0000 0.55367  0.68754  0.08257  Biso   1.000  O
  O22      1.0000 0.86613  0.31246  0.41743  Biso   1.000  O
  O23      1.0000 0.44633  0.13387  0.41743  Biso   1.000  O
  O24      1.0000 0.68754  0.55367  0.41743  Biso   1.000  O
  O25      1.0000 0.97913  0.19946  0.41590  Biso   1.000  O
  O26      1.0000 0.80054  0.77966  0.41590  Biso   1.000  O
  O27      1.0000 0.22034  0.02087  0.41590  Biso   1.000  O
  O28      1.0000 0.53280  0.64579  0.75076  Biso   1.000  O
  O29      1.0000 0.11300  0.46720  0.75076  Biso   1.000  O
  O30      1.0000 0.35421  0.88700  0.75076  Biso   1.000  O
  O31      1.0000 0.64579  0.53280  0.74924  Biso   1.000  O
  O32      1.0000 0.46720  0.11300  0.74924  Biso   1.000  O
  O33      1.0000 0.88700  0.35421  0.74924  Biso   1.000  O
  O34      1.0000 0.19946  0.97913  0.08410  Biso   1.000  O
  O35      1.0000 0.77966  0.80054  0.08410  Biso   1.000  O
  O36      1.0000 0.02087  0.22034  0.08410  Biso   1.000  O
  O37      1.0000 0.72831  0.08984  0.89261  Biso   1.000  O
  O38      1.0000 0.91016  0.63847  0.89261  Biso   1.000  O
  O39      1.0000 0.36153  0.27169  0.89261  Biso   1.000  O
  O40      1.0000 0.08984  0.72831  0.60739  Biso   1.000  O
  O41      1.0000 0.63847  0.91016  0.60739  Biso   1.000  O
  O42      1.0000 0.27169  0.36153  0.60739  Biso   1.000  O
  O43      1.0000 0.39498  0.42317  0.22594  Biso   1.000  O
  O44      1.0000 0.57683  0.97180  0.22594  Biso   1.000  O
  O45      1.0000 0.02820  0.60502  0.22594  Biso   1.000  O
  O46      1.0000 0.75651  0.06164  0.94072  Biso   1.000  O
  O47      1.0000 0.30514  0.24349  0.94072  Biso   1.000  O
  O48      1.0000 0.93836  0.69486  0.94072  Biso   1.000  O
  O49      1.0000 0.06164  0.75651  0.55928  Biso   1.000  O
  O50      1.0000 0.24349  0.30514  0.55928  Biso   1.000  O
  O51      1.0000 0.69486  0.93836  0.55928  Biso   1.000  O
  O52      1.0000 0.42317  0.39498  0.27406  Biso   1.000  O
  O53      1.0000 0.97180  0.57683  0.27406  Biso   1.000  O
  O54      1.0000 0.60502  0.02820  0.27406  Biso   1.000  O
  O55      1.0000 0.27169  0.91016  0.10739  Biso   1.000  O
  O56      1.0000 0.08984  0.36153  0.10739  Biso   1.000  O
  O57      1.0000 0.63847  0.72831  0.10739  Biso   1.000  O
  O58      1.0000 0.91016  0.27169  0.39261  Biso   1.000  O
  O59      1.0000 0.36153  0.08984  0.39261  Biso   1.000  O
  O60      1.0000 0.72831  0.63847  0.39261  Biso   1.000  O
  O61      1.0000 0.93836  0.24349  0.44072  Biso   1.000  O
  O62      1.0000 0.75651  0.69486  0.44072  Biso   1.000  O
  O63      1.0000 0.30514  0.06164  0.44072  Biso   1.000  O
  O64      1.0000 0.57683  0.60502  0.72594  Biso   1.000  O
  O65      1.0000 0.02820  0.42317  0.72594  Biso   1.000  O
  O66      1.0000 0.39498  0.97180  0.72594  Biso   1.000  O
  O67      1.0000 0.60502  0.57683  0.77406  Biso   1.000  O
  O68      1.0000 0.42317  0.02820  0.77406  Biso   1.000  O
  O69      1.0000 0.97180  0.39498  0.77406  Biso   1.000  O
  O70      1.0000 0.24349  0.93836  0.05928  Biso   1.000  O
  O71      1.0000 0.69486  0.75651  0.05928  Biso   1.000  O
  O72      1.0000 0.06164  0.30514  0.05928  Biso   1.000  O
  O73      1.0000 0.44087  0.15989  0.91604  Biso   1.000  O
  O74      1.0000 0.84011  0.28098  0.91604  Biso   1.000  O
  O75      1.0000 0.71902  0.55913  0.91604  Biso   1.000  O
  O76      1.0000 0.15989  0.44087  0.58396  Biso   1.000  O
  O77      1.0000 0.28098  0.84011  0.58396  Biso   1.000  O
  O78      1.0000 0.55913  0.71902  0.58396  Biso   1.000  O
  O79      1.0000 0.10754  0.49322  0.24937  Biso   1.000  O
  O80      1.0000 0.50678  0.61431  0.24937  Biso   1.000  O
  O81      1.0000 0.38569  0.89246  0.24937  Biso   1.000  O
  O82      1.0000 0.82656  0.77420  0.91729  Biso   1.000  O
  O83      1.0000 0.94765  0.17344  0.91729  Biso   1.000  O
  O84      1.0000 0.22580  0.05235  0.91729  Biso   1.000  O
  O85      1.0000 0.77420  0.82656  0.58271  Biso   1.000  O
  O86      1.0000 0.17344  0.94765  0.58271  Biso   1.000  O
  O87      1.0000 0.05235  0.22580  0.58271  Biso   1.000  O
  O88      1.0000 0.49322  0.10754  0.25063  Biso   1.000  O
  O89      1.0000 0.61431  0.50678  0.25063  Biso   1.000  O
  O90      1.0000 0.89246  0.38569  0.25063  Biso   1.000  O
  O91      1.0000 0.55913  0.84011  0.08396  Biso   1.000  O
  O92      1.0000 0.15989  0.71902  0.08396  Biso   1.000  O
  O93      1.0000 0.28098  0.44087  0.08396  Biso   1.000  O
  O94      1.0000 0.84011  0.55913  0.41604  Biso   1.000  O
  O95      1.0000 0.71902  0.15989  0.41604  Biso   1.000  O
  O96      1.0000 0.44087  0.28098  0.41604  Biso   1.000  O
  O97      1.0000 0.22580  0.17344  0.41729  Biso   1.000  O
  O98      1.0000 0.82656  0.05235  0.41729  Biso   1.000  O
  O99      1.0000 0.94765  0.77420  0.41729  Biso   1.000  O
  O100     1.0000 0.50678  0.89246  0.74937  Biso   1.000  O
  O101     1.0000 0.38569  0.49322  0.74937  Biso   1.000  O
  O102     1.0000 0.10754  0.61431  0.74937  Biso   1.000  O
  O103     1.0000 0.89246  0.50678  0.75063  Biso   1.000  O
  O104     1.0000 0.49322  0.38569  0.75063  Biso   1.000  O
  O105     1.0000 0.61431  0.10754  0.75063  Biso   1.000  O
  O106     1.0000 0.17344  0.22580  0.08271  Biso   1.000  O
  O107     1.0000 0.05235  0.82656  0.08271  Biso   1.000  O
  O108     1.0000 0.77420  0.94765  0.08271  Biso   1.000  O
  O109     1.0000 0.35371  0.11607  0.89163  Biso   1.000  O
  O110     1.0000 0.88393  0.23764  0.89163  Biso   1.000  O
  O111     1.0000 0.76236  0.64629  0.89163  Biso   1.000  O
  O112     1.0000 0.11607  0.35371  0.60837  Biso   1.000  O
  O113     1.0000 0.23764  0.88393  0.60837  Biso   1.000  O
  O114     1.0000 0.64629  0.76236  0.60837  Biso   1.000  O
  O115     1.0000 0.02038  0.44940  0.22496  Biso   1.000  O
  O116     1.0000 0.55060  0.57097  0.22496  Biso   1.000  O
  O117     1.0000 0.42903  0.97962  0.22496  Biso   1.000  O
  O118     1.0000 0.78274  0.68704  0.94170  Biso   1.000  O
  O119     1.0000 0.90431  0.21726  0.94170  Biso   1.000  O
  O120     1.0000 0.31296  0.09569  0.94170  Biso   1.000  O
  O121     1.0000 0.68704  0.78274  0.55830  Biso   1.000  O
  O122     1.0000 0.21726  0.90431  0.55830  Biso   1.000  O
  O123     1.0000 0.09569  0.31296  0.55830  Biso   1.000  O
  O124     1.0000 0.44940  0.02038  0.27504  Biso   1.000  O
  O125     1.0000 0.57097  0.55060  0.27504  Biso   1.000  O
  O126     1.0000 0.97962  0.42903  0.27504  Biso   1.000  O
  O127     1.0000 0.64629  0.88393  0.10837  Biso   1.000  O
  O128     1.0000 0.11607  0.76236  0.10837  Biso   1.000  O
  O129     1.0000 0.23764  0.35371  0.10837  Biso   1.000  O
  O130     1.0000 0.88393  0.64629  0.39163  Biso   1.000  O
  O131     1.0000 0.76236  0.11607  0.39163  Biso   1.000  O
  O132     1.0000 0.35371  0.23764  0.39163  Biso   1.000  O
  O133     1.0000 0.31296  0.21726  0.44170  Biso   1.000  O
  O134     1.0000 0.78274  0.09569  0.44170  Biso   1.000  O
  O135     1.0000 0.90431  0.68704  0.44170  Biso   1.000  O
  O136     1.0000 0.55060  0.97962  0.72496  Biso   1.000  O
  O137     1.0000 0.42903  0.44940  0.72496  Biso   1.000  O
  O138     1.0000 0.02038  0.57097  0.72496  Biso   1.000  O
  O139     1.0000 0.97962  0.55060  0.77504  Biso   1.000  O
  O140     1.0000 0.44940  0.42903  0.77504  Biso   1.000  O
  O141     1.0000 0.57097  0.02038  0.77504  Biso   1.000  O
  O142     1.0000 0.21726  0.31296  0.05830  Biso   1.000  O
  O143     1.0000 0.09569  0.78274  0.05830  Biso   1.000  O
  O144     1.0000 0.68704  0.90431  0.05830  Biso   1.000  O
  N1       1.0000 0.40690  0.86966  0.78883  Biso   1.000  N
  N2       1.0000 0.13034  0.53724  0.78883  Biso   1.000  N
  N3       1.0000 0.46276  0.59310  0.78883  Biso   1.000  N
  N4       1.0000 0.86966  0.40690  0.71117  Biso   1.000  N
  N5       1.0000 0.53724  0.13034  0.71117  Biso   1.000  N
  N6       1.0000 0.59310  0.46276  0.71117  Biso   1.000  N
  N7       1.0000 0.07357  0.20299  0.12216  Biso   1.000  N
  N8       1.0000 0.79701  0.87057  0.12216  Biso   1.000  N
  N9       1.0000 0.12943  0.92643  0.12216  Biso   1.000  N
  N10      1.0000 0.53633  0.74023  0.04450  Biso   1.000  N
  N11      1.0000 0.20391  0.46367  0.04450  Biso   1.000  N
  N12      1.0000 0.25977  0.79609  0.04450  Biso   1.000  N
  N13      1.0000 0.74023  0.53633  0.45550  Biso   1.000  N
  N14      1.0000 0.46367  0.20391  0.45550  Biso   1.000  N
  N15      1.0000 0.79609  0.25977  0.45550  Biso   1.000  N
  N16      1.0000 0.20299  0.07357  0.37784  Biso   1.000  N
  N17      1.0000 0.87057  0.79701  0.37784  Biso   1.000  N
  N18      1.0000 0.92643  0.12943  0.37784  Biso   1.000  N
  N19      1.0000 0.59310  0.13034  0.21117  Biso   1.000  N
  N20      1.0000 0.86966  0.46276  0.21117  Biso   1.000  N
  N21      1.0000 0.53724  0.40690  0.21117  Biso   1.000  N
  N22      1.0000 0.13034  0.59310  0.28883  Biso   1.000  N
  N23      1.0000 0.46276  0.86966  0.28883  Biso   1.000  N
  N24      1.0000 0.40690  0.53724  0.28883  Biso   1.000  N
  N25      1.0000 0.25977  0.46367  0.54450  Biso   1.000  N
  N26      1.0000 0.53633  0.79609  0.54450  Biso   1.000  N
  N27      1.0000 0.20391  0.74023  0.54450  Biso   1.000  N
  N28      1.0000 0.79701  0.92643  0.62216  Biso   1.000  N
  N29      1.0000 0.12943  0.20299  0.62216  Biso   1.000  N
  N30      1.0000 0.07357  0.87057  0.62216  Biso   1.000  N
  N31      1.0000 0.92643  0.79701  0.87784  Biso   1.000  N
  N32      1.0000 0.20299  0.12943  0.87784  Biso   1.000  N
  N33      1.0000 0.87057  0.07357  0.87784  Biso   1.000  N
  N34      1.0000 0.46367  0.25977  0.95550  Biso   1.000  N
  N35      1.0000 0.79609  0.53633  0.95550  Biso   1.000  N
  N36      1.0000 0.74023  0.20391  0.95550  Biso   1.000  N
  C1       1.0000 0.43688  0.90591  0.80504  Biso   1.000  C
  C2       1.0000 0.09409  0.53097  0.80504  Biso   1.000  C
  C3       1.0000 0.46903  0.56312  0.80504  Biso   1.000  C
  C4       1.0000 0.90591  0.43688  0.69496  Biso   1.000  C
  C5       1.0000 0.53097  0.09409  0.69496  Biso   1.000  C
  C6       1.0000 0.56312  0.46903  0.69496  Biso   1.000  C
  C7       1.0000 0.10355  0.23924  0.13837  Biso   1.000  C
  C8       1.0000 0.76076  0.86430  0.13837  Biso   1.000  C
  C9       1.0000 0.13570  0.89645  0.13837  Biso   1.000  C
  C10      1.0000 0.57258  0.77021  0.02829  Biso   1.000  C
  C11      1.0000 0.19764  0.42742  0.02829  Biso   1.000  C
  C12      1.0000 0.22979  0.80236  0.02829  Biso   1.000  C
  C13      1.0000 0.77021  0.57258  0.47171  Biso   1.000  C
  C14      1.0000 0.42742  0.19764  0.47171  Biso   1.000  C
  C15      1.0000 0.80236  0.22979  0.47171  Biso   1.000  C
  C16      1.0000 0.23924  0.10355  0.36163  Biso   1.000  C
  C17      1.0000 0.86430  0.76076  0.36163  Biso   1.000  C
  C18      1.0000 0.89645  0.13570  0.36163  Biso   1.000  C
  C19      1.0000 0.56312  0.09409  0.19496  Biso   1.000  C
  C20      1.0000 0.90591  0.46903  0.19496  Biso   1.000  C
  C21      1.0000 0.53097  0.43688  0.19496  Biso   1.000  C
  C22      1.0000 0.09409  0.56312  0.30504  Biso   1.000  C
  C23      1.0000 0.46903  0.90591  0.30504  Biso   1.000  C
  C24      1.0000 0.43688  0.53097  0.30504  Biso   1.000  C
  C25      1.0000 0.22979  0.42742  0.52829  Biso   1.000  C
  C26      1.0000 0.57258  0.80236  0.52829  Biso   1.000  C
  C27      1.0000 0.19764  0.77021  0.52829  Biso   1.000  C
  C28      1.0000 0.76076  0.89645  0.63837  Biso   1.000  C
  C29      1.0000 0.13570  0.23924  0.63837  Biso   1.000  C
  C30      1.0000 0.10355  0.86430  0.63837  Biso   1.000  C
  C31      1.0000 0.89645  0.76076  0.86163  Biso   1.000  C
  C32      1.0000 0.23924  0.13570  0.86163  Biso   1.000  C
  C33      1.0000 0.86430  0.10355  0.86163  Biso   1.000  C
  C34      1.0000 0.42742  0.22979  0.97171  Biso   1.000  C
  C35      1.0000 0.80236  0.57258  0.97171  Biso   1.000  C
  C36      1.0000 0.77021  0.19764  0.97171  Biso   1.000  C
  H1       1.0000 0.48870  0.95820  0.80530  Biso   1.000  H
  H2       1.0000 0.04180  0.53050  0.80530  Biso   1.000  H
  H3       1.0000 0.46950  0.51130  0.80530  Biso   1.000  H
  H4       1.0000 0.95820  0.48870  0.69470  Biso   1.000  H
  H5       1.0000 0.53050  0.04180  0.69470  Biso   1.000  H
  H6       1.0000 0.51130  0.46950  0.69470  Biso   1.000  H
  H7       1.0000 0.15537  0.29153  0.13863  Biso   1.000  H
  H8       1.0000 0.70847  0.86383  0.13863  Biso   1.000  H
  H9       1.0000 0.13617  0.84463  0.13863  Biso   1.000  H
  H10      1.0000 0.62487  0.82203  0.02803  Biso   1.000  H
  H11      1.0000 0.19717  0.37513  0.02803  Biso   1.000  H
  H12      1.0000 0.17797  0.80283  0.02803  Biso   1.000  H
  H13      1.0000 0.82203  0.62487  0.47197  Biso   1.000  H
  H14      1.0000 0.37513  0.19717  0.47197  Biso   1.000  H
  H15      1.0000 0.80283  0.17797  0.47197  Biso   1.000  H
  H16      1.0000 0.29153  0.15537  0.36137  Biso   1.000  H
  H17      1.0000 0.86383  0.70847  0.36137  Biso   1.000  H
  H18      1.0000 0.84463  0.13617  0.36137  Biso   1.000  H
  H19      1.0000 0.51130  0.04180  0.19470  Biso   1.000  H
  H20      1.0000 0.95820  0.46950  0.19470  Biso   1.000  H
  H21      1.0000 0.53050  0.48870  0.19470  Biso   1.000  H
  H22      1.0000 0.04180  0.51130  0.30530  Biso   1.000  H
  H23      1.0000 0.46950  0.95820  0.30530  Biso   1.000  H
  H24      1.0000 0.48870  0.53050  0.30530  Biso   1.000  H
  H25      1.0000 0.17797  0.37513  0.52803  Biso   1.000  H
  H26      1.0000 0.62487  0.80283  0.52803  Biso   1.000  H
  H27      1.0000 0.19717  0.82203  0.52803  Biso   1.000  H
  H28      1.0000 0.70847  0.84463  0.63863  Biso   1.000  H
  H29      1.0000 0.13617  0.29153  0.63863  Biso   1.000  H
  H30      1.0000 0.15537  0.86383  0.63863  Biso   1.000  H
  H31      1.0000 0.84463  0.70847  0.86137  Biso   1.000  H
  H32      1.0000 0.29153  0.13617  0.86137  Biso   1.000  H
  H33      1.0000 0.86383  0.15537  0.86137  Biso   1.000  H
  H34      1.0000 0.37513  0.17797  0.97197  Biso   1.000  H
  H35      1.0000 0.80283  0.62487  0.97197  Biso   1.000  H
  H36      1.0000 0.82203  0.19717  0.97197  Biso   1.000  H
  C37      1.0000 0.33270  0.79529  0.78853  Biso   1.000  C
  C38      1.0000 0.20471  0.53741  0.78853  Biso   1.000  C
  C39      1.0000 0.46259  0.66730  0.78853  Biso   1.000  C
  C40      1.0000 0.79529  0.33270  0.71147  Biso   1.000  C
  C41      1.0000 0.53741  0.20471  0.71147  Biso   1.000  C
  C42      1.0000 0.66730  0.46259  0.71147  Biso   1.000  C
  C43      1.0000 0.99937  0.12862  0.12186  Biso   1.000  C
  C44      1.0000 0.87138  0.87074  0.12186  Biso   1.000  C
  C45      1.0000 0.12926  0.00063  0.12186  Biso   1.000  C
  C46      1.0000 0.46196  0.66603  0.04480  Biso   1.000  C
  C47      1.0000 0.20408  0.53804  0.04480  Biso   1.000  C
  C48      1.0000 0.33397  0.79592  0.04480  Biso   1.000  C
  C49      1.0000 0.66603  0.46196  0.45520  Biso   1.000  C
  C50      1.0000 0.53804  0.20408  0.45520  Biso   1.000  C
  C51      1.0000 0.79592  0.33397  0.45520  Biso   1.000  C
  C52      1.0000 0.12862  0.99937  0.37814  Biso   1.000  C
  C53      1.0000 0.87074  0.87138  0.37814  Biso   1.000  C
  C54      1.0000 0.00063  0.12926  0.37814  Biso   1.000  C
  C55      1.0000 0.66730  0.20471  0.21147  Biso   1.000  C
  C56      1.0000 0.79529  0.46259  0.21147  Biso   1.000  C
  C57      1.0000 0.53741  0.33270  0.21147  Biso   1.000  C
  C58      1.0000 0.20471  0.66730  0.28853  Biso   1.000  C
  C59      1.0000 0.46259  0.79529  0.28853  Biso   1.000  C
  C60      1.0000 0.33270  0.53741  0.28853  Biso   1.000  C
  C61      1.0000 0.33397  0.53804  0.54480  Biso   1.000  C
  C62      1.0000 0.46196  0.79592  0.54480  Biso   1.000  C
  C63      1.0000 0.20408  0.66603  0.54480  Biso   1.000  C
  C64      1.0000 0.87138  0.00063  0.62186  Biso   1.000  C
  C65      1.0000 0.12926  0.12862  0.62186  Biso   1.000  C
  C66      1.0000 0.99937  0.87074  0.62186  Biso   1.000  C
  C67      1.0000 0.00063  0.87138  0.87814  Biso   1.000  C
  C68      1.0000 0.12862  0.12926  0.87814  Biso   1.000  C
  C69      1.0000 0.87074  0.99937  0.87814  Biso   1.000  C
  C70      1.0000 0.53804  0.33397  0.95520  Biso   1.000  C
  C71      1.0000 0.79592  0.46196  0.95520  Biso   1.000  C
  C72      1.0000 0.66603  0.20408  0.95520  Biso   1.000  C
  H37      1.0000 0.31030  0.76950  0.77700  Biso   1.000  H
  H38      1.0000 0.23050  0.54080  0.77700  Biso   1.000  H
  H39      1.0000 0.45920  0.68970  0.77700  Biso   1.000  H
  H40      1.0000 0.76950  0.31030  0.72300  Biso   1.000  H
  H41      1.0000 0.54080  0.23050  0.72300  Biso   1.000  H
  H42      1.0000 0.68970  0.45920  0.72300  Biso   1.000  H
  H43      1.0000 0.97697  0.10283  0.11033  Biso   1.000  H
  H44      1.0000 0.89717  0.87413  0.11033  Biso   1.000  H
  H45      1.0000 0.12587  0.02303  0.11033  Biso   1.000  H
  H46      1.0000 0.43617  0.64363  0.05633  Biso   1.000  H
  H47      1.0000 0.20747  0.56383  0.05633  Biso   1.000  H
  H48      1.0000 0.35637  0.79253  0.05633  Biso   1.000  H
  H49      1.0000 0.64363  0.43617  0.44367  Biso   1.000  H
  H50      1.0000 0.56383  0.20747  0.44367  Biso   1.000  H
  H51      1.0000 0.79253  0.35637  0.44367  Biso   1.000  H
  H52      1.0000 0.10283  0.97697  0.38967  Biso   1.000  H
  H53      1.0000 0.87413  0.89717  0.38967  Biso   1.000  H
  H54      1.0000 0.02303  0.12587  0.38967  Biso   1.000  H
  H55      1.0000 0.68970  0.23050  0.22300  Biso   1.000  H
  H56      1.0000 0.76950  0.45920  0.22300  Biso   1.000  H
  H57      1.0000 0.54080  0.31030  0.22300  Biso   1.000  H
  H58      1.0000 0.23050  0.68970  0.27700  Biso   1.000  H
  H59      1.0000 0.45920  0.76950  0.27700  Biso   1.000  H
  H60      1.0000 0.31030  0.54080  0.27700  Biso   1.000  H
  H61      1.0000 0.35637  0.56383  0.55633  Biso   1.000  H
  H62      1.0000 0.43617  0.79253  0.55633  Biso   1.000  H
  H63      1.0000 0.20747  0.64363  0.55633  Biso   1.000  H
  H64      1.0000 0.89717  0.02303  0.61033  Biso   1.000  H
  H65      1.0000 0.12587  0.10283  0.61033  Biso   1.000  H
  H66      1.0000 0.97697  0.87413  0.61033  Biso   1.000  H
  H67      1.0000 0.02303  0.89717  0.88967  Biso   1.000  H
  H68      1.0000 0.10283  0.12587  0.88967  Biso   1.000  H
  H69      1.0000 0.87413  0.97697  0.88967  Biso   1.000  H
  H70      1.0000 0.56383  0.35637  0.94367  Biso   1.000  H
  H71      1.0000 0.79253  0.43617  0.94367  Biso   1.000  H
  H72      1.0000 0.64363  0.20747  0.94367  Biso   1.000  H
  C73      1.0000 0.28830  0.75520  0.80430  Biso   1.000  C
  C74      1.0000 0.24480  0.53310  0.80430  Biso   1.000  C
  C75      1.0000 0.46690  0.71170  0.80430  Biso   1.000  C
  C76      1.0000 0.75520  0.28830  0.69570  Biso   1.000  C
  C77      1.0000 0.53310  0.24480  0.69570  Biso   1.000  C
  C78      1.0000 0.71170  0.46690  0.69570  Biso   1.000  C
  C79      1.0000 0.95497  0.08853  0.13763  Biso   1.000  C
  C80      1.0000 0.91147  0.86643  0.13763  Biso   1.000  C
  C81      1.0000 0.13357  0.04503  0.13763  Biso   1.000  C
  C82      1.0000 0.42187  0.62163  0.02903  Biso   1.000  C
  C83      1.0000 0.19977  0.57813  0.02903  Biso   1.000  C
  C84      1.0000 0.37837  0.80023  0.02903  Biso   1.000  C
  C85      1.0000 0.62163  0.42187  0.47097  Biso   1.000  C
  C86      1.0000 0.57813  0.19977  0.47097  Biso   1.000  C
  C87      1.0000 0.80023  0.37837  0.47097  Biso   1.000  C
  C88      1.0000 0.08853  0.95497  0.36237  Biso   1.000  C
  C89      1.0000 0.86643  0.91147  0.36237  Biso   1.000  C
  C90      1.0000 0.04503  0.13357  0.36237  Biso   1.000  C
  C91      1.0000 0.71170  0.24480  0.19570  Biso   1.000  C
  C92      1.0000 0.75520  0.46690  0.19570  Biso   1.000  C
  C93      1.0000 0.53310  0.28830  0.19570  Biso   1.000  C
  C94      1.0000 0.24480  0.71170  0.30430  Biso   1.000  C
  C95      1.0000 0.46690  0.75520  0.30430  Biso   1.000  C
  C96      1.0000 0.28830  0.53310  0.30430  Biso   1.000  C
  C97      1.0000 0.37837  0.57813  0.52903  Biso   1.000  C
  C98      1.0000 0.42187  0.80023  0.52903  Biso   1.000  C
  C99      1.0000 0.19977  0.62163  0.52903  Biso   1.000  C
  C100     1.0000 0.91147  0.04503  0.63763  Biso   1.000  C
  C101     1.0000 0.13357  0.08853  0.63763  Biso   1.000  C
  C102     1.0000 0.95497  0.86643  0.63763  Biso   1.000  C
  C103     1.0000 0.04503  0.91147  0.86237  Biso   1.000  C
  C104     1.0000 0.08853  0.13357  0.86237  Biso   1.000  C
  C105     1.0000 0.86643  0.95497  0.86237  Biso   1.000  C
  C106     1.0000 0.57813  0.37837  0.97097  Biso   1.000  C
  C107     1.0000 0.80023  0.42187  0.97097  Biso   1.000  C
  C108     1.0000 0.62163  0.19977  0.97097  Biso   1.000  C
  H73      1.0000 0.23700  0.70260  0.80360  Biso   1.000  H
  H74      1.0000 0.29740  0.53440  0.80360  Biso   1.000  H
  H75      1.0000 0.46560  0.76300  0.80360  Biso   1.000  H
  H76      1.0000 0.70260  0.23700  0.69640  Biso   1.000  H
  H77      1.0000 0.53440  0.29740  0.69640  Biso   1.000  H
  H78      1.0000 0.76300  0.46560  0.69640  Biso   1.000  H
  H79      1.0000 0.90367  0.03593  0.13693  Biso   1.000  H
  H80      1.0000 0.96407  0.86773  0.13693  Biso   1.000  H
  H81      1.0000 0.13227  0.09633  0.13693  Biso   1.000  H
  H82      1.0000 0.36927  0.57033  0.02973  Biso   1.000  H
  H83      1.0000 0.20107  0.63073  0.02973  Biso   1.000  H
  H84      1.0000 0.42967  0.79893  0.02973  Biso   1.000  H
  H85      1.0000 0.57033  0.36927  0.47027  Biso   1.000  H
  H86      1.0000 0.63073  0.20107  0.47027  Biso   1.000  H
  H87      1.0000 0.79893  0.42967  0.47027  Biso   1.000  H
  H88      1.0000 0.03593  0.90367  0.36307  Biso   1.000  H
  H89      1.0000 0.86773  0.96407  0.36307  Biso   1.000  H
  H90      1.0000 0.09633  0.13227  0.36307  Biso   1.000  H
  H91      1.0000 0.76300  0.29740  0.19640  Biso   1.000  H
  H92      1.0000 0.70260  0.46560  0.19640  Biso   1.000  H
  H93      1.0000 0.53440  0.23700  0.19640  Biso   1.000  H
  H94      1.0000 0.29740  0.76300  0.30360  Biso   1.000  H
  H95      1.0000 0.46560  0.70260  0.30360  Biso   1.000  H
  H96      1.0000 0.23700  0.53440  0.30360  Biso   1.000  H
  H97      1.0000 0.42967  0.63073  0.52973  Biso   1.000  H
  H98      1.0000 0.36927  0.79893  0.52973  Biso   1.000  H
  H99      1.0000 0.20107  0.57033  0.52973  Biso   1.000  H
  H100     1.0000 0.96407  0.09633  0.63693  Biso   1.000  H
  H101     1.0000 0.13227  0.03593  0.63693  Biso   1.000  H
  H102     1.0000 0.90367  0.86773  0.63693  Biso   1.000  H
  H103     1.0000 0.09633  0.96407  0.86307  Biso   1.000  H
  H104     1.0000 0.03593  0.13227  0.86307  Biso   1.000  H
  H105     1.0000 0.86773  0.90367  0.86307  Biso   1.000  H
  H106     1.0000 0.63073  0.42967  0.97027  Biso   1.000  H
  H107     1.0000 0.79893  0.36927  0.97027  Biso   1.000  H
  H108     1.0000 0.57033  0.20107  0.97027  Biso   1.000  H
  C109     1.0000 0.32040  0.79360  0.82120  Biso   1.000  C
  C110     1.0000 0.20640  0.52680  0.82120  Biso   1.000  C
  C111     1.0000 0.47320  0.67960  0.82120  Biso   1.000  C
  C112     1.0000 0.79360  0.32040  0.67880  Biso   1.000  C
  C113     1.0000 0.52680  0.20640  0.67880  Biso   1.000  C
  C114     1.0000 0.67960  0.47320  0.67880  Biso   1.000  C
  C115     1.0000 0.98707  0.12693  0.15453  Biso   1.000  C
  C116     1.0000 0.87307  0.86013  0.15453  Biso   1.000  C
  C117     1.0000 0.13987  0.01293  0.15453  Biso   1.000  C
  C118     1.0000 0.46027  0.65373  0.01213  Biso   1.000  C
  C119     1.0000 0.19347  0.53973  0.01213  Biso   1.000  C
  C120     1.0000 0.34627  0.80653  0.01213  Biso   1.000  C
  C121     1.0000 0.65373  0.46027  0.48787  Biso   1.000  C
  C122     1.0000 0.53973  0.19347  0.48787  Biso   1.000  C
  C123     1.0000 0.80653  0.34627  0.48787  Biso   1.000  C
  C124     1.0000 0.12693  0.98707  0.34547  Biso   1.000  C
  C125     1.0000 0.86013  0.87307  0.34547  Biso   1.000  C
  C126     1.0000 0.01293  0.13987  0.34547  Biso   1.000  C
  C127     1.0000 0.67960  0.20640  0.17880  Biso   1.000  C
  C128     1.0000 0.79360  0.47320  0.17880  Biso   1.000  C
  C129     1.0000 0.52680  0.32040  0.17880  Biso   1.000  C
  C130     1.0000 0.20640  0.67960  0.32120  Biso   1.000  C
  C131     1.0000 0.47320  0.79360  0.32120  Biso   1.000  C
  C132     1.0000 0.32040  0.52680  0.32120  Biso   1.000  C
  C133     1.0000 0.34627  0.53973  0.51213  Biso   1.000  C
  C134     1.0000 0.46027  0.80653  0.51213  Biso   1.000  C
  C135     1.0000 0.19347  0.65373  0.51213  Biso   1.000  C
  C136     1.0000 0.87307  0.01293  0.65453  Biso   1.000  C
  C137     1.0000 0.13987  0.12693  0.65453  Biso   1.000  C
  C138     1.0000 0.98707  0.86013  0.65453  Biso   1.000  C
  C139     1.0000 0.01293  0.87307  0.84547  Biso   1.000  C
  C140     1.0000 0.12693  0.13987  0.84547  Biso   1.000  C
  C141     1.0000 0.86013  0.98707  0.84547  Biso   1.000  C
  C142     1.0000 0.53973  0.34627  0.98787  Biso   1.000  C
  C143     1.0000 0.80653  0.46027  0.98787  Biso   1.000  C
  C144     1.0000 0.65373  0.19347  0.98787  Biso   1.000  C
  H109     1.0000 0.29130  0.76760  0.83230  Biso   1.000  H
  H110     1.0000 0.23240  0.52370  0.83230  Biso   1.000  H
  H111     1.0000 0.47630  0.70870  0.83230  Biso   1.000  H
  H112     1.0000 0.76760  0.29130  0.66770  Biso   1.000  H
  H113     1.0000 0.52370  0.23240  0.66770  Biso   1.000  H
  H114     1.0000 0.70870  0.47630  0.66770  Biso   1.000  H
  H115     1.0000 0.95797  0.10093  0.16563  Biso   1.000  H
  H116     1.0000 0.89907  0.85703  0.16563  Biso   1.000  H
  H117     1.0000 0.14297  0.04203  0.16563  Biso   1.000  H
  H118     1.0000 0.43427  0.62463  0.00103  Biso   1.000  H
  H119     1.0000 0.19037  0.56573  0.00103  Biso   1.000  H
  H120     1.0000 0.37537  0.80963  0.00103  Biso   1.000  H
  H121     1.0000 0.62463  0.43427  0.49897  Biso   1.000  H
  H122     1.0000 0.56573  0.19037  0.49897  Biso   1.000  H
  H123     1.0000 0.80963  0.37537  0.49897  Biso   1.000  H
  H124     1.0000 0.10093  0.95797  0.33437  Biso   1.000  H
  H125     1.0000 0.85703  0.89907  0.33437  Biso   1.000  H
  H126     1.0000 0.04203  0.14297  0.33437  Biso   1.000  H
  H127     1.0000 0.70870  0.23240  0.16770  Biso   1.000  H
  H128     1.0000 0.76760  0.47630  0.16770  Biso   1.000  H
  H129     1.0000 0.52370  0.29130  0.16770  Biso   1.000  H
  H130     1.0000 0.23240  0.70870  0.33230  Biso   1.000  H
  H131     1.0000 0.47630  0.76760  0.33230  Biso   1.000  H
  H132     1.0000 0.29130  0.52370  0.33230  Biso   1.000  H
  H133     1.0000 0.37537  0.56573  0.50103  Biso   1.000  H
  H134     1.0000 0.43427  0.80963  0.50103  Biso   1.000  H
  H135     1.0000 0.19037  0.62463  0.50103  Biso   1.000  H
  H136     1.0000 0.89907  0.04203  0.66563  Biso   1.000  H
  H137     1.0000 0.14297  0.10093  0.66563  Biso   1.000  H
  H138     1.0000 0.95797  0.85703  0.66563  Biso   1.000  H
  H139     1.0000 0.04203  0.89907  0.83437  Biso   1.000  H
  H140     1.0000 0.10093  0.14297  0.83437  Biso   1.000  H
  H141     1.0000 0.85703  0.95797  0.83437  Biso   1.000  H
  H142     1.0000 0.56573  0.37537  0.99897  Biso   1.000  H
  H143     1.0000 0.80963  0.43427  0.99897  Biso   1.000  H
  H144     1.0000 0.62463  0.19037  0.99897  Biso   1.000  H
  C145     1.0000 0.39590  0.87088  0.82169  Biso   1.000  C
  C146     1.0000 0.12912  0.52502  0.82169  Biso   1.000  C
  C147     1.0000 0.47498  0.60410  0.82169  Biso   1.000  C
  C148     1.0000 0.87088  0.39590  0.67831  Biso   1.000  C
  C149     1.0000 0.52502  0.12912  0.67831  Biso   1.000  C
  C150     1.0000 0.60410  0.47498  0.67831  Biso   1.000  C
  C151     1.0000 0.06257  0.20421  0.15502  Biso   1.000  C
  C152     1.0000 0.79579  0.85835  0.15502  Biso   1.000  C
  C153     1.0000 0.14165  0.93743  0.15502  Biso   1.000  C
  C154     1.0000 0.53755  0.72923  0.01164  Biso   1.000  C
  C155     1.0000 0.19169  0.46245  0.01164  Biso   1.000  C
  C156     1.0000 0.27077  0.80831  0.01164  Biso   1.000  C
  C157     1.0000 0.72923  0.53755  0.48836  Biso   1.000  C
  C158     1.0000 0.46245  0.19169  0.48836  Biso   1.000  C
  C159     1.0000 0.80831  0.27077  0.48836  Biso   1.000  C
  C160     1.0000 0.20421  0.06257  0.34498  Biso   1.000  C
  C161     1.0000 0.85835  0.79579  0.34498  Biso   1.000  C
  C162     1.0000 0.93743  0.14165  0.34498  Biso   1.000  C
  C163     1.0000 0.60410  0.12912  0.17831  Biso   1.000  C
  C164     1.0000 0.87088  0.47498  0.17831  Biso   1.000  C
  C165     1.0000 0.52502  0.39590  0.17831  Biso   1.000  C
  C166     1.0000 0.12912  0.60410  0.32169  Biso   1.000  C
  C167     1.0000 0.47498  0.87088  0.32169  Biso   1.000  C
  C168     1.0000 0.39590  0.52502  0.32169  Biso   1.000  C
  C169     1.0000 0.27077  0.46245  0.51164  Biso   1.000  C
  C170     1.0000 0.53755  0.80831  0.51164  Biso   1.000  C
  C171     1.0000 0.19169  0.72923  0.51164  Biso   1.000  C
  C172     1.0000 0.79579  0.93743  0.65502  Biso   1.000  C
  C173     1.0000 0.14165  0.20421  0.65502  Biso   1.000  C
  C174     1.0000 0.06257  0.85835  0.65502  Biso   1.000  C
  C175     1.0000 0.93743  0.79579  0.84498  Biso   1.000  C
  C176     1.0000 0.20421  0.14165  0.84498  Biso   1.000  C
  C177     1.0000 0.85835  0.06257  0.84498  Biso   1.000  C
  C178     1.0000 0.46245  0.27077  0.98836  Biso   1.000  C
  C179     1.0000 0.80831  0.53755  0.98836  Biso   1.000  C
  C180     1.0000 0.72923  0.19169  0.98836  Biso   1.000  C
  C181     1.0000 0.43110  0.91610  0.83859  Biso   1.000  C
  C182     1.0000 0.08390  0.51500  0.83859  Biso   1.000  C
  C183     1.0000 0.48500  0.56890  0.83859  Biso   1.000  C
  C184     1.0000 0.91610  0.43110  0.66141  Biso   1.000  C
  C185     1.0000 0.51500  0.08390  0.66141  Biso   1.000  C
  C186     1.0000 0.56890  0.48500  0.66141  Biso   1.000  C
  C187     1.0000 0.09777  0.24943  0.17192  Biso   1.000  C
  C188     1.0000 0.75057  0.84833  0.17192  Biso   1.000  C
  C189     1.0000 0.15167  0.90223  0.17192  Biso   1.000  C
  C190     1.0000 0.58277  0.76443  0.99474  Biso   1.000  C
  C191     1.0000 0.18167  0.41723  0.99474  Biso   1.000  C
  C192     1.0000 0.23557  0.81833  0.99474  Biso   1.000  C
  C193     1.0000 0.76443  0.58277  0.50526  Biso   1.000  C
  C194     1.0000 0.41723  0.18167  0.50526  Biso   1.000  C
  C195     1.0000 0.81833  0.23557  0.50526  Biso   1.000  C
  C196     1.0000 0.24943  0.09777  0.32808  Biso   1.000  C
  C197     1.0000 0.84833  0.75057  0.32808  Biso   1.000  C
  C198     1.0000 0.90223  0.15167  0.32808  Biso   1.000  C
  C199     1.0000 0.56890  0.08390  0.16141  Biso   1.000  C
  C200     1.0000 0.91610  0.48500  0.16141  Biso   1.000  C
  C201     1.0000 0.51500  0.43110  0.16141  Biso   1.000  C
  C202     1.0000 0.08390  0.56890  0.33859  Biso   1.000  C
  C203     1.0000 0.48500  0.91610  0.33859  Biso   1.000  C
  C204     1.0000 0.43110  0.51500  0.33859  Biso   1.000  C
  C205     1.0000 0.23557  0.41723  0.49474  Biso   1.000  C
  C206     1.0000 0.58277  0.81833  0.49474  Biso   1.000  C
  C207     1.0000 0.18167  0.76443  0.49474  Biso   1.000  C
  C208     1.0000 0.75057  0.90223  0.67192  Biso   1.000  C
  C209     1.0000 0.15167  0.24943  0.67192  Biso   1.000  C
  C210     1.0000 0.09777  0.84833  0.67192  Biso   1.000  C
  C211     1.0000 0.90223  0.75057  0.82808  Biso   1.000  C
  C212     1.0000 0.24943  0.15167  0.82808  Biso   1.000  C
  C213     1.0000 0.84833  0.09777  0.82808  Biso   1.000  C
  C214     1.0000 0.41723  0.23557  0.00526  Biso   1.000  C
  C215     1.0000 0.81833  0.58277  0.00526  Biso   1.000  C
  C216     1.0000 0.76443  0.18167  0.00526  Biso   1.000  C
  C217     1.0000 0.46020  0.95840  0.85228  Biso   1.000  C
  C218     1.0000 0.04160  0.50180  0.85228  Biso   1.000  C
  C219     1.0000 0.49820  0.53980  0.85228  Biso   1.000  C
  C220     1.0000 0.95840  0.46020  0.64772  Biso   1.000  C
  C221     1.0000 0.50180  0.04160  0.64772  Biso   1.000  C
  C222     1.0000 0.53980  0.49820  0.64772  Biso   1.000  C
  C223     1.0000 0.12687  0.29173  0.18561  Biso   1.000  C
  C224     1.0000 0.70827  0.83513  0.18561  Biso   1.000  C
  C225     1.0000 0.16487  0.87313  0.18561  Biso   1.000  C
  C226     1.0000 0.62507  0.79353  0.98105  Biso   1.000  C
  C227     1.0000 0.16847  0.37493  0.98105  Biso   1.000  C
  C228     1.0000 0.20647  0.83153  0.98105  Biso   1.000  C
  C229     1.0000 0.79353  0.62507  0.51895  Biso   1.000  C
  C230     1.0000 0.37493  0.16847  0.51895  Biso   1.000  C
  C231     1.0000 0.83153  0.20647  0.51895  Biso   1.000  C
  C232     1.0000 0.29173  0.12687  0.31439  Biso   1.000  C
  C233     1.0000 0.83513  0.70827  0.31439  Biso   1.000  C
  C234     1.0000 0.87313  0.16487  0.31439  Biso   1.000  C
  C235     1.0000 0.53980  0.04160  0.14772  Biso   1.000  C
  C236     1.0000 0.95840  0.49820  0.14772  Biso   1.000  C
  C237     1.0000 0.50180  0.46020  0.14772  Biso   1.000  C
  C238     1.0000 0.04160  0.53980  0.35228  Biso   1.000  C
  C239     1.0000 0.49820  0.95840  0.35228  Biso   1.000  C
  C240     1.0000 0.46020  0.50180  0.35228  Biso   1.000  C
  C241     1.0000 0.20647  0.37493  0.48105  Biso   1.000  C
  C242     1.0000 0.62507  0.83153  0.48105  Biso   1.000  C
  C243     1.0000 0.16847  0.79353  0.48105  Biso   1.000  C
  C244     1.0000 0.70827  0.87313  0.68561  Biso   1.000  C
  C245     1.0000 0.16487  0.29173  0.68561  Biso   1.000  C
  C246     1.0000 0.12687  0.83513  0.68561  Biso   1.000  C
  C247     1.0000 0.87313  0.70827  0.81439  Biso   1.000  C
  C248     1.0000 0.29173  0.16487  0.81439  Biso   1.000  C
  C249     1.0000 0.83513  0.12687  0.81439  Biso   1.000  C
  C250     1.0000 0.37493  0.20647  0.01895  Biso   1.000  C
  C251     1.0000 0.83153  0.62507  0.01895  Biso   1.000  C
  C252     1.0000 0.79353  0.16847  0.01895  Biso   1.000  C
  C253     1.0000 0.48955  0.00940  0.86854  Biso   1.000  C
  C254     1.0000 0.99060  0.48015  0.86854  Biso   1.000  C
  C255     1.0000 0.51985  0.51045  0.86854  Biso   1.000  C
  C256     1.0000 0.00940  0.48955  0.63146  Biso   1.000  C
  C257     1.0000 0.48015  0.99060  0.63146  Biso   1.000  C
  C258     1.0000 0.51045  0.51985  0.63146  Biso   1.000  C
  C259     1.0000 0.15622  0.34273  0.20187  Biso   1.000  C
  C260     1.0000 0.65727  0.81348  0.20187  Biso   1.000  C
  C261     1.0000 0.18652  0.84378  0.20187  Biso   1.000  C
  C262     1.0000 0.67607  0.82288  0.96479  Biso   1.000  C
  C263     1.0000 0.14682  0.32393  0.96479  Biso   1.000  C
  C264     1.0000 0.17712  0.85318  0.96479  Biso   1.000  C
  C265     1.0000 0.82288  0.67607  0.53521  Biso   1.000  C
  C266     1.0000 0.32393  0.14682  0.53521  Biso   1.000  C
  C267     1.0000 0.85318  0.17712  0.53521  Biso   1.000  C
  C268     1.0000 0.34273  0.15622  0.29813  Biso   1.000  C
  C269     1.0000 0.81348  0.65727  0.29813  Biso   1.000  C
  C270     1.0000 0.84378  0.18652  0.29813  Biso   1.000  C
  C271     1.0000 0.51045  0.99060  0.13146  Biso   1.000  C
  C272     1.0000 0.00940  0.51985  0.13146  Biso   1.000  C
  C273     1.0000 0.48015  0.48955  0.13146  Biso   1.000  C
  C274     1.0000 0.99060  0.51045  0.36854  Biso   1.000  C
  C275     1.0000 0.51985  0.00940  0.36854  Biso   1.000  C
  C276     1.0000 0.48955  0.48015  0.36854  Biso   1.000  C
  C277     1.0000 0.17712  0.32393  0.46479  Biso   1.000  C
  C278     1.0000 0.67607  0.85318  0.46479  Biso   1.000  C
  C279     1.0000 0.14682  0.82288  0.46479  Biso   1.000  C
  C280     1.0000 0.65727  0.84378  0.70187  Biso   1.000  C
  C281     1.0000 0.18652  0.34273  0.70187  Biso   1.000  C
  C282     1.0000 0.15622  0.81348  0.70187  Biso   1.000  C
  C283     1.0000 0.84378  0.65727  0.79813  Biso   1.000  C
  C284     1.0000 0.34273  0.18652  0.79813  Biso   1.000  C
  C285     1.0000 0.81348  0.15622  0.79813  Biso   1.000  C
  C286     1.0000 0.32393  0.17712  0.03521  Biso   1.000  C
  C287     1.0000 0.85318  0.67607  0.03521  Biso   1.000  C
  C288     1.0000 0.82288  0.14682  0.03521  Biso   1.000  C
  C289     1.0000 0.56690  0.02910  0.87666  Biso   1.000  C
  C290     1.0000 0.97090  0.53780  0.87666  Biso   1.000  C
  C291     1.0000 0.46220  0.43310  0.87666  Biso   1.000  C
  C292     1.0000 0.02910  0.56690  0.62334  Biso   1.000  C
  C293     1.0000 0.53780  0.97090  0.62334  Biso   1.000  C
  C294     1.0000 0.43310  0.46220  0.62334  Biso   1.000  C
  C295     1.0000 0.23357  0.36243  0.20999  Biso   1.000  C
  C296     1.0000 0.63757  0.87113  0.20999  Biso   1.000  C
  C297     1.0000 0.12887  0.76643  0.20999  Biso   1.000  C
  C298     1.0000 0.69577  0.90023  0.95667  Biso   1.000  C
  C299     1.0000 0.20447  0.30423  0.95667  Biso   1.000  C
  C300     1.0000 0.09977  0.79553  0.95667  Biso   1.000  C
  C301     1.0000 0.90023  0.69577  0.54333  Biso   1.000  C
  C302     1.0000 0.30423  0.20447  0.54333  Biso   1.000  C
  C303     1.0000 0.79553  0.09977  0.54333  Biso   1.000  C
  C304     1.0000 0.36243  0.23357  0.29001  Biso   1.000  C
  C305     1.0000 0.87113  0.63757  0.29001  Biso   1.000  C
  C306     1.0000 0.76643  0.12887  0.29001  Biso   1.000  C
  C307     1.0000 0.43310  0.97090  0.12334  Biso   1.000  C
  C308     1.0000 0.02910  0.46220  0.12334  Biso   1.000  C
  C309     1.0000 0.53780  0.56690  0.12334  Biso   1.000  C
  C310     1.0000 0.97090  0.43310  0.37666  Biso   1.000  C
  C311     1.0000 0.46220  0.02910  0.37666  Biso   1.000  C
  C312     1.0000 0.56690  0.53780  0.37666  Biso   1.000  C
  C313     1.0000 0.09977  0.30423  0.45667  Biso   1.000  C
  C314     1.0000 0.69577  0.79553  0.45667  Biso   1.000  C
  C315     1.0000 0.20447  0.90023  0.45667  Biso   1.000  C
  C316     1.0000 0.63757  0.76643  0.70999  Biso   1.000  C
  C317     1.0000 0.12887  0.36243  0.70999  Biso   1.000  C
  C318     1.0000 0.23357  0.87113  0.70999  Biso   1.000  C
  C319     1.0000 0.76643  0.63757  0.79001  Biso   1.000  C
  C320     1.0000 0.36243  0.12887  0.79001  Biso   1.000  C
  C321     1.0000 0.87113  0.23357  0.79001  Biso   1.000  C
  C322     1.0000 0.30423  0.09977  0.04333  Biso   1.000  C
  C323     1.0000 0.79553  0.69577  0.04333  Biso   1.000  C
  C324     1.0000 0.90023  0.20447  0.04333  Biso   1.000  C
  H145     1.0000 0.60110  0.00900  0.87130  Biso   1.000  H
  H146     1.0000 0.99100  0.59210  0.87130  Biso   1.000  H
  H147     1.0000 0.40790  0.39890  0.87130  Biso   1.000  H
  H148     1.0000 0.00900  0.60110  0.62870  Biso   1.000  H
  H149     1.0000 0.59210  0.99100  0.62870  Biso   1.000  H
  H150     1.0000 0.39890  0.40790  0.62870  Biso   1.000  H
  H151     1.0000 0.26777  0.34233  0.20463  Biso   1.000  H
  H152     1.0000 0.65767  0.92543  0.20463  Biso   1.000  H
  H153     1.0000 0.07457  0.73223  0.20463  Biso   1.000  H
  H154     1.0000 0.67567  0.93443  0.96203  Biso   1.000  H
  H155     1.0000 0.25877  0.32433  0.96203  Biso   1.000  H
  H156     1.0000 0.06557  0.74123  0.96203  Biso   1.000  H
  H157     1.0000 0.93443  0.67567  0.53797  Biso   1.000  H
  H158     1.0000 0.32433  0.25877  0.53797  Biso   1.000  H
  H159     1.0000 0.74123  0.06557  0.53797  Biso   1.000  H
  H160     1.0000 0.34233  0.26777  0.29537  Biso   1.000  H
  H161     1.0000 0.92543  0.65767  0.29537  Biso   1.000  H
  H162     1.0000 0.73223  0.07457  0.29537  Biso   1.000  H
  H163     1.0000 0.39890  0.99100  0.12870  Biso   1.000  H
  H164     1.0000 0.00900  0.40790  0.12870  Biso   1.000  H
  H165     1.0000 0.59210  0.60110  0.12870  Biso   1.000  H
  H166     1.0000 0.99100  0.39890  0.37130  Biso   1.000  H
  H167     1.0000 0.40790  0.00900  0.37130  Biso   1.000  H
  H168     1.0000 0.60110  0.59210  0.37130  Biso   1.000  H
  H169     1.0000 0.06557  0.32433  0.46203  Biso   1.000  H
  H170     1.0000 0.67567  0.74123  0.46203  Biso   1.000  H
  H171     1.0000 0.25877  0.93443  0.46203  Biso   1.000  H
  H172     1.0000 0.65767  0.73223  0.70463  Biso   1.000  H
  H173     1.0000 0.07457  0.34233  0.70463  Biso   1.000  H
  H174     1.0000 0.26777  0.92543  0.70463  Biso   1.000  H
  H175     1.0000 0.73223  0.65767  0.79537  Biso   1.000  H
  H176     1.0000 0.34233  0.07457  0.79537  Biso   1.000  H
  H177     1.0000 0.92543  0.26777  0.79537  Biso   1.000  H
  H178     1.0000 0.32433  0.06557  0.03797  Biso   1.000  H
  H179     1.0000 0.74123  0.67567  0.03797  Biso   1.000  H
  H180     1.0000 0.93443  0.25877  0.03797  Biso   1.000  H
  C325     1.0000 0.59355  0.07798  0.89252  Biso   1.000  C
  C326     1.0000 0.92202  0.51557  0.89252  Biso   1.000  C
  C327     1.0000 0.48443  0.40645  0.89252  Biso   1.000  C
  C328     1.0000 0.07798  0.59355  0.60748  Biso   1.000  C
  C329     1.0000 0.51557  0.92202  0.60748  Biso   1.000  C
  C330     1.0000 0.40645  0.48443  0.60748  Biso   1.000  C
  C331     1.0000 0.26022  0.41131  0.22585  Biso   1.000  C
  C332     1.0000 0.58869  0.84890  0.22585  Biso   1.000  C
  C333     1.0000 0.15110  0.73978  0.22585  Biso   1.000  C
  C334     1.0000 0.74465  0.92688  0.94081  Biso   1.000  C
  C335     1.0000 0.18224  0.25535  0.94081  Biso   1.000  C
  C336     1.0000 0.07312  0.81776  0.94081  Biso   1.000  C
  C337     1.0000 0.92688  0.74465  0.55919  Biso   1.000  C
  C338     1.0000 0.25535  0.18224  0.55919  Biso   1.000  C
  C339     1.0000 0.81776  0.07312  0.55919  Biso   1.000  C
  C340     1.0000 0.41131  0.26022  0.27415  Biso   1.000  C
  C341     1.0000 0.84890  0.58869  0.27415  Biso   1.000  C
  C342     1.0000 0.73978  0.15110  0.27415  Biso   1.000  C
  C343     1.0000 0.40645  0.92202  0.10748  Biso   1.000  C
  C344     1.0000 0.07798  0.48443  0.10748  Biso   1.000  C
  C345     1.0000 0.51557  0.59355  0.10748  Biso   1.000  C
  C346     1.0000 0.92202  0.40645  0.39252  Biso   1.000  C
  C347     1.0000 0.48443  0.07798  0.39252  Biso   1.000  C
  C348     1.0000 0.59355  0.51557  0.39252  Biso   1.000  C
  C349     1.0000 0.07312  0.25535  0.44081  Biso   1.000  C
  C350     1.0000 0.74465  0.81776  0.44081  Biso   1.000  C
  C351     1.0000 0.18224  0.92688  0.44081  Biso   1.000  C
  C352     1.0000 0.58869  0.73978  0.72585  Biso   1.000  C
  C353     1.0000 0.15110  0.41131  0.72585  Biso   1.000  C
  C354     1.0000 0.26022  0.84890  0.72585  Biso   1.000  C
  C355     1.0000 0.73978  0.58869  0.77415  Biso   1.000  C
  C356     1.0000 0.41131  0.15110  0.77415  Biso   1.000  C
  C357     1.0000 0.84890  0.26022  0.77415  Biso   1.000  C
  C358     1.0000 0.25535  0.07312  0.05919  Biso   1.000  C
  C359     1.0000 0.81776  0.74465  0.05919  Biso   1.000  C
  C360     1.0000 0.92688  0.18224  0.05919  Biso   1.000  C
  C361     1.0000 0.54359  0.10798  0.90035  Biso   1.000  C
  C362     1.0000 0.89202  0.43561  0.90035  Biso   1.000  C
  C363     1.0000 0.56439  0.45641  0.90035  Biso   1.000  C
  C364     1.0000 0.10798  0.54359  0.59965  Biso   1.000  C
  C365     1.0000 0.43561  0.89202  0.59965  Biso   1.000  C
  C366     1.0000 0.45641  0.56439  0.59965  Biso   1.000  C
  C367     1.0000 0.21026  0.44131  0.23368  Biso   1.000  C
  C368     1.0000 0.55869  0.76894  0.23368  Biso   1.000  C
  C369     1.0000 0.23106  0.78974  0.23368  Biso   1.000  C
  C370     1.0000 0.77465  0.87692  0.93298  Biso   1.000  C
  C371     1.0000 0.10228  0.22535  0.93298  Biso   1.000  C
  C372     1.0000 0.12308  0.89772  0.93298  Biso   1.000  C
  C373     1.0000 0.87692  0.77465  0.56702  Biso   1.000  C
  C374     1.0000 0.22535  0.10228  0.56702  Biso   1.000  C
  C375     1.0000 0.89772  0.12308  0.56702  Biso   1.000  C
  C376     1.0000 0.44131  0.21026  0.26632  Biso   1.000  C
  C377     1.0000 0.76894  0.55869  0.26632  Biso   1.000  C
  C378     1.0000 0.78974  0.23106  0.26632  Biso   1.000  C
  C379     1.0000 0.45641  0.89202  0.09965  Biso   1.000  C
  C380     1.0000 0.10798  0.56439  0.09965  Biso   1.000  C
  C381     1.0000 0.43561  0.54359  0.09965  Biso   1.000  C
  C382     1.0000 0.89202  0.45641  0.40035  Biso   1.000  C
  C383     1.0000 0.56439  0.10798  0.40035  Biso   1.000  C
  C384     1.0000 0.54359  0.43561  0.40035  Biso   1.000  C
  C385     1.0000 0.12308  0.22535  0.43298  Biso   1.000  C
  C386     1.0000 0.77465  0.89772  0.43298  Biso   1.000  C
  C387     1.0000 0.10228  0.87692  0.43298  Biso   1.000  C
  C388     1.0000 0.55869  0.78974  0.73368  Biso   1.000  C
  C389     1.0000 0.23106  0.44131  0.73368  Biso   1.000  C
  C390     1.0000 0.21026  0.76894  0.73368  Biso   1.000  C
  C391     1.0000 0.78974  0.55869  0.76632  Biso   1.000  C
  C392     1.0000 0.44131  0.23106  0.76632  Biso   1.000  C
  C393     1.0000 0.76894  0.21026  0.76632  Biso   1.000  C
  C394     1.0000 0.22535  0.12308  0.06702  Biso   1.000  C
  C395     1.0000 0.89772  0.77465  0.06702  Biso   1.000  C
  C396     1.0000 0.87692  0.10228  0.06702  Biso   1.000  C
  H181     1.0000 0.56150  0.14060  0.91130  Biso   1.000  H
  H182     1.0000 0.85940  0.42090  0.91130  Biso   1.000  H
  H183     1.0000 0.57910  0.43850  0.91130  Biso   1.000  H
  H184     1.0000 0.14060  0.56150  0.58870  Biso   1.000  H
  H185     1.0000 0.42090  0.85940  0.58870  Biso   1.000  H
  H186     1.0000 0.43850  0.57910  0.58870  Biso   1.000  H
  H187     1.0000 0.22817  0.47393  0.24463  Biso   1.000  H
  H188     1.0000 0.52607  0.75423  0.24463  Biso   1.000  H
  H189     1.0000 0.24577  0.77183  0.24463  Biso   1.000  H
  H190     1.0000 0.80727  0.89483  0.92203  Biso   1.000  H
  H191     1.0000 0.08757  0.19273  0.92203  Biso   1.000  H
  H192     1.0000 0.10517  0.91243  0.92203  Biso   1.000  H
  H193     1.0000 0.89483  0.80727  0.57797  Biso   1.000  H
  H194     1.0000 0.19273  0.08757  0.57797  Biso   1.000  H
  H195     1.0000 0.91243  0.10517  0.57797  Biso   1.000  H
  H196     1.0000 0.47393  0.22817  0.25537  Biso   1.000  H
  H197     1.0000 0.75423  0.52607  0.25537  Biso   1.000  H
  H198     1.0000 0.77183  0.24577  0.25537  Biso   1.000  H
  H199     1.0000 0.43850  0.85940  0.08870  Biso   1.000  H
  H200     1.0000 0.14060  0.57910  0.08870  Biso   1.000  H
  H201     1.0000 0.42090  0.56150  0.08870  Biso   1.000  H
  H202     1.0000 0.85940  0.43850  0.41130  Biso   1.000  H
  H203     1.0000 0.57910  0.14060  0.41130  Biso   1.000  H
  H204     1.0000 0.56150  0.42090  0.41130  Biso   1.000  H
  H205     1.0000 0.10517  0.19273  0.42203  Biso   1.000  H
  H206     1.0000 0.80727  0.91243  0.42203  Biso   1.000  H
  H207     1.0000 0.08757  0.89483  0.42203  Biso   1.000  H
  H208     1.0000 0.52607  0.77183  0.74463  Biso   1.000  H
  H209     1.0000 0.24577  0.47393  0.74463  Biso   1.000  H
  H210     1.0000 0.22817  0.75423  0.74463  Biso   1.000  H
  H211     1.0000 0.77183  0.52607  0.75537  Biso   1.000  H
  H212     1.0000 0.47393  0.24577  0.75537  Biso   1.000  H
  H213     1.0000 0.75423  0.22817  0.75537  Biso   1.000  H
  H214     1.0000 0.19273  0.10517  0.07797  Biso   1.000  H
  H215     1.0000 0.91243  0.80727  0.07797  Biso   1.000  H
  H216     1.0000 0.89483  0.08757  0.07797  Biso   1.000  H
  C397     1.0000 0.46754  0.08997  0.89203  Biso   1.000  C
  C398     1.0000 0.91003  0.37757  0.89203  Biso   1.000  C
  C399     1.0000 0.62243  0.53246  0.89203  Biso   1.000  C
  C400     1.0000 0.08997  0.46754  0.60797  Biso   1.000  C
  C401     1.0000 0.37757  0.91003  0.60797  Biso   1.000  C
  C402     1.0000 0.53246  0.62243  0.60797  Biso   1.000  C
  C403     1.0000 0.13421  0.42330  0.22536  Biso   1.000  C
  C404     1.0000 0.57670  0.71090  0.22536  Biso   1.000  C
  C405     1.0000 0.28910  0.86579  0.22536  Biso   1.000  C
  C406     1.0000 0.75664  0.80087  0.94130  Biso   1.000  C
  C407     1.0000 0.04424  0.24336  0.94130  Biso   1.000  C
  C408     1.0000 0.19913  0.95576  0.94130  Biso   1.000  C
  C409     1.0000 0.80087  0.75664  0.55870  Biso   1.000  C
  C410     1.0000 0.24336  0.04424  0.55870  Biso   1.000  C
  C411     1.0000 0.95576  0.19913  0.55870  Biso   1.000  C
  C412     1.0000 0.42330  0.13421  0.27464  Biso   1.000  C
  C413     1.0000 0.71090  0.57670  0.27464  Biso   1.000  C
  C414     1.0000 0.86579  0.28910  0.27464  Biso   1.000  C
  C415     1.0000 0.53246  0.91003  0.10797  Biso   1.000  C
  C416     1.0000 0.08997  0.62243  0.10797  Biso   1.000  C
  C417     1.0000 0.37757  0.46754  0.10797  Biso   1.000  C
  C418     1.0000 0.91003  0.53246  0.39203  Biso   1.000  C
  C419     1.0000 0.62243  0.08997  0.39203  Biso   1.000  C
  C420     1.0000 0.46754  0.37757  0.39203  Biso   1.000  C
  C421     1.0000 0.19913  0.24336  0.44130  Biso   1.000  C
  C422     1.0000 0.75664  0.95576  0.44130  Biso   1.000  C
  C423     1.0000 0.04424  0.80087  0.44130  Biso   1.000  C
  C424     1.0000 0.57670  0.86579  0.72536  Biso   1.000  C
  C425     1.0000 0.28910  0.42330  0.72536  Biso   1.000  C
  C426     1.0000 0.13421  0.71090  0.72536  Biso   1.000  C
  C427     1.0000 0.86579  0.57670  0.77464  Biso   1.000  C
  C428     1.0000 0.42330  0.28910  0.77464  Biso   1.000  C
  C429     1.0000 0.71090  0.13421  0.77464  Biso   1.000  C
  C430     1.0000 0.24336  0.19913  0.05870  Biso   1.000  C
  C431     1.0000 0.95576  0.75664  0.05870  Biso   1.000  C
  C432     1.0000 0.80087  0.04424  0.05870  Biso   1.000  C
  C433     1.0000 0.44079  0.04120  0.87616  Biso   1.000  C
  C434     1.0000 0.95880  0.39959  0.87616  Biso   1.000  C
  C435     1.0000 0.60041  0.55921  0.87616  Biso   1.000  C
  C436     1.0000 0.04120  0.44079  0.62384  Biso   1.000  C
  C437     1.0000 0.39959  0.95880  0.62384  Biso   1.000  C
  C438     1.0000 0.55921  0.60041  0.62384  Biso   1.000  C
  C439     1.0000 0.10746  0.37453  0.20949  Biso   1.000  C
  C440     1.0000 0.62547  0.73292  0.20949  Biso   1.000  C
  C441     1.0000 0.26708  0.89254  0.20949  Biso   1.000  C
  C442     1.0000 0.70787  0.77412  0.95717  Biso   1.000  C
  C443     1.0000 0.06626  0.29213  0.95717  Biso   1.000  C
  C444     1.0000 0.22588  0.93374  0.95717  Biso   1.000  C
  C445     1.0000 0.77412  0.70787  0.54283  Biso   1.000  C
  C446     1.0000 0.29213  0.06626  0.54283  Biso   1.000  C
  C447     1.0000 0.93374  0.22588  0.54283  Biso   1.000  C
  C448     1.0000 0.37453  0.10746  0.29051  Biso   1.000  C
  C449     1.0000 0.73292  0.62547  0.29051  Biso   1.000  C
  C450     1.0000 0.89254  0.26708  0.29051  Biso   1.000  C
  C451     1.0000 0.55921  0.95880  0.12384  Biso   1.000  C
  C452     1.0000 0.04120  0.60041  0.12384  Biso   1.000  C
  C453     1.0000 0.39959  0.44079  0.12384  Biso   1.000  C
  C454     1.0000 0.95880  0.55921  0.37616  Biso   1.000  C
  C455     1.0000 0.60041  0.04120  0.37616  Biso   1.000  C
  C456     1.0000 0.44079  0.39959  0.37616  Biso   1.000  C
  C457     1.0000 0.22588  0.29213  0.45717  Biso   1.000  C
  C458     1.0000 0.70787  0.93374  0.45717  Biso   1.000  C
  C459     1.0000 0.06626  0.77412  0.45717  Biso   1.000  C
  C460     1.0000 0.62547  0.89254  0.70949  Biso   1.000  C
  C461     1.0000 0.26708  0.37453  0.70949  Biso   1.000  C
  C462     1.0000 0.10746  0.73292  0.70949  Biso   1.000  C
  C463     1.0000 0.89254  0.62547  0.79051  Biso   1.000  C
  C464     1.0000 0.37453  0.26708  0.79051  Biso   1.000  C
  C465     1.0000 0.73292  0.10746  0.79051  Biso   1.000  C
  C466     1.0000 0.29213  0.22588  0.04283  Biso   1.000  C
  C467     1.0000 0.93374  0.70787  0.04283  Biso   1.000  C
  C468     1.0000 0.77412  0.06626  0.04283  Biso   1.000  C
  H217     1.0000 0.38920  0.02940  0.87040  Biso   1.000  H
  H218     1.0000 0.97060  0.35980  0.87040  Biso   1.000  H
  H219     1.0000 0.64020  0.61080  0.87040  Biso   1.000  H
  H220     1.0000 0.02940  0.38920  0.62960  Biso   1.000  H
  H221     1.0000 0.35980  0.97060  0.62960  Biso   1.000  H
  H222     1.0000 0.61080  0.64020  0.62960  Biso   1.000  H
  H223     1.0000 0.05587  0.36273  0.20373  Biso   1.000  H
  H224     1.0000 0.63727  0.69313  0.20373  Biso   1.000  H
  H225     1.0000 0.30687  0.94413  0.20373  Biso   1.000  H
  H226     1.0000 0.69607  0.72253  0.96293  Biso   1.000  H
  H227     1.0000 0.02647  0.30393  0.96293  Biso   1.000  H
  H228     1.0000 0.27747  0.97353  0.96293  Biso   1.000  H
  H229     1.0000 0.72253  0.69607  0.53707  Biso   1.000  H
  H230     1.0000 0.30393  0.02647  0.53707  Biso   1.000  H
  H231     1.0000 0.97353  0.27747  0.53707  Biso   1.000  H
  H232     1.0000 0.36273  0.05587  0.29627  Biso   1.000  H
  H233     1.0000 0.69313  0.63727  0.29627  Biso   1.000  H
  H234     1.0000 0.94413  0.30687  0.29627  Biso   1.000  H
  H235     1.0000 0.61080  0.97060  0.12960  Biso   1.000  H
  H236     1.0000 0.02940  0.64020  0.12960  Biso   1.000  H
  H237     1.0000 0.35980  0.38920  0.12960  Biso   1.000  H
  H238     1.0000 0.97060  0.61080  0.37040  Biso   1.000  H
  H239     1.0000 0.64020  0.02940  0.37040  Biso   1.000  H
  H240     1.0000 0.38920  0.35980  0.37040  Biso   1.000  H
  H241     1.0000 0.27747  0.30393  0.46293  Biso   1.000  H
  H242     1.0000 0.69607  0.97353  0.46293  Biso   1.000  H
  H243     1.0000 0.02647  0.72253  0.46293  Biso   1.000  H
  H244     1.0000 0.63727  0.94413  0.70373  Biso   1.000  H
  H245     1.0000 0.30687  0.36273  0.70373  Biso   1.000  H
  H246     1.0000 0.05587  0.69313  0.70373  Biso   1.000  H
  H247     1.0000 0.94413  0.63727  0.79627  Biso   1.000  H
  H248     1.0000 0.36273  0.30687  0.79627  Biso   1.000  H
  H249     1.0000 0.69313  0.05587  0.79627  Biso   1.000  H
  H250     1.0000 0.30393  0.27747  0.03707  Biso   1.000  H
  H251     1.0000 0.97353  0.69607  0.03707  Biso   1.000  H
  H252     1.0000 0.72253  0.02647  0.03707  Biso   1.000  H
  C469     1.0000 0.67552  0.10152  0.90151  Biso   1.000  C
  C470     1.0000 0.89848  0.57400  0.90151  Biso   1.000  C
  C471     1.0000 0.42600  0.32448  0.90151  Biso   1.000  C
  C472     1.0000 0.10152  0.67552  0.59849  Biso   1.000  C
  C473     1.0000 0.57400  0.89848  0.59849  Biso   1.000  C
  C474     1.0000 0.32448  0.42600  0.59849  Biso   1.000  C
  C475     1.0000 0.34219  0.43485  0.23484  Biso   1.000  C
  C476     1.0000 0.56515  0.90733  0.23484  Biso   1.000  C
  C477     1.0000 0.09267  0.65781  0.23484  Biso   1.000  C
  C478     1.0000 0.76819  0.00885  0.93182  Biso   1.000  C
  C479     1.0000 0.24067  0.23181  0.93182  Biso   1.000  C
  C480     1.0000 0.99115  0.75933  0.93182  Biso   1.000  C
  C481     1.0000 0.00885  0.76819  0.56818  Biso   1.000  C
  C482     1.0000 0.23181  0.24067  0.56818  Biso   1.000  C
  C483     1.0000 0.75933  0.99115  0.56818  Biso   1.000  C
  C484     1.0000 0.43485  0.34219  0.26516  Biso   1.000  C
  C485     1.0000 0.90733  0.56515  0.26516  Biso   1.000  C
  C486     1.0000 0.65781  0.09267  0.26516  Biso   1.000  C
  C487     1.0000 0.32448  0.89848  0.09849  Biso   1.000  C
  C488     1.0000 0.10152  0.42600  0.09849  Biso   1.000  C
  C489     1.0000 0.57400  0.67552  0.09849  Biso   1.000  C
  C490     1.0000 0.89848  0.32448  0.40151  Biso   1.000  C
  C491     1.0000 0.42600  0.10152  0.40151  Biso   1.000  C
  C492     1.0000 0.67552  0.57400  0.40151  Biso   1.000  C
  C493     1.0000 0.99115  0.23181  0.43182  Biso   1.000  C
  C494     1.0000 0.76819  0.75933  0.43182  Biso   1.000  C
  C495     1.0000 0.24067  0.00885  0.43182  Biso   1.000  C
  C496     1.0000 0.56515  0.65781  0.73484  Biso   1.000  C
  C497     1.0000 0.09267  0.43485  0.73484  Biso   1.000  C
  C498     1.0000 0.34219  0.90733  0.73484  Biso   1.000  C
  C499     1.0000 0.65781  0.56515  0.76516  Biso   1.000  C
  C500     1.0000 0.43485  0.09267  0.76516  Biso   1.000  C
  C501     1.0000 0.90733  0.34219  0.76516  Biso   1.000  C
  C502     1.0000 0.23181  0.99115  0.06818  Biso   1.000  C
  C503     1.0000 0.75933  0.76819  0.06818  Biso   1.000  C
  C504     1.0000 0.00885  0.24067  0.06818  Biso   1.000  C
  C505     1.0000 0.41678  0.12522  0.90053  Biso   1.000  C
  C506     1.0000 0.87478  0.29156  0.90053  Biso   1.000  C
  C507     1.0000 0.70844  0.58322  0.90053  Biso   1.000  C
  C508     1.0000 0.12522  0.41678  0.59947  Biso   1.000  C
  C509     1.0000 0.29156  0.87478  0.59947  Biso   1.000  C
  C510     1.0000 0.58322  0.70844  0.59947  Biso   1.000  C
  C511     1.0000 0.08345  0.45855  0.23386  Biso   1.000  C
  C512     1.0000 0.54145  0.62489  0.23386  Biso   1.000  C
  C513     1.0000 0.37511  0.91655  0.23386  Biso   1.000  C
  C514     1.0000 0.79189  0.75011  0.93280  Biso   1.000  C
  C515     1.0000 0.95823  0.20811  0.93280  Biso   1.000  C
  C516     1.0000 0.24989  0.04177  0.93280  Biso   1.000  C
  C517     1.0000 0.75011  0.79189  0.56720  Biso   1.000  C
  C518     1.0000 0.20811  0.95823  0.56720  Biso   1.000  C
  C519     1.0000 0.04177  0.24989  0.56720  Biso   1.000  C
  C520     1.0000 0.45855  0.08345  0.26614  Biso   1.000  C
  C521     1.0000 0.62489  0.54145  0.26614  Biso   1.000  C
  C522     1.0000 0.91655  0.37511  0.26614  Biso   1.000  C
  C523     1.0000 0.58322  0.87478  0.09947  Biso   1.000  C
  C524     1.0000 0.12522  0.70844  0.09947  Biso   1.000  C
  C525     1.0000 0.29156  0.41678  0.09947  Biso   1.000  C
  C526     1.0000 0.87478  0.58322  0.40053  Biso   1.000  C
  C527     1.0000 0.70844  0.12522  0.40053  Biso   1.000  C
  C528     1.0000 0.41678  0.29156  0.40053  Biso   1.000  C
  C529     1.0000 0.24989  0.20811  0.43280  Biso   1.000  C
  C530     1.0000 0.79189  0.04177  0.43280  Biso   1.000  C
  C531     1.0000 0.95823  0.75011  0.43280  Biso   1.000  C
  C532     1.0000 0.54145  0.91655  0.73386  Biso   1.000  C
  C533     1.0000 0.37511  0.45855  0.73386  Biso   1.000  C
  C534     1.0000 0.08345  0.62489  0.73386  Biso   1.000  C
  C535     1.0000 0.91655  0.54145  0.76614  Biso   1.000  C
  C536     1.0000 0.45855  0.37511  0.76614  Biso   1.000  C
  C537     1.0000 0.62489  0.08345  0.76614  Biso   1.000  C
  C538     1.0000 0.20811  0.24989  0.06720  Biso   1.000  C
  C539     1.0000 0.04177  0.79189  0.06720  Biso   1.000  C
  C540     1.0000 0.75011  0.95823  0.06720  Biso   1.000  C
