data_image0
_cell_length_a       18.218
_cell_length_b       18.218
_cell_length_c       72.761
_cell_angle_alpha    90
_cell_angle_beta     90
_cell_angle_gamma    120

_symmetry_space_group_name_H-M    "P 1"
_symmetry_int_tables_number       1

loop_
  _symmetry_equiv_pos_as_xyz
  'x, y, z'

loop_
  _atom_site_label
  _atom_site_occupancy
  _atom_site_fract_x
  _atom_site_fract_y
  _atom_site_fract_z
  _atom_site_thermal_displace_type
  _atom_site_B_iso_or_equiv
  _atom_site_type_symbol
  Cu1      1.0000 0.78612  0.17125  0.93104  Biso   1.000  Cu
  Cu2      1.0000 0.82875  0.61487  0.93104  Biso   1.000  Cu
  Cu3      1.0000 0.38513  0.21388  0.93104  Biso   1.000  Cu
  Cu4      1.0000 0.17125  0.78612  0.56896  Biso   1.000  Cu
  Cu5      1.0000 0.61487  0.82875  0.56896  Biso   1.000  Cu
  Cu6      1.0000 0.21388  0.38513  0.56896  Biso   1.000  Cu
  Cu7      1.0000 0.45278  0.50458  0.26438  Biso   1.000  Cu
  Cu8      1.0000 0.49542  0.94820  0.26438  Biso   1.000  Cu
  Cu9      1.0000 0.05180  0.54722  0.26438  Biso   1.000  Cu
  Cu10     1.0000 0.83791  0.11945  0.90229  Biso   1.000  Cu
  Cu11     1.0000 0.28154  0.16209  0.90229  Biso   1.000  Cu
  Cu12     1.0000 0.88055  0.71846  0.90229  Biso   1.000  Cu
  Cu13     1.0000 0.11945  0.83791  0.59771  Biso   1.000  Cu
  Cu14     1.0000 0.16209  0.28154  0.59771  Biso   1.000  Cu
  Cu15     1.0000 0.71846  0.88055  0.59771  Biso   1.000  Cu
  Cu16     1.0000 0.50458  0.45278  0.23562  Biso   1.000  Cu
  Cu17     1.0000 0.94820  0.49542  0.23562  Biso   1.000  Cu
  Cu18     1.0000 0.54722  0.05180  0.23562  Biso   1.000  Cu
  Cu19     1.0000 0.21388  0.82875  0.06896  Biso   1.000  Cu
  Cu20     1.0000 0.17125  0.38513  0.06896  Biso   1.000  Cu
  Cu21     1.0000 0.61487  0.78612  0.06896  Biso   1.000  Cu
  Cu22     1.0000 0.82875  0.21388  0.43104  Biso   1.000  Cu
  Cu23     1.0000 0.38513  0.17125  0.43104  Biso   1.000  Cu
  Cu24     1.0000 0.78612  0.61487  0.43104  Biso   1.000  Cu
  Cu25     1.0000 0.88055  0.16209  0.40229  Biso   1.000  Cu
  Cu26     1.0000 0.83791  0.71846  0.40229  Biso   1.000  Cu
  Cu27     1.0000 0.28154  0.11945  0.40229  Biso   1.000  Cu
  Cu28     1.0000 0.49542  0.54722  0.76438  Biso   1.000  Cu
  Cu29     1.0000 0.05180  0.50458  0.76438  Biso   1.000  Cu
  Cu30     1.0000 0.45278  0.94820  0.76438  Biso   1.000  Cu
  Cu31     1.0000 0.54722  0.49542  0.73562  Biso   1.000  Cu
  Cu32     1.0000 0.50458  0.05180  0.73562  Biso   1.000  Cu
  Cu33     1.0000 0.94820  0.45278  0.73562  Biso   1.000  Cu
  Cu34     1.0000 0.16209  0.88055  0.09771  Biso   1.000  Cu
  Cu35     1.0000 0.71846  0.83791  0.09771  Biso   1.000  Cu
  Cu36     1.0000 0.11945  0.28154  0.09771  Biso   1.000  Cu
  O1       1.0000 0.68182  0.13062  0.91756  Biso   1.000  O
  O2       1.0000 0.86938  0.55120  0.91756  Biso   1.000  O
  O3       1.0000 0.44880  0.31818  0.91756  Biso   1.000  O
  O4       1.0000 0.13062  0.68182  0.58244  Biso   1.000  O
  O5       1.0000 0.55120  0.86938  0.58244  Biso   1.000  O
  O6       1.0000 0.31818  0.44880  0.58244  Biso   1.000  O
  O7       1.0000 0.34849  0.46395  0.25089  Biso   1.000  O
  O8       1.0000 0.53605  0.88453  0.25089  Biso   1.000  O
  O9       1.0000 0.11547  0.65151  0.25089  Biso   1.000  O
  O10      1.0000 0.79729  0.01515  0.91577  Biso   1.000  O
  O11      1.0000 0.21787  0.20271  0.91577  Biso   1.000  O
  O12      1.0000 0.98485  0.78213  0.91577  Biso   1.000  O
  O13      1.0000 0.01515  0.79729  0.58423  Biso   1.000  O
  O14      1.0000 0.20271  0.21787  0.58423  Biso   1.000  O
  O15      1.0000 0.78213  0.98485  0.58423  Biso   1.000  O
  O16      1.0000 0.46395  0.34849  0.24911  Biso   1.000  O
  O17      1.0000 0.88453  0.53605  0.24911  Biso   1.000  O
  O18      1.0000 0.65151  0.11547  0.24911  Biso   1.000  O
  O19      1.0000 0.31818  0.86938  0.08244  Biso   1.000  O
  O20      1.0000 0.13062  0.44880  0.08244  Biso   1.000  O
  O21      1.0000 0.55120  0.68182  0.08244  Biso   1.000  O
  O22      1.0000 0.86938  0.31818  0.41756  Biso   1.000  O
  O23      1.0000 0.44880  0.13062  0.41756  Biso   1.000  O
  O24      1.0000 0.68182  0.55120  0.41756  Biso   1.000  O
  O25      1.0000 0.98485  0.20271  0.41577  Biso   1.000  O
  O26      1.0000 0.79729  0.78213  0.41577  Biso   1.000  O
  O27      1.0000 0.21787  0.01515  0.41577  Biso   1.000  O
  O28      1.0000 0.53605  0.65151  0.75089  Biso   1.000  O
  O29      1.0000 0.11547  0.46395  0.75089  Biso   1.000  O
  O30      1.0000 0.34849  0.88453  0.75089  Biso   1.000  O
  O31      1.0000 0.65151  0.53605  0.74911  Biso   1.000  O
  O32      1.0000 0.46395  0.11547  0.74911  Biso   1.000  O
  O33      1.0000 0.88453  0.34849  0.74911  Biso   1.000  O
  O34      1.0000 0.20271  0.98485  0.08423  Biso   1.000  O
  O35      1.0000 0.78213  0.79729  0.08423  Biso   1.000  O
  O36      1.0000 0.01515  0.21787  0.08423  Biso   1.000  O
  O37      1.0000 0.72091  0.08286  0.89311  Biso   1.000  O
  O38      1.0000 0.91714  0.63805  0.89311  Biso   1.000  O
  O39      1.0000 0.36195  0.27909  0.89311  Biso   1.000  O
  O40      1.0000 0.08286  0.72091  0.60689  Biso   1.000  O
  O41      1.0000 0.63805  0.91714  0.60689  Biso   1.000  O
  O42      1.0000 0.27909  0.36195  0.60689  Biso   1.000  O
  O43      1.0000 0.38758  0.41619  0.22644  Biso   1.000  O
  O44      1.0000 0.58381  0.97138  0.22644  Biso   1.000  O
  O45      1.0000 0.02862  0.61242  0.22644  Biso   1.000  O
  O46      1.0000 0.74953  0.05424  0.94023  Biso   1.000  O
  O47      1.0000 0.30472  0.25047  0.94023  Biso   1.000  O
  O48      1.0000 0.94576  0.69528  0.94023  Biso   1.000  O
  O49      1.0000 0.05424  0.74953  0.55977  Biso   1.000  O
  O50      1.0000 0.25047  0.30472  0.55977  Biso   1.000  O
  O51      1.0000 0.69528  0.94576  0.55977  Biso   1.000  O
  O52      1.0000 0.41619  0.38758  0.27356  Biso   1.000  O
  O53      1.0000 0.97138  0.58381  0.27356  Biso   1.000  O
  O54      1.0000 0.61242  0.02862  0.27356  Biso   1.000  O
  O55      1.0000 0.27909  0.91714  0.10689  Biso   1.000  O
  O56      1.0000 0.08286  0.36195  0.10689  Biso   1.000  O
  O57      1.0000 0.63805  0.72091  0.10689  Biso   1.000  O
  O58      1.0000 0.91714  0.27909  0.39311  Biso   1.000  O
  O59      1.0000 0.36195  0.08286  0.39311  Biso   1.000  O
  O60      1.0000 0.72091  0.63805  0.39311  Biso   1.000  O
  O61      1.0000 0.94576  0.25047  0.44023  Biso   1.000  O
  O62      1.0000 0.74953  0.69528  0.44023  Biso   1.000  O
  O63      1.0000 0.30472  0.05424  0.44023  Biso   1.000  O
  O64      1.0000 0.58381  0.61242  0.72644  Biso   1.000  O
  O65      1.0000 0.02862  0.41619  0.72644  Biso   1.000  O
  O66      1.0000 0.38758  0.97138  0.72644  Biso   1.000  O
  O67      1.0000 0.61242  0.58381  0.77356  Biso   1.000  O
  O68      1.0000 0.41619  0.02862  0.77356  Biso   1.000  O
  O69      1.0000 0.97138  0.38758  0.77356  Biso   1.000  O
  O70      1.0000 0.25047  0.94576  0.05977  Biso   1.000  O
  O71      1.0000 0.69528  0.74953  0.05977  Biso   1.000  O
  O72      1.0000 0.05424  0.30472  0.05977  Biso   1.000  O
  O73      1.0000 0.43824  0.16274  0.91589  Biso   1.000  O
  O74      1.0000 0.83726  0.27550  0.91589  Biso   1.000  O
  O75      1.0000 0.72450  0.56176  0.91589  Biso   1.000  O
  O76      1.0000 0.16274  0.43824  0.58411  Biso   1.000  O
  O77      1.0000 0.27550  0.83726  0.58411  Biso   1.000  O
  O78      1.0000 0.56176  0.72450  0.58411  Biso   1.000  O
  O79      1.0000 0.10491  0.49607  0.24922  Biso   1.000  O
  O80      1.0000 0.50393  0.60883  0.24922  Biso   1.000  O
  O81      1.0000 0.39117  0.89509  0.24922  Biso   1.000  O
  O82      1.0000 0.82941  0.77157  0.91745  Biso   1.000  O
  O83      1.0000 0.94217  0.17059  0.91745  Biso   1.000  O
  O84      1.0000 0.22843  0.05783  0.91745  Biso   1.000  O
  O85      1.0000 0.77157  0.82941  0.58255  Biso   1.000  O
  O86      1.0000 0.17059  0.94217  0.58255  Biso   1.000  O
  O87      1.0000 0.05783  0.22843  0.58255  Biso   1.000  O
  O88      1.0000 0.49607  0.10491  0.25078  Biso   1.000  O
  O89      1.0000 0.60883  0.50393  0.25078  Biso   1.000  O
  O90      1.0000 0.89509  0.39117  0.25078  Biso   1.000  O
  O91      1.0000 0.56176  0.83726  0.08411  Biso   1.000  O
  O92      1.0000 0.16274  0.72450  0.08411  Biso   1.000  O
  O93      1.0000 0.27550  0.43824  0.08411  Biso   1.000  O
  O94      1.0000 0.83726  0.56176  0.41589  Biso   1.000  O
  O95      1.0000 0.72450  0.16274  0.41589  Biso   1.000  O
  O96      1.0000 0.43824  0.27550  0.41589  Biso   1.000  O
  O97      1.0000 0.22843  0.17059  0.41745  Biso   1.000  O
  O98      1.0000 0.82941  0.05783  0.41745  Biso   1.000  O
  O99      1.0000 0.94217  0.77157  0.41745  Biso   1.000  O
  O100     1.0000 0.50393  0.89509  0.74922  Biso   1.000  O
  O101     1.0000 0.39117  0.49607  0.74922  Biso   1.000  O
  O102     1.0000 0.10491  0.60883  0.74922  Biso   1.000  O
  O103     1.0000 0.89509  0.50393  0.75078  Biso   1.000  O
  O104     1.0000 0.49607  0.39117  0.75078  Biso   1.000  O
  O105     1.0000 0.60883  0.10491  0.75078  Biso   1.000  O
  O106     1.0000 0.17059  0.22843  0.08255  Biso   1.000  O
  O107     1.0000 0.05783  0.82941  0.08255  Biso   1.000  O
  O108     1.0000 0.77157  0.94217  0.08255  Biso   1.000  O
  O109     1.0000 0.35247  0.12239  0.89121  Biso   1.000  O
  O110     1.0000 0.87761  0.23008  0.89121  Biso   1.000  O
  O111     1.0000 0.76992  0.64753  0.89121  Biso   1.000  O
  O112     1.0000 0.12239  0.35247  0.60879  Biso   1.000  O
  O113     1.0000 0.23008  0.87761  0.60879  Biso   1.000  O
  O114     1.0000 0.64753  0.76992  0.60879  Biso   1.000  O
  O115     1.0000 0.01914  0.45572  0.22455  Biso   1.000  O
  O116     1.0000 0.54428  0.56341  0.22455  Biso   1.000  O
  O117     1.0000 0.43659  0.98086  0.22455  Biso   1.000  O
  O118     1.0000 0.78906  0.68580  0.94212  Biso   1.000  O
  O119     1.0000 0.89675  0.21094  0.94212  Biso   1.000  O
  O120     1.0000 0.31420  0.10325  0.94212  Biso   1.000  O
  O121     1.0000 0.68580  0.78906  0.55788  Biso   1.000  O
  O122     1.0000 0.21094  0.89675  0.55788  Biso   1.000  O
  O123     1.0000 0.10325  0.31420  0.55788  Biso   1.000  O
  O124     1.0000 0.45572  0.01914  0.27545  Biso   1.000  O
  O125     1.0000 0.56341  0.54428  0.27545  Biso   1.000  O
  O126     1.0000 0.98086  0.43659  0.27545  Biso   1.000  O
  O127     1.0000 0.64753  0.87761  0.10879  Biso   1.000  O
  O128     1.0000 0.12239  0.76992  0.10879  Biso   1.000  O
  O129     1.0000 0.23008  0.35247  0.10879  Biso   1.000  O
  O130     1.0000 0.87761  0.64753  0.39121  Biso   1.000  O
  O131     1.0000 0.76992  0.12239  0.39121  Biso   1.000  O
  O132     1.0000 0.35247  0.23008  0.39121  Biso   1.000  O
  O133     1.0000 0.31420  0.21094  0.44212  Biso   1.000  O
  O134     1.0000 0.78906  0.10325  0.44212  Biso   1.000  O
  O135     1.0000 0.89675  0.68580  0.44212  Biso   1.000  O
  O136     1.0000 0.54428  0.98086  0.72455  Biso   1.000  O
  O137     1.0000 0.43659  0.45572  0.72455  Biso   1.000  O
  O138     1.0000 0.01914  0.56341  0.72455  Biso   1.000  O
  O139     1.0000 0.98086  0.54428  0.77545  Biso   1.000  O
  O140     1.0000 0.45572  0.43659  0.77545  Biso   1.000  O
  O141     1.0000 0.56341  0.01914  0.77545  Biso   1.000  O
  O142     1.0000 0.21094  0.31420  0.05788  Biso   1.000  O
  O143     1.0000 0.10325  0.78906  0.05788  Biso   1.000  O
  O144     1.0000 0.68580  0.89675  0.05788  Biso   1.000  O
  N1       1.0000 0.39984  0.87006  0.78883  Biso   1.000  N
  N2       1.0000 0.12994  0.52978  0.78883  Biso   1.000  N
  N3       1.0000 0.47022  0.60016  0.78883  Biso   1.000  N
  N4       1.0000 0.87006  0.39984  0.71117  Biso   1.000  N
  N5       1.0000 0.52978  0.12994  0.71117  Biso   1.000  N
  N6       1.0000 0.60016  0.47022  0.71117  Biso   1.000  N
  N7       1.0000 0.06651  0.20339  0.12216  Biso   1.000  N
  N8       1.0000 0.79661  0.86311  0.12216  Biso   1.000  N
  N9       1.0000 0.13689  0.93349  0.12216  Biso   1.000  N
  N10      1.0000 0.53673  0.73317  0.04450  Biso   1.000  N
  N11      1.0000 0.19645  0.46327  0.04450  Biso   1.000  N
  N12      1.0000 0.26683  0.80355  0.04450  Biso   1.000  N
  N13      1.0000 0.73317  0.53673  0.45550  Biso   1.000  N
  N14      1.0000 0.46327  0.19645  0.45550  Biso   1.000  N
  N15      1.0000 0.80355  0.26683  0.45550  Biso   1.000  N
  N16      1.0000 0.20339  0.06651  0.37784  Biso   1.000  N
  N17      1.0000 0.86311  0.79661  0.37784  Biso   1.000  N
  N18      1.0000 0.93349  0.13689  0.37784  Biso   1.000  N
  N19      1.0000 0.60016  0.12994  0.21117  Biso   1.000  N
  N20      1.0000 0.87006  0.47022  0.21117  Biso   1.000  N
  N21      1.0000 0.52978  0.39984  0.21117  Biso   1.000  N
  N22      1.0000 0.12994  0.60016  0.28883  Biso   1.000  N
  N23      1.0000 0.47022  0.87006  0.28883  Biso   1.000  N
  N24      1.0000 0.39984  0.52978  0.28883  Biso   1.000  N
  N25      1.0000 0.26683  0.46327  0.54450  Biso   1.000  N
  N26      1.0000 0.53673  0.80355  0.54450  Biso   1.000  N
  N27      1.0000 0.19645  0.73317  0.54450  Biso   1.000  N
  N28      1.0000 0.79661  0.93349  0.62216  Biso   1.000  N
  N29      1.0000 0.13689  0.20339  0.62216  Biso   1.000  N
  N30      1.0000 0.06651  0.86311  0.62216  Biso   1.000  N
  N31      1.0000 0.93349  0.79661  0.87784  Biso   1.000  N
  N32      1.0000 0.20339  0.13689  0.87784  Biso   1.000  N
  N33      1.0000 0.86311  0.06651  0.87784  Biso   1.000  N
  N34      1.0000 0.46327  0.26683  0.95550  Biso   1.000  N
  N35      1.0000 0.80355  0.53673  0.95550  Biso   1.000  N
  N36      1.0000 0.73317  0.19645  0.95550  Biso   1.000  N
  C1       1.0000 0.43052  0.90731  0.80503  Biso   1.000  C
  C2       1.0000 0.09269  0.52321  0.80503  Biso   1.000  C
  C3       1.0000 0.47679  0.56948  0.80503  Biso   1.000  C
  C4       1.0000 0.90731  0.43052  0.69497  Biso   1.000  C
  C5       1.0000 0.52321  0.09269  0.69497  Biso   1.000  C
  C6       1.0000 0.56948  0.47679  0.69497  Biso   1.000  C
  C7       1.0000 0.09719  0.24064  0.13836  Biso   1.000  C
  C8       1.0000 0.75936  0.85654  0.13836  Biso   1.000  C
  C9       1.0000 0.14346  0.90281  0.13836  Biso   1.000  C
  C10      1.0000 0.57398  0.76385  0.02830  Biso   1.000  C
  C11      1.0000 0.18988  0.42602  0.02830  Biso   1.000  C
  C12      1.0000 0.23615  0.81012  0.02830  Biso   1.000  C
  C13      1.0000 0.76385  0.57398  0.47170  Biso   1.000  C
  C14      1.0000 0.42602  0.18988  0.47170  Biso   1.000  C
  C15      1.0000 0.81012  0.23615  0.47170  Biso   1.000  C
  C16      1.0000 0.24064  0.09719  0.36164  Biso   1.000  C
  C17      1.0000 0.85654  0.75936  0.36164  Biso   1.000  C
  C18      1.0000 0.90281  0.14346  0.36164  Biso   1.000  C
  C19      1.0000 0.56948  0.09269  0.19497  Biso   1.000  C
  C20      1.0000 0.90731  0.47679  0.19497  Biso   1.000  C
  C21      1.0000 0.52321  0.43052  0.19497  Biso   1.000  C
  C22      1.0000 0.09269  0.56948  0.30503  Biso   1.000  C
  C23      1.0000 0.47679  0.90731  0.30503  Biso   1.000  C
  C24      1.0000 0.43052  0.52321  0.30503  Biso   1.000  C
  C25      1.0000 0.23615  0.42602  0.52830  Biso   1.000  C
  C26      1.0000 0.57398  0.81012  0.52830  Biso   1.000  C
  C27      1.0000 0.18988  0.76385  0.52830  Biso   1.000  C
  C28      1.0000 0.75936  0.90281  0.63836  Biso   1.000  C
  C29      1.0000 0.14346  0.24064  0.63836  Biso   1.000  C
  C30      1.0000 0.09719  0.85654  0.63836  Biso   1.000  C
  C31      1.0000 0.90281  0.75936  0.86164  Biso   1.000  C
  C32      1.0000 0.24064  0.14346  0.86164  Biso   1.000  C
  C33      1.0000 0.85654  0.09719  0.86164  Biso   1.000  C
  C34      1.0000 0.42602  0.23615  0.97170  Biso   1.000  C
  C35      1.0000 0.81012  0.57398  0.97170  Biso   1.000  C
  C36      1.0000 0.76385  0.18988  0.97170  Biso   1.000  C
  H1       1.0000 0.48130  0.96070  0.80520  Biso   1.000  H
  H2       1.0000 0.03930  0.52060  0.80520  Biso   1.000  H
  H3       1.0000 0.47940  0.51870  0.80520  Biso   1.000  H
  H4       1.0000 0.96070  0.48130  0.69480  Biso   1.000  H
  H5       1.0000 0.52060  0.03930  0.69480  Biso   1.000  H
  H6       1.0000 0.51870  0.47940  0.69480  Biso   1.000  H
  H7       1.0000 0.14797  0.29403  0.13853  Biso   1.000  H
  H8       1.0000 0.70597  0.85393  0.13853  Biso   1.000  H
  H9       1.0000 0.14607  0.85203  0.13853  Biso   1.000  H
  H10      1.0000 0.62737  0.81463  0.02813  Biso   1.000  H
  H11      1.0000 0.18727  0.37263  0.02813  Biso   1.000  H
  H12      1.0000 0.18537  0.81273  0.02813  Biso   1.000  H
  H13      1.0000 0.81463  0.62737  0.47187  Biso   1.000  H
  H14      1.0000 0.37263  0.18727  0.47187  Biso   1.000  H
  H15      1.0000 0.81273  0.18537  0.47187  Biso   1.000  H
  H16      1.0000 0.29403  0.14797  0.36147  Biso   1.000  H
  H17      1.0000 0.85393  0.70597  0.36147  Biso   1.000  H
  H18      1.0000 0.85203  0.14607  0.36147  Biso   1.000  H
  H19      1.0000 0.51870  0.03930  0.19480  Biso   1.000  H
  H20      1.0000 0.96070  0.47940  0.19480  Biso   1.000  H
  H21      1.0000 0.52060  0.48130  0.19480  Biso   1.000  H
  H22      1.0000 0.03930  0.51870  0.30520  Biso   1.000  H
  H23      1.0000 0.47940  0.96070  0.30520  Biso   1.000  H
  H24      1.0000 0.48130  0.52060  0.30520  Biso   1.000  H
  H25      1.0000 0.18537  0.37263  0.52813  Biso   1.000  H
  H26      1.0000 0.62737  0.81273  0.52813  Biso   1.000  H
  H27      1.0000 0.18727  0.81463  0.52813  Biso   1.000  H
  H28      1.0000 0.70597  0.85203  0.63853  Biso   1.000  H
  H29      1.0000 0.14607  0.29403  0.63853  Biso   1.000  H
  H30      1.0000 0.14797  0.85393  0.63853  Biso   1.000  H
  H31      1.0000 0.85203  0.70597  0.86147  Biso   1.000  H
  H32      1.0000 0.29403  0.14607  0.86147  Biso   1.000  H
  H33      1.0000 0.85393  0.14797  0.86147  Biso   1.000  H
  H34      1.0000 0.37263  0.18537  0.97187  Biso   1.000  H
  H35      1.0000 0.81273  0.62737  0.97187  Biso   1.000  H
  H36      1.0000 0.81463  0.18727  0.97187  Biso   1.000  H
  C37      1.0000 0.32821  0.79490  0.78864  Biso   1.000  C
  C38      1.0000 0.20510  0.53331  0.78864  Biso   1.000  C
  C39      1.0000 0.46669  0.67179  0.78864  Biso   1.000  C
  C40      1.0000 0.79490  0.32821  0.71136  Biso   1.000  C
  C41      1.0000 0.53331  0.20510  0.71136  Biso   1.000  C
  C42      1.0000 0.67179  0.46669  0.71136  Biso   1.000  C
  C43      1.0000 0.99488  0.12823  0.12197  Biso   1.000  C
  C44      1.0000 0.87177  0.86664  0.12197  Biso   1.000  C
  C45      1.0000 0.13336  0.00512  0.12197  Biso   1.000  C
  C46      1.0000 0.46157  0.66154  0.04469  Biso   1.000  C
  C47      1.0000 0.19998  0.53843  0.04469  Biso   1.000  C
  C48      1.0000 0.33846  0.80002  0.04469  Biso   1.000  C
  C49      1.0000 0.66154  0.46157  0.45531  Biso   1.000  C
  C50      1.0000 0.53843  0.19998  0.45531  Biso   1.000  C
  C51      1.0000 0.80002  0.33846  0.45531  Biso   1.000  C
  C52      1.0000 0.12823  0.99488  0.37803  Biso   1.000  C
  C53      1.0000 0.86664  0.87177  0.37803  Biso   1.000  C
  C54      1.0000 0.00512  0.13336  0.37803  Biso   1.000  C
  C55      1.0000 0.67179  0.20510  0.21136  Biso   1.000  C
  C56      1.0000 0.79490  0.46669  0.21136  Biso   1.000  C
  C57      1.0000 0.53331  0.32821  0.21136  Biso   1.000  C
  C58      1.0000 0.20510  0.67179  0.28864  Biso   1.000  C
  C59      1.0000 0.46669  0.79490  0.28864  Biso   1.000  C
  C60      1.0000 0.32821  0.53331  0.28864  Biso   1.000  C
  C61      1.0000 0.33846  0.53843  0.54469  Biso   1.000  C
  C62      1.0000 0.46157  0.80002  0.54469  Biso   1.000  C
  C63      1.0000 0.19998  0.66154  0.54469  Biso   1.000  C
  C64      1.0000 0.87177  0.00512  0.62197  Biso   1.000  C
  C65      1.0000 0.13336  0.12823  0.62197  Biso   1.000  C
  C66      1.0000 0.99488  0.86664  0.62197  Biso   1.000  C
  C67      1.0000 0.00512  0.87177  0.87803  Biso   1.000  C
  C68      1.0000 0.12823  0.13336  0.87803  Biso   1.000  C
  C69      1.0000 0.86664  0.99488  0.87803  Biso   1.000  C
  C70      1.0000 0.53843  0.33846  0.95531  Biso   1.000  C
  C71      1.0000 0.80002  0.46157  0.95531  Biso   1.000  C
  C72      1.0000 0.66154  0.19998  0.95531  Biso   1.000  C
  H37      1.0000 0.30580  0.76850  0.77710  Biso   1.000  H
  H38      1.0000 0.23150  0.53730  0.77710  Biso   1.000  H
  H39      1.0000 0.46270  0.69420  0.77710  Biso   1.000  H
  H40      1.0000 0.76850  0.30580  0.72290  Biso   1.000  H
  H41      1.0000 0.53730  0.23150  0.72290  Biso   1.000  H
  H42      1.0000 0.69420  0.46270  0.72290  Biso   1.000  H
  H43      1.0000 0.97247  0.10183  0.11043  Biso   1.000  H
  H44      1.0000 0.89817  0.87063  0.11043  Biso   1.000  H
  H45      1.0000 0.12937  0.02753  0.11043  Biso   1.000  H
  H46      1.0000 0.43517  0.63913  0.05623  Biso   1.000  H
  H47      1.0000 0.20397  0.56483  0.05623  Biso   1.000  H
  H48      1.0000 0.36087  0.79603  0.05623  Biso   1.000  H
  H49      1.0000 0.63913  0.43517  0.44377  Biso   1.000  H
  H50      1.0000 0.56483  0.20397  0.44377  Biso   1.000  H
  H51      1.0000 0.79603  0.36087  0.44377  Biso   1.000  H
  H52      1.0000 0.10183  0.97247  0.38957  Biso   1.000  H
  H53      1.0000 0.87063  0.89817  0.38957  Biso   1.000  H
  H54      1.0000 0.02753  0.12937  0.38957  Biso   1.000  H
  H55      1.0000 0.69420  0.23150  0.22290  Biso   1.000  H
  H56      1.0000 0.76850  0.46270  0.22290  Biso   1.000  H
  H57      1.0000 0.53730  0.30580  0.22290  Biso   1.000  H
  H58      1.0000 0.23150  0.69420  0.27710  Biso   1.000  H
  H59      1.0000 0.46270  0.76850  0.27710  Biso   1.000  H
  H60      1.0000 0.30580  0.53730  0.27710  Biso   1.000  H
  H61      1.0000 0.36087  0.56483  0.55623  Biso   1.000  H
  H62      1.0000 0.43517  0.79603  0.55623  Biso   1.000  H
  H63      1.0000 0.20397  0.63913  0.55623  Biso   1.000  H
  H64      1.0000 0.89817  0.02753  0.61043  Biso   1.000  H
  H65      1.0000 0.12937  0.10183  0.61043  Biso   1.000  H
  H66      1.0000 0.97247  0.87063  0.61043  Biso   1.000  H
  H67      1.0000 0.02753  0.89817  0.88957  Biso   1.000  H
  H68      1.0000 0.10183  0.12937  0.88957  Biso   1.000  H
  H69      1.0000 0.87063  0.97247  0.88957  Biso   1.000  H
  H70      1.0000 0.56483  0.36087  0.94377  Biso   1.000  H
  H71      1.0000 0.79603  0.43517  0.94377  Biso   1.000  H
  H72      1.0000 0.63913  0.20397  0.94377  Biso   1.000  H
  C73      1.0000 0.28529  0.75397  0.80454  Biso   1.000  C
  C74      1.0000 0.24603  0.53132  0.80454  Biso   1.000  C
  C75      1.0000 0.46868  0.71471  0.80454  Biso   1.000  C
  C76      1.0000 0.75397  0.28529  0.69546  Biso   1.000  C
  C77      1.0000 0.53132  0.24603  0.69546  Biso   1.000  C
  C78      1.0000 0.71471  0.46868  0.69546  Biso   1.000  C
  C79      1.0000 0.95196  0.08730  0.13787  Biso   1.000  C
  C80      1.0000 0.91270  0.86465  0.13787  Biso   1.000  C
  C81      1.0000 0.13535  0.04804  0.13787  Biso   1.000  C
  C82      1.0000 0.42064  0.61862  0.02879  Biso   1.000  C
  C83      1.0000 0.19799  0.57936  0.02879  Biso   1.000  C
  C84      1.0000 0.38138  0.80201  0.02879  Biso   1.000  C
  C85      1.0000 0.61862  0.42064  0.47121  Biso   1.000  C
  C86      1.0000 0.57936  0.19799  0.47121  Biso   1.000  C
  C87      1.0000 0.80201  0.38138  0.47121  Biso   1.000  C
  C88      1.0000 0.08730  0.95196  0.36213  Biso   1.000  C
  C89      1.0000 0.86465  0.91270  0.36213  Biso   1.000  C
  C90      1.0000 0.04804  0.13535  0.36213  Biso   1.000  C
  C91      1.0000 0.71471  0.24603  0.19546  Biso   1.000  C
  C92      1.0000 0.75397  0.46868  0.19546  Biso   1.000  C
  C93      1.0000 0.53132  0.28529  0.19546  Biso   1.000  C
  C94      1.0000 0.24603  0.71471  0.30454  Biso   1.000  C
  C95      1.0000 0.46868  0.75397  0.30454  Biso   1.000  C
  C96      1.0000 0.28529  0.53132  0.30454  Biso   1.000  C
  C97      1.0000 0.38138  0.57936  0.52879  Biso   1.000  C
  C98      1.0000 0.42064  0.80201  0.52879  Biso   1.000  C
  C99      1.0000 0.19799  0.61862  0.52879  Biso   1.000  C
  C100     1.0000 0.91270  0.04804  0.63787  Biso   1.000  C
  C101     1.0000 0.13535  0.08730  0.63787  Biso   1.000  C
  C102     1.0000 0.95196  0.86465  0.63787  Biso   1.000  C
  C103     1.0000 0.04804  0.91270  0.86213  Biso   1.000  C
  C104     1.0000 0.08730  0.13535  0.86213  Biso   1.000  C
  C105     1.0000 0.86465  0.95196  0.86213  Biso   1.000  C
  C106     1.0000 0.57936  0.38138  0.97121  Biso   1.000  C
  C107     1.0000 0.80201  0.42064  0.97121  Biso   1.000  C
  C108     1.0000 0.61862  0.19799  0.97121  Biso   1.000  C
  H73      1.0000 0.23490  0.70040  0.80390  Biso   1.000  H
  H74      1.0000 0.29960  0.53450  0.80390  Biso   1.000  H
  H75      1.0000 0.46550  0.76510  0.80390  Biso   1.000  H
  H76      1.0000 0.70040  0.23490  0.69610  Biso   1.000  H
  H77      1.0000 0.53450  0.29960  0.69610  Biso   1.000  H
  H78      1.0000 0.76510  0.46550  0.69610  Biso   1.000  H
  H79      1.0000 0.90157  0.03373  0.13723  Biso   1.000  H
  H80      1.0000 0.96627  0.86783  0.13723  Biso   1.000  H
  H81      1.0000 0.13217  0.09843  0.13723  Biso   1.000  H
  H82      1.0000 0.36707  0.56823  0.02943  Biso   1.000  H
  H83      1.0000 0.20117  0.63293  0.02943  Biso   1.000  H
  H84      1.0000 0.43177  0.79883  0.02943  Biso   1.000  H
  H85      1.0000 0.56823  0.36707  0.47057  Biso   1.000  H
  H86      1.0000 0.63293  0.20117  0.47057  Biso   1.000  H
  H87      1.0000 0.79883  0.43177  0.47057  Biso   1.000  H
  H88      1.0000 0.03373  0.90157  0.36277  Biso   1.000  H
  H89      1.0000 0.86783  0.96627  0.36277  Biso   1.000  H
  H90      1.0000 0.09843  0.13217  0.36277  Biso   1.000  H
  H91      1.0000 0.76510  0.29960  0.19610  Biso   1.000  H
  H92      1.0000 0.70040  0.46550  0.19610  Biso   1.000  H
  H93      1.0000 0.53450  0.23490  0.19610  Biso   1.000  H
  H94      1.0000 0.29960  0.76510  0.30390  Biso   1.000  H
  H95      1.0000 0.46550  0.70040  0.30390  Biso   1.000  H
  H96      1.0000 0.23490  0.53450  0.30390  Biso   1.000  H
  H97      1.0000 0.43177  0.63293  0.52943  Biso   1.000  H
  H98      1.0000 0.36707  0.79883  0.52943  Biso   1.000  H
  H99      1.0000 0.20117  0.56823  0.52943  Biso   1.000  H
  H100     1.0000 0.96627  0.09843  0.63723  Biso   1.000  H
  H101     1.0000 0.13217  0.03373  0.63723  Biso   1.000  H
  H102     1.0000 0.90157  0.86783  0.63723  Biso   1.000  H
  H103     1.0000 0.09843  0.96627  0.86277  Biso   1.000  H
  H104     1.0000 0.03373  0.13217  0.86277  Biso   1.000  H
  H105     1.0000 0.86783  0.90157  0.86277  Biso   1.000  H
  H106     1.0000 0.63293  0.43177  0.97057  Biso   1.000  H
  H107     1.0000 0.79883  0.36707  0.97057  Biso   1.000  H
  H108     1.0000 0.56823  0.20117  0.97057  Biso   1.000  H
  C109     1.0000 0.31728  0.79267  0.82135  Biso   1.000  C
  C110     1.0000 0.20733  0.52461  0.82135  Biso   1.000  C
  C111     1.0000 0.47539  0.68272  0.82135  Biso   1.000  C
  C112     1.0000 0.79267  0.31728  0.67865  Biso   1.000  C
  C113     1.0000 0.52461  0.20733  0.67865  Biso   1.000  C
  C114     1.0000 0.68272  0.47539  0.67865  Biso   1.000  C
  C115     1.0000 0.98395  0.12600  0.15468  Biso   1.000  C
  C116     1.0000 0.87400  0.85794  0.15468  Biso   1.000  C
  C117     1.0000 0.14206  0.01605  0.15468  Biso   1.000  C
  C118     1.0000 0.45934  0.65061  0.01198  Biso   1.000  C
  C119     1.0000 0.19128  0.54066  0.01198  Biso   1.000  C
  C120     1.0000 0.34939  0.80872  0.01198  Biso   1.000  C
  C121     1.0000 0.65061  0.45934  0.48802  Biso   1.000  C
  C122     1.0000 0.54066  0.19128  0.48802  Biso   1.000  C
  C123     1.0000 0.80872  0.34939  0.48802  Biso   1.000  C
  C124     1.0000 0.12600  0.98395  0.34532  Biso   1.000  C
  C125     1.0000 0.85794  0.87400  0.34532  Biso   1.000  C
  C126     1.0000 0.01605  0.14206  0.34532  Biso   1.000  C
  C127     1.0000 0.68272  0.20733  0.17865  Biso   1.000  C
  C128     1.0000 0.79267  0.47539  0.17865  Biso   1.000  C
  C129     1.0000 0.52461  0.31728  0.17865  Biso   1.000  C
  C130     1.0000 0.20733  0.68272  0.32135  Biso   1.000  C
  C131     1.0000 0.47539  0.79267  0.32135  Biso   1.000  C
  C132     1.0000 0.31728  0.52461  0.32135  Biso   1.000  C
  C133     1.0000 0.34939  0.54066  0.51198  Biso   1.000  C
  C134     1.0000 0.45934  0.80872  0.51198  Biso   1.000  C
  C135     1.0000 0.19128  0.65061  0.51198  Biso   1.000  C
  C136     1.0000 0.87400  0.01605  0.65468  Biso   1.000  C
  C137     1.0000 0.14206  0.12600  0.65468  Biso   1.000  C
  C138     1.0000 0.98395  0.85794  0.65468  Biso   1.000  C
  C139     1.0000 0.01605  0.87400  0.84532  Biso   1.000  C
  C140     1.0000 0.12600  0.14206  0.84532  Biso   1.000  C
  C141     1.0000 0.85794  0.98395  0.84532  Biso   1.000  C
  C142     1.0000 0.54066  0.34939  0.98802  Biso   1.000  C
  C143     1.0000 0.80872  0.45934  0.98802  Biso   1.000  C
  C144     1.0000 0.65061  0.19128  0.98802  Biso   1.000  C
  H109     1.0000 0.28910  0.76590  0.83240  Biso   1.000  H
  H110     1.0000 0.23410  0.52320  0.83240  Biso   1.000  H
  H111     1.0000 0.47680  0.71090  0.83240  Biso   1.000  H
  H112     1.0000 0.76590  0.28910  0.66760  Biso   1.000  H
  H113     1.0000 0.52320  0.23410  0.66760  Biso   1.000  H
  H114     1.0000 0.71090  0.47680  0.66760  Biso   1.000  H
  H115     1.0000 0.95577  0.09923  0.16573  Biso   1.000  H
  H116     1.0000 0.90077  0.85653  0.16573  Biso   1.000  H
  H117     1.0000 0.14347  0.04423  0.16573  Biso   1.000  H
  H118     1.0000 0.43257  0.62243  0.00093  Biso   1.000  H
  H119     1.0000 0.18987  0.56743  0.00093  Biso   1.000  H
  H120     1.0000 0.37757  0.81013  0.00093  Biso   1.000  H
  H121     1.0000 0.62243  0.43257  0.49907  Biso   1.000  H
  H122     1.0000 0.56743  0.18987  0.49907  Biso   1.000  H
  H123     1.0000 0.81013  0.37757  0.49907  Biso   1.000  H
  H124     1.0000 0.09923  0.95577  0.33427  Biso   1.000  H
  H125     1.0000 0.85653  0.90077  0.33427  Biso   1.000  H
  H126     1.0000 0.04423  0.14347  0.33427  Biso   1.000  H
  H127     1.0000 0.71090  0.23410  0.16760  Biso   1.000  H
  H128     1.0000 0.76590  0.47680  0.16760  Biso   1.000  H
  H129     1.0000 0.52320  0.28910  0.16760  Biso   1.000  H
  H130     1.0000 0.23410  0.71090  0.33240  Biso   1.000  H
  H131     1.0000 0.47680  0.76590  0.33240  Biso   1.000  H
  H132     1.0000 0.28910  0.52320  0.33240  Biso   1.000  H
  H133     1.0000 0.37757  0.56743  0.50093  Biso   1.000  H
  H134     1.0000 0.43257  0.81013  0.50093  Biso   1.000  H
  H135     1.0000 0.18987  0.62243  0.50093  Biso   1.000  H
  H136     1.0000 0.90077  0.04423  0.66573  Biso   1.000  H
  H137     1.0000 0.14347  0.09923  0.66573  Biso   1.000  H
  H138     1.0000 0.95577  0.85653  0.66573  Biso   1.000  H
  H139     1.0000 0.04423  0.90077  0.83427  Biso   1.000  H
  H140     1.0000 0.09923  0.14347  0.83427  Biso   1.000  H
  H141     1.0000 0.85653  0.95577  0.83427  Biso   1.000  H
  H142     1.0000 0.56743  0.37757  0.99907  Biso   1.000  H
  H143     1.0000 0.81013  0.43257  0.99907  Biso   1.000  H
  H144     1.0000 0.62243  0.18987  0.99907  Biso   1.000  H
  C145     1.0000 0.39127  0.87126  0.82177  Biso   1.000  C
  C146     1.0000 0.12874  0.52001  0.82177  Biso   1.000  C
  C147     1.0000 0.47999  0.60873  0.82177  Biso   1.000  C
  C148     1.0000 0.87126  0.39127  0.67823  Biso   1.000  C
  C149     1.0000 0.52001  0.12874  0.67823  Biso   1.000  C
  C150     1.0000 0.60873  0.47999  0.67823  Biso   1.000  C
  C151     1.0000 0.05794  0.20459  0.15510  Biso   1.000  C
  C152     1.0000 0.79541  0.85334  0.15510  Biso   1.000  C
  C153     1.0000 0.14666  0.94206  0.15510  Biso   1.000  C
  C154     1.0000 0.53793  0.72460  0.01156  Biso   1.000  C
  C155     1.0000 0.18668  0.46207  0.01156  Biso   1.000  C
  C156     1.0000 0.27540  0.81332  0.01156  Biso   1.000  C
  C157     1.0000 0.72460  0.53793  0.48844  Biso   1.000  C
  C158     1.0000 0.46207  0.18668  0.48844  Biso   1.000  C
  C159     1.0000 0.81332  0.27540  0.48844  Biso   1.000  C
  C160     1.0000 0.20459  0.05794  0.34490  Biso   1.000  C
  C161     1.0000 0.85334  0.79541  0.34490  Biso   1.000  C
  C162     1.0000 0.94206  0.14666  0.34490  Biso   1.000  C
  C163     1.0000 0.60873  0.12874  0.17823  Biso   1.000  C
  C164     1.0000 0.87126  0.47999  0.17823  Biso   1.000  C
  C165     1.0000 0.52001  0.39127  0.17823  Biso   1.000  C
  C166     1.0000 0.12874  0.60873  0.32177  Biso   1.000  C
  C167     1.0000 0.47999  0.87126  0.32177  Biso   1.000  C
  C168     1.0000 0.39127  0.52001  0.32177  Biso   1.000  C
  C169     1.0000 0.27540  0.46207  0.51156  Biso   1.000  C
  C170     1.0000 0.53793  0.81332  0.51156  Biso   1.000  C
  C171     1.0000 0.18668  0.72460  0.51156  Biso   1.000  C
  C172     1.0000 0.79541  0.94206  0.65510  Biso   1.000  C
  C173     1.0000 0.14666  0.20459  0.65510  Biso   1.000  C
  C174     1.0000 0.05794  0.85334  0.65510  Biso   1.000  C
  C175     1.0000 0.94206  0.79541  0.84490  Biso   1.000  C
  C176     1.0000 0.20459  0.14666  0.84490  Biso   1.000  C
  C177     1.0000 0.85334  0.05794  0.84490  Biso   1.000  C
  C178     1.0000 0.46207  0.27540  0.98844  Biso   1.000  C
  C179     1.0000 0.81332  0.53793  0.98844  Biso   1.000  C
  C180     1.0000 0.72460  0.18668  0.98844  Biso   1.000  C
  C181     1.0000 0.42597  0.91733  0.83857  Biso   1.000  C
  C182     1.0000 0.08267  0.50864  0.83857  Biso   1.000  C
  C183     1.0000 0.49136  0.57403  0.83857  Biso   1.000  C
  C184     1.0000 0.91733  0.42597  0.66143  Biso   1.000  C
  C185     1.0000 0.50864  0.08267  0.66143  Biso   1.000  C
  C186     1.0000 0.57403  0.49136  0.66143  Biso   1.000  C
  C187     1.0000 0.09264  0.25066  0.17190  Biso   1.000  C
  C188     1.0000 0.74934  0.84197  0.17190  Biso   1.000  C
  C189     1.0000 0.15803  0.90736  0.17190  Biso   1.000  C
  C190     1.0000 0.58400  0.75930  0.99476  Biso   1.000  C
  C191     1.0000 0.17531  0.41600  0.99476  Biso   1.000  C
  C192     1.0000 0.24070  0.82469  0.99476  Biso   1.000  C
  C193     1.0000 0.75930  0.58400  0.50524  Biso   1.000  C
  C194     1.0000 0.41600  0.17531  0.50524  Biso   1.000  C
  C195     1.0000 0.82469  0.24070  0.50524  Biso   1.000  C
  C196     1.0000 0.25066  0.09264  0.32810  Biso   1.000  C
  C197     1.0000 0.84197  0.74934  0.32810  Biso   1.000  C
  C198     1.0000 0.90736  0.15803  0.32810  Biso   1.000  C
  C199     1.0000 0.57403  0.08267  0.16143  Biso   1.000  C
  C200     1.0000 0.91733  0.49136  0.16143  Biso   1.000  C
  C201     1.0000 0.50864  0.42597  0.16143  Biso   1.000  C
  C202     1.0000 0.08267  0.57403  0.33857  Biso   1.000  C
  C203     1.0000 0.49136  0.91733  0.33857  Biso   1.000  C
  C204     1.0000 0.42597  0.50864  0.33857  Biso   1.000  C
  C205     1.0000 0.24070  0.41600  0.49476  Biso   1.000  C
  C206     1.0000 0.58400  0.82469  0.49476  Biso   1.000  C
  C207     1.0000 0.17531  0.75930  0.49476  Biso   1.000  C
  C208     1.0000 0.74934  0.90736  0.67190  Biso   1.000  C
  C209     1.0000 0.15803  0.25066  0.67190  Biso   1.000  C
  C210     1.0000 0.09264  0.84197  0.67190  Biso   1.000  C
  C211     1.0000 0.90736  0.74934  0.82810  Biso   1.000  C
  C212     1.0000 0.25066  0.15803  0.82810  Biso   1.000  C
  C213     1.0000 0.84197  0.09264  0.82810  Biso   1.000  C
  C214     1.0000 0.41600  0.24070  0.00524  Biso   1.000  C
  C215     1.0000 0.82469  0.58400  0.00524  Biso   1.000  C
  C216     1.0000 0.75930  0.17531  0.00524  Biso   1.000  C
  C217     1.0000 0.45452  0.95909  0.85214  Biso   1.000  C
  C218     1.0000 0.04091  0.49543  0.85214  Biso   1.000  C
  C219     1.0000 0.50457  0.54548  0.85214  Biso   1.000  C
  C220     1.0000 0.95909  0.45452  0.64786  Biso   1.000  C
  C221     1.0000 0.49543  0.04091  0.64786  Biso   1.000  C
  C222     1.0000 0.54548  0.50457  0.64786  Biso   1.000  C
  C223     1.0000 0.12119  0.29242  0.18547  Biso   1.000  C
  C224     1.0000 0.70758  0.82876  0.18547  Biso   1.000  C
  C225     1.0000 0.17124  0.87881  0.18547  Biso   1.000  C
  C226     1.0000 0.62576  0.78785  0.98119  Biso   1.000  C
  C227     1.0000 0.16210  0.37424  0.98119  Biso   1.000  C
  C228     1.0000 0.21215  0.83790  0.98119  Biso   1.000  C
  C229     1.0000 0.78785  0.62576  0.51881  Biso   1.000  C
  C230     1.0000 0.37424  0.16210  0.51881  Biso   1.000  C
  C231     1.0000 0.83790  0.21215  0.51881  Biso   1.000  C
  C232     1.0000 0.29242  0.12119  0.31453  Biso   1.000  C
  C233     1.0000 0.82876  0.70758  0.31453  Biso   1.000  C
  C234     1.0000 0.87881  0.17124  0.31453  Biso   1.000  C
  C235     1.0000 0.54548  0.04091  0.14786  Biso   1.000  C
  C236     1.0000 0.95909  0.50457  0.14786  Biso   1.000  C
  C237     1.0000 0.49543  0.45452  0.14786  Biso   1.000  C
  C238     1.0000 0.04091  0.54548  0.35214  Biso   1.000  C
  C239     1.0000 0.50457  0.95909  0.35214  Biso   1.000  C
  C240     1.0000 0.45452  0.49543  0.35214  Biso   1.000  C
  C241     1.0000 0.21215  0.37424  0.48119  Biso   1.000  C
  C242     1.0000 0.62576  0.83790  0.48119  Biso   1.000  C
  C243     1.0000 0.16210  0.78785  0.48119  Biso   1.000  C
  C244     1.0000 0.70758  0.87881  0.68547  Biso   1.000  C
  C245     1.0000 0.17124  0.29242  0.68547  Biso   1.000  C
  C246     1.0000 0.12119  0.82876  0.68547  Biso   1.000  C
  C247     1.0000 0.87881  0.70758  0.81453  Biso   1.000  C
  C248     1.0000 0.29242  0.17124  0.81453  Biso   1.000  C
  C249     1.0000 0.82876  0.12119  0.81453  Biso   1.000  C
  C250     1.0000 0.37424  0.21215  0.01881  Biso   1.000  C
  C251     1.0000 0.83790  0.62576  0.01881  Biso   1.000  C
  C252     1.0000 0.78785  0.16210  0.01881  Biso   1.000  C
  C253     1.0000 0.48513  0.01071  0.86848  Biso   1.000  C
  C254     1.0000 0.98929  0.47442  0.86848  Biso   1.000  C
  C255     1.0000 0.52558  0.51487  0.86848  Biso   1.000  C
  C256     1.0000 0.01071  0.48513  0.63152  Biso   1.000  C
  C257     1.0000 0.47442  0.98929  0.63152  Biso   1.000  C
  C258     1.0000 0.51487  0.52558  0.63152  Biso   1.000  C
  C259     1.0000 0.15180  0.34404  0.20181  Biso   1.000  C
  C260     1.0000 0.65596  0.80775  0.20181  Biso   1.000  C
  C261     1.0000 0.19225  0.84820  0.20181  Biso   1.000  C
  C262     1.0000 0.67738  0.81846  0.96485  Biso   1.000  C
  C263     1.0000 0.14109  0.32262  0.96485  Biso   1.000  C
  C264     1.0000 0.18154  0.85891  0.96485  Biso   1.000  C
  C265     1.0000 0.81846  0.67738  0.53515  Biso   1.000  C
  C266     1.0000 0.32262  0.14109  0.53515  Biso   1.000  C
  C267     1.0000 0.85891  0.18154  0.53515  Biso   1.000  C
  C268     1.0000 0.34404  0.15180  0.29819  Biso   1.000  C
  C269     1.0000 0.80775  0.65596  0.29819  Biso   1.000  C
  C270     1.0000 0.84820  0.19225  0.29819  Biso   1.000  C
  C271     1.0000 0.51487  0.98929  0.13152  Biso   1.000  C
  C272     1.0000 0.01071  0.52558  0.13152  Biso   1.000  C
  C273     1.0000 0.47442  0.48513  0.13152  Biso   1.000  C
  C274     1.0000 0.98929  0.51487  0.36848  Biso   1.000  C
  C275     1.0000 0.52558  0.01071  0.36848  Biso   1.000  C
  C276     1.0000 0.48513  0.47442  0.36848  Biso   1.000  C
  C277     1.0000 0.18154  0.32262  0.46485  Biso   1.000  C
  C278     1.0000 0.67738  0.85891  0.46485  Biso   1.000  C
  C279     1.0000 0.14109  0.81846  0.46485  Biso   1.000  C
  C280     1.0000 0.65596  0.84820  0.70181  Biso   1.000  C
  C281     1.0000 0.19225  0.34404  0.70181  Biso   1.000  C
  C282     1.0000 0.15180  0.80775  0.70181  Biso   1.000  C
  C283     1.0000 0.84820  0.65596  0.79819  Biso   1.000  C
  C284     1.0000 0.34404  0.19225  0.79819  Biso   1.000  C
  C285     1.0000 0.80775  0.15180  0.79819  Biso   1.000  C
  C286     1.0000 0.32262  0.18154  0.03515  Biso   1.000  C
  C287     1.0000 0.85891  0.67738  0.03515  Biso   1.000  C
  C288     1.0000 0.81846  0.14109  0.03515  Biso   1.000  C
  C289     1.0000 0.56150  0.02828  0.87668  Biso   1.000  C
  C290     1.0000 0.97172  0.53322  0.87668  Biso   1.000  C
  C291     1.0000 0.46678  0.43850  0.87668  Biso   1.000  C
  C292     1.0000 0.02828  0.56150  0.62332  Biso   1.000  C
  C293     1.0000 0.53322  0.97172  0.62332  Biso   1.000  C
  C294     1.0000 0.43850  0.46678  0.62332  Biso   1.000  C
  C295     1.0000 0.22817  0.36161  0.21001  Biso   1.000  C
  C296     1.0000 0.63839  0.86655  0.21001  Biso   1.000  C
  C297     1.0000 0.13345  0.77183  0.21001  Biso   1.000  C
  C298     1.0000 0.69495  0.89483  0.95665  Biso   1.000  C
  C299     1.0000 0.19989  0.30505  0.95665  Biso   1.000  C
  C300     1.0000 0.10517  0.80011  0.95665  Biso   1.000  C
  C301     1.0000 0.89483  0.69495  0.54335  Biso   1.000  C
  C302     1.0000 0.30505  0.19989  0.54335  Biso   1.000  C
  C303     1.0000 0.80011  0.10517  0.54335  Biso   1.000  C
  C304     1.0000 0.36161  0.22817  0.28999  Biso   1.000  C
  C305     1.0000 0.86655  0.63839  0.28999  Biso   1.000  C
  C306     1.0000 0.77183  0.13345  0.28999  Biso   1.000  C
  C307     1.0000 0.43850  0.97172  0.12332  Biso   1.000  C
  C308     1.0000 0.02828  0.46678  0.12332  Biso   1.000  C
  C309     1.0000 0.53322  0.56150  0.12332  Biso   1.000  C
  C310     1.0000 0.97172  0.43850  0.37668  Biso   1.000  C
  C311     1.0000 0.46678  0.02828  0.37668  Biso   1.000  C
  C312     1.0000 0.56150  0.53322  0.37668  Biso   1.000  C
  C313     1.0000 0.10517  0.30505  0.45665  Biso   1.000  C
  C314     1.0000 0.69495  0.80011  0.45665  Biso   1.000  C
  C315     1.0000 0.19989  0.89483  0.45665  Biso   1.000  C
  C316     1.0000 0.63839  0.77183  0.71001  Biso   1.000  C
  C317     1.0000 0.13345  0.36161  0.71001  Biso   1.000  C
  C318     1.0000 0.22817  0.86655  0.71001  Biso   1.000  C
  C319     1.0000 0.77183  0.63839  0.78999  Biso   1.000  C
  C320     1.0000 0.36161  0.13345  0.78999  Biso   1.000  C
  C321     1.0000 0.86655  0.22817  0.78999  Biso   1.000  C
  C322     1.0000 0.30505  0.10517  0.04335  Biso   1.000  C
  C323     1.0000 0.80011  0.69495  0.04335  Biso   1.000  C
  C324     1.0000 0.89483  0.19989  0.04335  Biso   1.000  C
  H145     1.0000 0.59510  0.00730  0.87140  Biso   1.000  H
  H146     1.0000 0.99270  0.58780  0.87140  Biso   1.000  H
  H147     1.0000 0.41220  0.40490  0.87140  Biso   1.000  H
  H148     1.0000 0.00730  0.59510  0.62860  Biso   1.000  H
  H149     1.0000 0.58780  0.99270  0.62860  Biso   1.000  H
  H150     1.0000 0.40490  0.41220  0.62860  Biso   1.000  H
  H151     1.0000 0.26177  0.34063  0.20473  Biso   1.000  H
  H152     1.0000 0.65937  0.92113  0.20473  Biso   1.000  H
  H153     1.0000 0.07887  0.73823  0.20473  Biso   1.000  H
  H154     1.0000 0.67397  0.92843  0.96193  Biso   1.000  H
  H155     1.0000 0.25447  0.32603  0.96193  Biso   1.000  H
  H156     1.0000 0.07157  0.74553  0.96193  Biso   1.000  H
  H157     1.0000 0.92843  0.67397  0.53807  Biso   1.000  H
  H158     1.0000 0.32603  0.25447  0.53807  Biso   1.000  H
  H159     1.0000 0.74553  0.07157  0.53807  Biso   1.000  H
  H160     1.0000 0.34063  0.26177  0.29527  Biso   1.000  H
  H161     1.0000 0.92113  0.65937  0.29527  Biso   1.000  H
  H162     1.0000 0.73823  0.07887  0.29527  Biso   1.000  H
  H163     1.0000 0.40490  0.99270  0.12860  Biso   1.000  H
  H164     1.0000 0.00730  0.41220  0.12860  Biso   1.000  H
  H165     1.0000 0.58780  0.59510  0.12860  Biso   1.000  H
  H166     1.0000 0.99270  0.40490  0.37140  Biso   1.000  H
  H167     1.0000 0.41220  0.00730  0.37140  Biso   1.000  H
  H168     1.0000 0.59510  0.58780  0.37140  Biso   1.000  H
  H169     1.0000 0.07157  0.32603  0.46193  Biso   1.000  H
  H170     1.0000 0.67397  0.74553  0.46193  Biso   1.000  H
  H171     1.0000 0.25447  0.92843  0.46193  Biso   1.000  H
  H172     1.0000 0.65937  0.73823  0.70473  Biso   1.000  H
  H173     1.0000 0.07887  0.34063  0.70473  Biso   1.000  H
  H174     1.0000 0.26177  0.92113  0.70473  Biso   1.000  H
  H175     1.0000 0.73823  0.65937  0.79527  Biso   1.000  H
  H176     1.0000 0.34063  0.07887  0.79527  Biso   1.000  H
  H177     1.0000 0.92113  0.26177  0.79527  Biso   1.000  H
  H178     1.0000 0.32603  0.07157  0.03807  Biso   1.000  H
  H179     1.0000 0.74553  0.67397  0.03807  Biso   1.000  H
  H180     1.0000 0.92843  0.25447  0.03807  Biso   1.000  H
  C325     1.0000 0.58811  0.07691  0.89266  Biso   1.000  C
  C326     1.0000 0.92309  0.51120  0.89266  Biso   1.000  C
  C327     1.0000 0.48880  0.41189  0.89266  Biso   1.000  C
  C328     1.0000 0.07691  0.58811  0.60734  Biso   1.000  C
  C329     1.0000 0.51120  0.92309  0.60734  Biso   1.000  C
  C330     1.0000 0.41189  0.48880  0.60734  Biso   1.000  C
  C331     1.0000 0.25478  0.41024  0.22599  Biso   1.000  C
  C332     1.0000 0.58976  0.84453  0.22599  Biso   1.000  C
  C333     1.0000 0.15547  0.74522  0.22599  Biso   1.000  C
  C334     1.0000 0.74358  0.92144  0.94067  Biso   1.000  C
  C335     1.0000 0.17787  0.25642  0.94067  Biso   1.000  C
  C336     1.0000 0.07856  0.82213  0.94067  Biso   1.000  C
  C337     1.0000 0.92144  0.74358  0.55933  Biso   1.000  C
  C338     1.0000 0.25642  0.17787  0.55933  Biso   1.000  C
  C339     1.0000 0.82213  0.07856  0.55933  Biso   1.000  C
  C340     1.0000 0.41024  0.25478  0.27401  Biso   1.000  C
  C341     1.0000 0.84453  0.58976  0.27401  Biso   1.000  C
  C342     1.0000 0.74522  0.15547  0.27401  Biso   1.000  C
  C343     1.0000 0.41189  0.92309  0.10734  Biso   1.000  C
  C344     1.0000 0.07691  0.48880  0.10734  Biso   1.000  C
  C345     1.0000 0.51120  0.58811  0.10734  Biso   1.000  C
  C346     1.0000 0.92309  0.41189  0.39266  Biso   1.000  C
  C347     1.0000 0.48880  0.07691  0.39266  Biso   1.000  C
  C348     1.0000 0.58811  0.51120  0.39266  Biso   1.000  C
  C349     1.0000 0.07856  0.25642  0.44067  Biso   1.000  C
  C350     1.0000 0.74358  0.82213  0.44067  Biso   1.000  C
  C351     1.0000 0.17787  0.92144  0.44067  Biso   1.000  C
  C352     1.0000 0.58976  0.74522  0.72599  Biso   1.000  C
  C353     1.0000 0.15547  0.41024  0.72599  Biso   1.000  C
  C354     1.0000 0.25478  0.84453  0.72599  Biso   1.000  C
  C355     1.0000 0.74522  0.58976  0.77401  Biso   1.000  C
  C356     1.0000 0.41024  0.15547  0.77401  Biso   1.000  C
  C357     1.0000 0.84453  0.25478  0.77401  Biso   1.000  C
  C358     1.0000 0.25642  0.07856  0.05933  Biso   1.000  C
  C359     1.0000 0.82213  0.74358  0.05933  Biso   1.000  C
  C360     1.0000 0.92144  0.17787  0.05933  Biso   1.000  C
  C361     1.0000 0.53940  0.10803  0.90030  Biso   1.000  C
  C362     1.0000 0.89197  0.43137  0.90030  Biso   1.000  C
  C363     1.0000 0.56863  0.46060  0.90030  Biso   1.000  C
  C364     1.0000 0.10803  0.53940  0.59970  Biso   1.000  C
  C365     1.0000 0.43137  0.89197  0.59970  Biso   1.000  C
  C366     1.0000 0.46060  0.56863  0.59970  Biso   1.000  C
  C367     1.0000 0.20607  0.44136  0.23363  Biso   1.000  C
  C368     1.0000 0.55864  0.76470  0.23363  Biso   1.000  C
  C369     1.0000 0.23530  0.79393  0.23363  Biso   1.000  C
  C370     1.0000 0.77470  0.87273  0.93303  Biso   1.000  C
  C371     1.0000 0.09804  0.22530  0.93303  Biso   1.000  C
  C372     1.0000 0.12727  0.90196  0.93303  Biso   1.000  C
  C373     1.0000 0.87273  0.77470  0.56697  Biso   1.000  C
  C374     1.0000 0.22530  0.09804  0.56697  Biso   1.000  C
  C375     1.0000 0.90196  0.12727  0.56697  Biso   1.000  C
  C376     1.0000 0.44136  0.20607  0.26637  Biso   1.000  C
  C377     1.0000 0.76470  0.55864  0.26637  Biso   1.000  C
  C378     1.0000 0.79393  0.23530  0.26637  Biso   1.000  C
  C379     1.0000 0.46060  0.89197  0.09970  Biso   1.000  C
  C380     1.0000 0.10803  0.56863  0.09970  Biso   1.000  C
  C381     1.0000 0.43137  0.53940  0.09970  Biso   1.000  C
  C382     1.0000 0.89197  0.46060  0.40030  Biso   1.000  C
  C383     1.0000 0.56863  0.10803  0.40030  Biso   1.000  C
  C384     1.0000 0.53940  0.43137  0.40030  Biso   1.000  C
  C385     1.0000 0.12727  0.22530  0.43303  Biso   1.000  C
  C386     1.0000 0.77470  0.90196  0.43303  Biso   1.000  C
  C387     1.0000 0.09804  0.87273  0.43303  Biso   1.000  C
  C388     1.0000 0.55864  0.79393  0.73363  Biso   1.000  C
  C389     1.0000 0.23530  0.44136  0.73363  Biso   1.000  C
  C390     1.0000 0.20607  0.76470  0.73363  Biso   1.000  C
  C391     1.0000 0.79393  0.55864  0.76637  Biso   1.000  C
  C392     1.0000 0.44136  0.23530  0.76637  Biso   1.000  C
  C393     1.0000 0.76470  0.20607  0.76637  Biso   1.000  C
  C394     1.0000 0.22530  0.12727  0.06697  Biso   1.000  C
  C395     1.0000 0.90196  0.77470  0.06697  Biso   1.000  C
  C396     1.0000 0.87273  0.09804  0.06697  Biso   1.000  C
  H181     1.0000 0.55740  0.14020  0.91130  Biso   1.000  H
  H182     1.0000 0.85980  0.41720  0.91130  Biso   1.000  H
  H183     1.0000 0.58280  0.44260  0.91130  Biso   1.000  H
  H184     1.0000 0.14020  0.55740  0.58870  Biso   1.000  H
  H185     1.0000 0.41720  0.85980  0.58870  Biso   1.000  H
  H186     1.0000 0.44260  0.58280  0.58870  Biso   1.000  H
  H187     1.0000 0.22407  0.47353  0.24463  Biso   1.000  H
  H188     1.0000 0.52647  0.75053  0.24463  Biso   1.000  H
  H189     1.0000 0.24947  0.77593  0.24463  Biso   1.000  H
  H190     1.0000 0.80687  0.89073  0.92203  Biso   1.000  H
  H191     1.0000 0.08387  0.19313  0.92203  Biso   1.000  H
  H192     1.0000 0.10927  0.91613  0.92203  Biso   1.000  H
  H193     1.0000 0.89073  0.80687  0.57797  Biso   1.000  H
  H194     1.0000 0.19313  0.08387  0.57797  Biso   1.000  H
  H195     1.0000 0.91613  0.10927  0.57797  Biso   1.000  H
  H196     1.0000 0.47353  0.22407  0.25537  Biso   1.000  H
  H197     1.0000 0.75053  0.52647  0.25537  Biso   1.000  H
  H198     1.0000 0.77593  0.24947  0.25537  Biso   1.000  H
  H199     1.0000 0.44260  0.85980  0.08870  Biso   1.000  H
  H200     1.0000 0.14020  0.58280  0.08870  Biso   1.000  H
  H201     1.0000 0.41720  0.55740  0.08870  Biso   1.000  H
  H202     1.0000 0.85980  0.44260  0.41130  Biso   1.000  H
  H203     1.0000 0.58280  0.14020  0.41130  Biso   1.000  H
  H204     1.0000 0.55740  0.41720  0.41130  Biso   1.000  H
  H205     1.0000 0.10927  0.19313  0.42203  Biso   1.000  H
  H206     1.0000 0.80687  0.91613  0.42203  Biso   1.000  H
  H207     1.0000 0.08387  0.89073  0.42203  Biso   1.000  H
  H208     1.0000 0.52647  0.77593  0.74463  Biso   1.000  H
  H209     1.0000 0.24947  0.47353  0.74463  Biso   1.000  H
  H210     1.0000 0.22407  0.75053  0.74463  Biso   1.000  H
  H211     1.0000 0.77593  0.52647  0.75537  Biso   1.000  H
  H212     1.0000 0.47353  0.24947  0.75537  Biso   1.000  H
  H213     1.0000 0.75053  0.22407  0.75537  Biso   1.000  H
  H214     1.0000 0.19313  0.10927  0.07797  Biso   1.000  H
  H215     1.0000 0.91613  0.80687  0.07797  Biso   1.000  H
  H216     1.0000 0.89073  0.08387  0.07797  Biso   1.000  H
  C397     1.0000 0.46441  0.09244  0.89190  Biso   1.000  C
  C398     1.0000 0.90756  0.37197  0.89190  Biso   1.000  C
  C399     1.0000 0.62803  0.53559  0.89190  Biso   1.000  C
  C400     1.0000 0.09244  0.46441  0.60810  Biso   1.000  C
  C401     1.0000 0.37197  0.90756  0.60810  Biso   1.000  C
  C402     1.0000 0.53559  0.62803  0.60810  Biso   1.000  C
  C403     1.0000 0.13108  0.42577  0.22523  Biso   1.000  C
  C404     1.0000 0.57423  0.70530  0.22523  Biso   1.000  C
  C405     1.0000 0.29470  0.86892  0.22523  Biso   1.000  C
  C406     1.0000 0.75911  0.79774  0.94143  Biso   1.000  C
  C407     1.0000 0.03864  0.24089  0.94143  Biso   1.000  C
  C408     1.0000 0.20226  0.96136  0.94143  Biso   1.000  C
  C409     1.0000 0.79774  0.75911  0.55857  Biso   1.000  C
  C410     1.0000 0.24089  0.03864  0.55857  Biso   1.000  C
  C411     1.0000 0.96136  0.20226  0.55857  Biso   1.000  C
  C412     1.0000 0.42577  0.13108  0.27477  Biso   1.000  C
  C413     1.0000 0.70530  0.57423  0.27477  Biso   1.000  C
  C414     1.0000 0.86892  0.29470  0.27477  Biso   1.000  C
  C415     1.0000 0.53559  0.90756  0.10810  Biso   1.000  C
  C416     1.0000 0.09244  0.62803  0.10810  Biso   1.000  C
  C417     1.0000 0.37197  0.46441  0.10810  Biso   1.000  C
  C418     1.0000 0.90756  0.53559  0.39190  Biso   1.000  C
  C419     1.0000 0.62803  0.09244  0.39190  Biso   1.000  C
  C420     1.0000 0.46441  0.37197  0.39190  Biso   1.000  C
  C421     1.0000 0.20226  0.24089  0.44143  Biso   1.000  C
  C422     1.0000 0.75911  0.96136  0.44143  Biso   1.000  C
  C423     1.0000 0.03864  0.79774  0.44143  Biso   1.000  C
  C424     1.0000 0.57423  0.86892  0.72523  Biso   1.000  C
  C425     1.0000 0.29470  0.42577  0.72523  Biso   1.000  C
  C426     1.0000 0.13108  0.70530  0.72523  Biso   1.000  C
  C427     1.0000 0.86892  0.57423  0.77477  Biso   1.000  C
  C428     1.0000 0.42577  0.29470  0.77477  Biso   1.000  C
  C429     1.0000 0.70530  0.13108  0.77477  Biso   1.000  C
  C430     1.0000 0.24089  0.20226  0.05857  Biso   1.000  C
  C431     1.0000 0.96136  0.75911  0.05857  Biso   1.000  C
  C432     1.0000 0.79774  0.03864  0.05857  Biso   1.000  C
  C433     1.0000 0.43687  0.04368  0.87602  Biso   1.000  C
  C434     1.0000 0.95632  0.39319  0.87602  Biso   1.000  C
  C435     1.0000 0.60681  0.56313  0.87602  Biso   1.000  C
  C436     1.0000 0.04368  0.43687  0.62398  Biso   1.000  C
  C437     1.0000 0.39319  0.95632  0.62398  Biso   1.000  C
  C438     1.0000 0.56313  0.60681  0.62398  Biso   1.000  C
  C439     1.0000 0.10354  0.37701  0.20935  Biso   1.000  C
  C440     1.0000 0.62299  0.72652  0.20935  Biso   1.000  C
  C441     1.0000 0.27348  0.89646  0.20935  Biso   1.000  C
  C442     1.0000 0.71035  0.77020  0.95731  Biso   1.000  C
  C443     1.0000 0.05986  0.28965  0.95731  Biso   1.000  C
  C444     1.0000 0.22980  0.94014  0.95731  Biso   1.000  C
  C445     1.0000 0.77020  0.71035  0.54269  Biso   1.000  C
  C446     1.0000 0.28965  0.05986  0.54269  Biso   1.000  C
  C447     1.0000 0.94014  0.22980  0.54269  Biso   1.000  C
  C448     1.0000 0.37701  0.10354  0.29065  Biso   1.000  C
  C449     1.0000 0.72652  0.62299  0.29065  Biso   1.000  C
  C450     1.0000 0.89646  0.27348  0.29065  Biso   1.000  C
  C451     1.0000 0.56313  0.95632  0.12398  Biso   1.000  C
  C452     1.0000 0.04368  0.60681  0.12398  Biso   1.000  C
  C453     1.0000 0.39319  0.43687  0.12398  Biso   1.000  C
  C454     1.0000 0.95632  0.56313  0.37602  Biso   1.000  C
  C455     1.0000 0.60681  0.04368  0.37602  Biso   1.000  C
  C456     1.0000 0.43687  0.39319  0.37602  Biso   1.000  C
  C457     1.0000 0.22980  0.28965  0.45731  Biso   1.000  C
  C458     1.0000 0.71035  0.94014  0.45731  Biso   1.000  C
  C459     1.0000 0.05986  0.77020  0.45731  Biso   1.000  C
  C460     1.0000 0.62299  0.89646  0.70935  Biso   1.000  C
  C461     1.0000 0.27348  0.37701  0.70935  Biso   1.000  C
  C462     1.0000 0.10354  0.72652  0.70935  Biso   1.000  C
  C463     1.0000 0.89646  0.62299  0.79065  Biso   1.000  C
  C464     1.0000 0.37701  0.27348  0.79065  Biso   1.000  C
  C465     1.0000 0.72652  0.10354  0.79065  Biso   1.000  C
  C466     1.0000 0.28965  0.22980  0.04269  Biso   1.000  C
  C467     1.0000 0.94014  0.71035  0.04269  Biso   1.000  C
  C468     1.0000 0.77020  0.05986  0.04269  Biso   1.000  C
  H217     1.0000 0.38550  0.03270  0.87030  Biso   1.000  H
  H218     1.0000 0.96730  0.35280  0.87030  Biso   1.000  H
  H219     1.0000 0.64720  0.61450  0.87030  Biso   1.000  H
  H220     1.0000 0.03270  0.38550  0.62970  Biso   1.000  H
  H221     1.0000 0.35280  0.96730  0.62970  Biso   1.000  H
  H222     1.0000 0.61450  0.64720  0.62970  Biso   1.000  H
  H223     1.0000 0.05217  0.36603  0.20363  Biso   1.000  H
  H224     1.0000 0.63397  0.68613  0.20363  Biso   1.000  H
  H225     1.0000 0.31387  0.94783  0.20363  Biso   1.000  H
  H226     1.0000 0.69937  0.71883  0.96303  Biso   1.000  H
  H227     1.0000 0.01947  0.30063  0.96303  Biso   1.000  H
  H228     1.0000 0.28117  0.98053  0.96303  Biso   1.000  H
  H229     1.0000 0.71883  0.69937  0.53697  Biso   1.000  H
  H230     1.0000 0.30063  0.01947  0.53697  Biso   1.000  H
  H231     1.0000 0.98053  0.28117  0.53697  Biso   1.000  H
  H232     1.0000 0.36603  0.05217  0.29637  Biso   1.000  H
  H233     1.0000 0.68613  0.63397  0.29637  Biso   1.000  H
  H234     1.0000 0.94783  0.31387  0.29637  Biso   1.000  H
  H235     1.0000 0.61450  0.96730  0.12970  Biso   1.000  H
  H236     1.0000 0.03270  0.64720  0.12970  Biso   1.000  H
  H237     1.0000 0.35280  0.38550  0.12970  Biso   1.000  H
  H238     1.0000 0.96730  0.61450  0.37030  Biso   1.000  H
  H239     1.0000 0.64720  0.03270  0.37030  Biso   1.000  H
  H240     1.0000 0.38550  0.35280  0.37030  Biso   1.000  H
  H241     1.0000 0.28117  0.30063  0.46303  Biso   1.000  H
  H242     1.0000 0.69937  0.98053  0.46303  Biso   1.000  H
  H243     1.0000 0.01947  0.71883  0.46303  Biso   1.000  H
  H244     1.0000 0.63397  0.94783  0.70363  Biso   1.000  H
  H245     1.0000 0.31387  0.36603  0.70363  Biso   1.000  H
  H246     1.0000 0.05217  0.68613  0.70363  Biso   1.000  H
  H247     1.0000 0.94783  0.63397  0.79637  Biso   1.000  H
  H248     1.0000 0.36603  0.31387  0.79637  Biso   1.000  H
  H249     1.0000 0.68613  0.05217  0.79637  Biso   1.000  H
  H250     1.0000 0.30063  0.28117  0.03697  Biso   1.000  H
  H251     1.0000 0.98053  0.69937  0.03697  Biso   1.000  H
  H252     1.0000 0.71883  0.01947  0.03697  Biso   1.000  H
  C469     1.0000 0.67022  0.09784  0.90168  Biso   1.000  C
  C470     1.0000 0.90216  0.57238  0.90168  Biso   1.000  C
  C471     1.0000 0.42762  0.32978  0.90168  Biso   1.000  C
  C472     1.0000 0.09784  0.67022  0.59832  Biso   1.000  C
  C473     1.0000 0.57238  0.90216  0.59832  Biso   1.000  C
  C474     1.0000 0.32978  0.42762  0.59832  Biso   1.000  C
  C475     1.0000 0.33689  0.43117  0.23501  Biso   1.000  C
  C476     1.0000 0.56883  0.90571  0.23501  Biso   1.000  C
  C477     1.0000 0.09429  0.66311  0.23501  Biso   1.000  C
  C478     1.0000 0.76451  0.00355  0.93165  Biso   1.000  C
  C479     1.0000 0.23905  0.23549  0.93165  Biso   1.000  C
  C480     1.0000 0.99645  0.76095  0.93165  Biso   1.000  C
  C481     1.0000 0.00355  0.76451  0.56835  Biso   1.000  C
  C482     1.0000 0.23549  0.23905  0.56835  Biso   1.000  C
  C483     1.0000 0.76095  0.99645  0.56835  Biso   1.000  C
  C484     1.0000 0.43117  0.33689  0.26499  Biso   1.000  C
  C485     1.0000 0.90571  0.56883  0.26499  Biso   1.000  C
  C486     1.0000 0.66311  0.09429  0.26499  Biso   1.000  C
  C487     1.0000 0.32978  0.90216  0.09832  Biso   1.000  C
  C488     1.0000 0.09784  0.42762  0.09832  Biso   1.000  C
  C489     1.0000 0.57238  0.67022  0.09832  Biso   1.000  C
  C490     1.0000 0.90216  0.32978  0.40168  Biso   1.000  C
  C491     1.0000 0.42762  0.09784  0.40168  Biso   1.000  C
  C492     1.0000 0.67022  0.57238  0.40168  Biso   1.000  C
  C493     1.0000 0.99645  0.23549  0.43165  Biso   1.000  C
  C494     1.0000 0.76451  0.76095  0.43165  Biso   1.000  C
  C495     1.0000 0.23905  0.00355  0.43165  Biso   1.000  C
  C496     1.0000 0.56883  0.66311  0.73501  Biso   1.000  C
  C497     1.0000 0.09429  0.43117  0.73501  Biso   1.000  C
  C498     1.0000 0.33689  0.90571  0.73501  Biso   1.000  C
  C499     1.0000 0.66311  0.56883  0.76499  Biso   1.000  C
  C500     1.0000 0.43117  0.09429  0.76499  Biso   1.000  C
  C501     1.0000 0.90571  0.33689  0.76499  Biso   1.000  C
  C502     1.0000 0.23549  0.99645  0.06835  Biso   1.000  C
  C503     1.0000 0.76095  0.76451  0.06835  Biso   1.000  C
  C504     1.0000 0.00355  0.23905  0.06835  Biso   1.000  C
  C505     1.0000 0.41455  0.12865  0.90033  Biso   1.000  C
  C506     1.0000 0.87135  0.28590  0.90033  Biso   1.000  C
  C507     1.0000 0.71410  0.58545  0.90033  Biso   1.000  C
  C508     1.0000 0.12865  0.41455  0.59967  Biso   1.000  C
  C509     1.0000 0.28590  0.87135  0.59967  Biso   1.000  C
  C510     1.0000 0.58545  0.71410  0.59967  Biso   1.000  C
  C511     1.0000 0.08122  0.46198  0.23366  Biso   1.000  C
  C512     1.0000 0.53802  0.61923  0.23366  Biso   1.000  C
  C513     1.0000 0.38077  0.91878  0.23366  Biso   1.000  C
  C514     1.0000 0.79532  0.74788  0.93300  Biso   1.000  C
  C515     1.0000 0.95257  0.20468  0.93300  Biso   1.000  C
  C516     1.0000 0.25212  0.04743  0.93300  Biso   1.000  C
  C517     1.0000 0.74788  0.79532  0.56700  Biso   1.000  C
  C518     1.0000 0.20468  0.95257  0.56700  Biso   1.000  C
  C519     1.0000 0.04743  0.25212  0.56700  Biso   1.000  C
  C520     1.0000 0.46198  0.08122  0.26634  Biso   1.000  C
  C521     1.0000 0.61923  0.53802  0.26634  Biso   1.000  C
  C522     1.0000 0.91878  0.38077  0.26634  Biso   1.000  C
  C523     1.0000 0.58545  0.87135  0.09967  Biso   1.000  C
  C524     1.0000 0.12865  0.71410  0.09967  Biso   1.000  C
  C525     1.0000 0.28590  0.41455  0.09967  Biso   1.000  C
  C526     1.0000 0.87135  0.58545  0.40033  Biso   1.000  C
  C527     1.0000 0.71410  0.12865  0.40033  Biso   1.000  C
  C528     1.0000 0.41455  0.28590  0.40033  Biso   1.000  C
  C529     1.0000 0.25212  0.20468  0.43300  Biso   1.000  C
  C530     1.0000 0.79532  0.04743  0.43300  Biso   1.000  C
  C531     1.0000 0.95257  0.74788  0.43300  Biso   1.000  C
  C532     1.0000 0.53802  0.91878  0.73366  Biso   1.000  C
  C533     1.0000 0.38077  0.46198  0.73366  Biso   1.000  C
  C534     1.0000 0.08122  0.61923  0.73366  Biso   1.000  C
  C535     1.0000 0.91878  0.53802  0.76634  Biso   1.000  C
  C536     1.0000 0.46198  0.38077  0.76634  Biso   1.000  C
  C537     1.0000 0.61923  0.08122  0.76634  Biso   1.000  C
  C538     1.0000 0.20468  0.25212  0.06700  Biso   1.000  C
  C539     1.0000 0.04743  0.79532  0.06700  Biso   1.000  C
  C540     1.0000 0.74788  0.95257  0.06700  Biso   1.000  C
