data_image0
_cell_length_a       61.5935
_cell_length_b       15.6399
_cell_length_c       17.9843
_cell_angle_alpha    90
_cell_angle_beta     95.8549
_cell_angle_gamma    90

_symmetry_space_group_name_H-M    "P 1"
_symmetry_int_tables_number       1

loop_
  _symmetry_equiv_pos_as_xyz
  'x, y, z'

loop_
  _atom_site_label
  _atom_site_occupancy
  _atom_site_fract_x
  _atom_site_fract_y
  _atom_site_fract_z
  _atom_site_thermal_displace_type
  _atom_site_B_iso_or_equiv
  _atom_site_type_symbol
  Cu1      1.0000 0.15531  0.05568  0.52388  Biso   1.000  Cu
  Cu2      1.0000 0.84469  0.05568  0.97612  Biso   1.000  Cu
  Cu3      1.0000 0.65531  0.55568  0.52388  Biso   1.000  Cu
  Cu4      1.0000 0.34469  0.55568  0.97612  Biso   1.000  Cu
  Cu5      1.0000 0.84469  0.94432  0.47612  Biso   1.000  Cu
  Cu6      1.0000 0.15531  0.94432  0.02388  Biso   1.000  Cu
  Cu7      1.0000 0.34469  0.44432  0.47612  Biso   1.000  Cu
  Cu8      1.0000 0.65531  0.44432  0.02388  Biso   1.000  Cu
  Cu9      1.0000 0.29288  0.19451  0.63533  Biso   1.000  Cu
  Cu10     1.0000 0.70712  0.19451  0.86467  Biso   1.000  Cu
  Cu11     1.0000 0.79288  0.69451  0.63533  Biso   1.000  Cu
  Cu12     1.0000 0.20712  0.69451  0.86467  Biso   1.000  Cu
  Cu13     1.0000 0.70712  0.80549  0.36467  Biso   1.000  Cu
  Cu14     1.0000 0.29288  0.80549  0.13533  Biso   1.000  Cu
  Cu15     1.0000 0.20712  0.30549  0.36467  Biso   1.000  Cu
  Cu16     1.0000 0.79288  0.30549  0.13533  Biso   1.000  Cu
  Cu17     1.0000 0.00000  0.00000  0.50000  Biso   1.000  Cu
  Cu18     1.0000 0.00000  0.00000  0.00000  Biso   1.000  Cu
  Cu19     1.0000 0.50000  0.50000  0.50000  Biso   1.000  Cu
  Cu20     1.0000 0.50000  0.50000  0.00000  Biso   1.000  Cu
  Cu21     1.0000 0.00000  0.74704  0.25000  Biso   1.000  Cu
  Cu22     1.0000 0.50000  0.24704  0.25000  Biso   1.000  Cu
  Cu23     1.0000 0.00000  0.25296  0.75000  Biso   1.000  Cu
  Cu24     1.0000 0.50000  0.75296  0.75000  Biso   1.000  Cu
  O1       1.0000 0.13740  0.09960  0.41910  Biso   1.000  O
  O2       1.0000 0.86260  0.09960  0.08090  Biso   1.000  O
  O3       1.0000 0.63740  0.59960  0.41910  Biso   1.000  O
  O4       1.0000 0.36260  0.59960  0.08090  Biso   1.000  O
  O5       1.0000 0.86260  0.90040  0.58090  Biso   1.000  O
  O6       1.0000 0.13740  0.90040  0.91910  Biso   1.000  O
  O7       1.0000 0.36260  0.40040  0.58090  Biso   1.000  O
  O8       1.0000 0.63740  0.40040  0.91910  Biso   1.000  O
  O9       1.0000 0.29794  0.13900  0.54050  Biso   1.000  O
  O10      1.0000 0.70206  0.13900  0.95950  Biso   1.000  O
  O11      1.0000 0.79794  0.63900  0.54050  Biso   1.000  O
  O12      1.0000 0.20206  0.63900  0.95950  Biso   1.000  O
  O13      1.0000 0.70206  0.86100  0.45950  Biso   1.000  O
  O14      1.0000 0.29794  0.86100  0.04050  Biso   1.000  O
  O15      1.0000 0.20206  0.36100  0.45950  Biso   1.000  O
  O16      1.0000 0.79794  0.36100  0.04050  Biso   1.000  O
  O17      1.0000 0.17261  0.01290  0.62700  Biso   1.000  O
  O18      1.0000 0.82739  0.01290  0.87300  Biso   1.000  O
  O19      1.0000 0.67261  0.51290  0.62700  Biso   1.000  O
  O20      1.0000 0.32739  0.51290  0.87300  Biso   1.000  O
  O21      1.0000 0.82739  0.98710  0.37300  Biso   1.000  O
  O22      1.0000 0.17261  0.98710  0.12700  Biso   1.000  O
  O23      1.0000 0.32739  0.48710  0.37300  Biso   1.000  O
  O24      1.0000 0.67261  0.48710  0.12700  Biso   1.000  O
  O25      1.0000 0.15248  0.17130  0.57650  Biso   1.000  O
  O26      1.0000 0.84752  0.17130  0.92350  Biso   1.000  O
  O27      1.0000 0.65248  0.67130  0.57650  Biso   1.000  O
  O28      1.0000 0.34752  0.67130  0.92350  Biso   1.000  O
  O29      1.0000 0.84752  0.82870  0.42350  Biso   1.000  O
  O30      1.0000 0.15248  0.82870  0.07650  Biso   1.000  O
  O31      1.0000 0.34752  0.32870  0.42350  Biso   1.000  O
  O32      1.0000 0.65248  0.32870  0.07650  Biso   1.000  O
  O33      1.0000 0.16063  0.93570  0.48020  Biso   1.000  O
  O34      1.0000 0.83937  0.93570  0.01980  Biso   1.000  O
  O35      1.0000 0.66063  0.43570  0.48020  Biso   1.000  O
  O36      1.0000 0.33937  0.43570  0.01980  Biso   1.000  O
  O37      1.0000 0.83937  0.06430  0.51980  Biso   1.000  O
  O38      1.0000 0.16063  0.06430  0.98020  Biso   1.000  O
  O39      1.0000 0.33937  0.56430  0.51980  Biso   1.000  O
  O40      1.0000 0.66063  0.56430  0.98020  Biso   1.000  O
  O41      1.0000 0.12825  0.01550  0.55930  Biso   1.000  O
  O42      1.0000 0.87175  0.01550  0.94070  Biso   1.000  O
  O43      1.0000 0.62825  0.51550  0.55930  Biso   1.000  O
  O44      1.0000 0.37175  0.51550  0.94070  Biso   1.000  O
  O45      1.0000 0.87175  0.98450  0.44070  Biso   1.000  O
  O46      1.0000 0.12825  0.98450  0.05930  Biso   1.000  O
  O47      1.0000 0.37175  0.48450  0.44070  Biso   1.000  O
  O48      1.0000 0.62825  0.48450  0.05930  Biso   1.000  O
  O49      1.0000 0.28577  0.25800  0.72480  Biso   1.000  O
  O50      1.0000 0.71423  0.25800  0.77520  Biso   1.000  O
  O51      1.0000 0.78577  0.75800  0.72480  Biso   1.000  O
  O52      1.0000 0.21423  0.75800  0.77520  Biso   1.000  O
  O53      1.0000 0.71423  0.74200  0.27520  Biso   1.000  O
  O54      1.0000 0.28577  0.74200  0.22480  Biso   1.000  O
  O55      1.0000 0.21423  0.24200  0.27520  Biso   1.000  O
  O56      1.0000 0.78577  0.24200  0.22480  Biso   1.000  O
  O57      1.0000 0.32699  0.19330  0.69030  Biso   1.000  O
  O58      1.0000 0.67301  0.19330  0.80970  Biso   1.000  O
  O59      1.0000 0.82699  0.69330  0.69030  Biso   1.000  O
  O60      1.0000 0.17301  0.69330  0.80970  Biso   1.000  O
  O61      1.0000 0.67301  0.80670  0.30970  Biso   1.000  O
  O62      1.0000 0.32699  0.80670  0.19030  Biso   1.000  O
  O63      1.0000 0.17301  0.30670  0.30970  Biso   1.000  O
  O64      1.0000 0.82699  0.30670  0.19030  Biso   1.000  O
  O65      1.0000 0.25476  0.20460  0.60920  Biso   1.000  O
  O66      1.0000 0.74524  0.20460  0.89080  Biso   1.000  O
  O67      1.0000 0.75476  0.70460  0.60920  Biso   1.000  O
  O68      1.0000 0.24524  0.70460  0.89080  Biso   1.000  O
  O69      1.0000 0.74524  0.79540  0.39080  Biso   1.000  O
  O70      1.0000 0.25476  0.79540  0.10920  Biso   1.000  O
  O71      1.0000 0.24524  0.29540  0.39080  Biso   1.000  O
  O72      1.0000 0.75476  0.29540  0.10920  Biso   1.000  O
  O73      1.0000 0.28661  0.08480  0.67970  Biso   1.000  O
  O74      1.0000 0.71339  0.08480  0.82030  Biso   1.000  O
  O75      1.0000 0.78661  0.58480  0.67970  Biso   1.000  O
  O76      1.0000 0.21339  0.58480  0.82030  Biso   1.000  O
  O77      1.0000 0.71339  0.91520  0.32030  Biso   1.000  O
  O78      1.0000 0.28661  0.91520  0.17970  Biso   1.000  O
  O79      1.0000 0.21339  0.41520  0.32030  Biso   1.000  O
  O80      1.0000 0.78661  0.41520  0.17970  Biso   1.000  O
  O81      1.0000 0.01354  0.11340  0.47070  Biso   1.000  O
  O82      1.0000 0.98646  0.11340  0.02930  Biso   1.000  O
  O83      1.0000 0.51354  0.61340  0.47070  Biso   1.000  O
  O84      1.0000 0.48646  0.61340  0.02930  Biso   1.000  O
  O85      1.0000 0.98646  0.88660  0.52930  Biso   1.000  O
  O86      1.0000 0.01354  0.88660  0.97070  Biso   1.000  O
  O87      1.0000 0.48646  0.38660  0.52930  Biso   1.000  O
  O88      1.0000 0.51354  0.38660  0.97070  Biso   1.000  O
  O89      1.0000 0.97545  0.01690  0.41200  Biso   1.000  O
  O90      1.0000 0.02455  0.01690  0.08800  Biso   1.000  O
  O91      1.0000 0.47545  0.51690  0.41200  Biso   1.000  O
  O92      1.0000 0.52455  0.51690  0.08800  Biso   1.000  O
  O93      1.0000 0.02455  0.98310  0.58800  Biso   1.000  O
  O94      1.0000 0.97545  0.98310  0.91200  Biso   1.000  O
  O95      1.0000 0.52455  0.48310  0.58800  Biso   1.000  O
  O96      1.0000 0.47545  0.48310  0.91200  Biso   1.000  O
  O97      1.0000 0.02471  0.74860  0.19190  Biso   1.000  O
  O98      1.0000 0.97529  0.74860  0.30810  Biso   1.000  O
  O99      1.0000 0.52471  0.24860  0.19190  Biso   1.000  O
  O100     1.0000 0.47529  0.24860  0.30810  Biso   1.000  O
  O101     1.0000 0.97529  0.25140  0.80810  Biso   1.000  O
  O102     1.0000 0.02471  0.25140  0.69190  Biso   1.000  O
  O103     1.0000 0.47529  0.75140  0.80810  Biso   1.000  O
  O104     1.0000 0.52471  0.75140  0.69190  Biso   1.000  O
  O105     1.0000 0.98692  0.64580  0.18160  Biso   1.000  O
  O106     1.0000 0.01308  0.64580  0.31840  Biso   1.000  O
  O107     1.0000 0.48692  0.14580  0.18160  Biso   1.000  O
  O108     1.0000 0.51308  0.14580  0.31840  Biso   1.000  O
  O109     1.0000 0.01308  0.35420  0.81840  Biso   1.000  O
  O110     1.0000 0.98692  0.35420  0.68160  Biso   1.000  O
  O111     1.0000 0.51308  0.85420  0.81840  Biso   1.000  O
  O112     1.0000 0.48692  0.85420  0.68160  Biso   1.000  O
  N1       1.0000 0.01843  0.93500  0.42790  Biso   1.000  N
  N2       1.0000 0.98157  0.93500  0.07210  Biso   1.000  N
  N3       1.0000 0.51843  0.43500  0.42790  Biso   1.000  N
  N4       1.0000 0.48157  0.43500  0.07210  Biso   1.000  N
  N5       1.0000 0.98157  0.06500  0.57210  Biso   1.000  N
  N6       1.0000 0.01843  0.06500  0.92790  Biso   1.000  N
  N7       1.0000 0.48157  0.56500  0.57210  Biso   1.000  N
  N8       1.0000 0.51843  0.56500  0.92790  Biso   1.000  N
  N9       1.0000 0.01824  0.84200  0.32570  Biso   1.000  N
  N10      1.0000 0.98176  0.84200  0.17430  Biso   1.000  N
  N11      1.0000 0.51824  0.34200  0.32570  Biso   1.000  N
  N12      1.0000 0.48176  0.34200  0.17430  Biso   1.000  N
  N13      1.0000 0.98176  0.15800  0.67430  Biso   1.000  N
  N14      1.0000 0.01824  0.15800  0.82570  Biso   1.000  N
  N15      1.0000 0.48176  0.65800  0.67430  Biso   1.000  N
  N16      1.0000 0.51824  0.65800  0.82570  Biso   1.000  N
  N17      1.0000 0.11629  0.10230  0.40600  Biso   1.000  N
  N18      1.0000 0.88371  0.10230  0.09400  Biso   1.000  N
  N19      1.0000 0.61629  0.60230  0.40600  Biso   1.000  N
  N20      1.0000 0.38371  0.60230  0.09400  Biso   1.000  N
  N21      1.0000 0.88371  0.89770  0.59400  Biso   1.000  N
  N22      1.0000 0.11629  0.89770  0.90600  Biso   1.000  N
  N23      1.0000 0.38371  0.39770  0.59400  Biso   1.000  N
  N24      1.0000 0.61629  0.39770  0.90600  Biso   1.000  N
  N25      1.0000 0.20326  0.19230  0.41770  Biso   1.000  N
  N26      1.0000 0.79674  0.19230  0.08230  Biso   1.000  N
  N27      1.0000 0.70326  0.69230  0.41770  Biso   1.000  N
  N28      1.0000 0.29674  0.69230  0.08230  Biso   1.000  N
  N29      1.0000 0.79674  0.80770  0.58230  Biso   1.000  N
  N30      1.0000 0.20326  0.80770  0.91770  Biso   1.000  N
  N31      1.0000 0.29674  0.30770  0.58230  Biso   1.000  N
  N32      1.0000 0.70326  0.30770  0.91770  Biso   1.000  N
  N33      1.0000 0.18325  0.09370  0.48160  Biso   1.000  N
  N34      1.0000 0.81675  0.09370  0.01840  Biso   1.000  N
  N35      1.0000 0.68325  0.59370  0.48160  Biso   1.000  N
  N36      1.0000 0.31675  0.59370  0.01840  Biso   1.000  N
  N37      1.0000 0.81675  0.90630  0.51840  Biso   1.000  N
  N38      1.0000 0.18325  0.90630  0.98160  Biso   1.000  N
  N39      1.0000 0.31675  0.40630  0.51840  Biso   1.000  N
  N40      1.0000 0.68325  0.40630  0.98160  Biso   1.000  N
  N41      1.0000 0.29970  0.05710  0.53330  Biso   1.000  N
  N42      1.0000 0.70030  0.05710  0.96670  Biso   1.000  N
  N43      1.0000 0.79970  0.55710  0.53330  Biso   1.000  N
  N44      1.0000 0.20030  0.55710  0.96670  Biso   1.000  N
  N45      1.0000 0.70030  0.94290  0.46670  Biso   1.000  N
  N46      1.0000 0.29970  0.94290  0.03330  Biso   1.000  N
  N47      1.0000 0.20030  0.44290  0.46670  Biso   1.000  N
  N48      1.0000 0.79970  0.44290  0.03330  Biso   1.000  N
  C1       1.0000 0.03991  0.94980  0.42480  Biso   1.000  C
  C2       1.0000 0.96009  0.94980  0.07520  Biso   1.000  C
  C3       1.0000 0.53991  0.44980  0.42480  Biso   1.000  C
  C4       1.0000 0.46009  0.44980  0.07520  Biso   1.000  C
  C5       1.0000 0.96009  0.05020  0.57520  Biso   1.000  C
  C6       1.0000 0.03991  0.05020  0.92480  Biso   1.000  C
  C7       1.0000 0.46009  0.55020  0.57520  Biso   1.000  C
  C8       1.0000 0.53991  0.55020  0.92480  Biso   1.000  C
  H1       1.0000 0.04710  0.98670  0.45950  Biso   1.000  H
  H2       1.0000 0.95290  0.98670  0.04050  Biso   1.000  H
  H3       1.0000 0.54710  0.48670  0.45950  Biso   1.000  H
  H4       1.0000 0.45290  0.48670  0.04050  Biso   1.000  H
  H5       1.0000 0.95290  0.01330  0.54050  Biso   1.000  H
  H6       1.0000 0.04710  0.01330  0.95950  Biso   1.000  H
  H7       1.0000 0.45290  0.51330  0.54050  Biso   1.000  H
  H8       1.0000 0.54710  0.51330  0.95950  Biso   1.000  H
  C9       1.0000 0.00864  0.88140  0.37850  Biso   1.000  C
  C10      1.0000 0.99136  0.88140  0.12150  Biso   1.000  C
  C11      1.0000 0.50864  0.38140  0.37850  Biso   1.000  C
  C12      1.0000 0.49136  0.38140  0.12150  Biso   1.000  C
  C13      1.0000 0.99136  0.11860  0.62150  Biso   1.000  C
  C14      1.0000 0.00864  0.11860  0.87850  Biso   1.000  C
  C15      1.0000 0.49136  0.61860  0.62150  Biso   1.000  C
  C16      1.0000 0.50864  0.61860  0.87850  Biso   1.000  C
  H9       1.0000 0.99390  0.87060  0.38110  Biso   1.000  H
  H10      1.0000 0.00610  0.87060  0.11890  Biso   1.000  H
  H11      1.0000 0.49390  0.37060  0.38110  Biso   1.000  H
  H12      1.0000 0.50610  0.37060  0.11890  Biso   1.000  H
  H13      1.0000 0.00610  0.12940  0.61890  Biso   1.000  H
  H14      1.0000 0.99390  0.12940  0.88110  Biso   1.000  H
  H15      1.0000 0.50610  0.62940  0.61890  Biso   1.000  H
  H16      1.0000 0.49390  0.62940  0.88110  Biso   1.000  H
  C17      1.0000 0.03959  0.85710  0.32290  Biso   1.000  C
  C18      1.0000 0.96041  0.85710  0.17710  Biso   1.000  C
  C19      1.0000 0.53959  0.35710  0.32290  Biso   1.000  C
  C20      1.0000 0.46041  0.35710  0.17710  Biso   1.000  C
  C21      1.0000 0.96041  0.14290  0.67710  Biso   1.000  C
  C22      1.0000 0.03959  0.14290  0.82290  Biso   1.000  C
  C23      1.0000 0.46041  0.64290  0.67710  Biso   1.000  C
  C24      1.0000 0.53959  0.64290  0.82290  Biso   1.000  C
  H17      1.0000 0.04670  0.82940  0.28650  Biso   1.000  H
  H18      1.0000 0.95330  0.82940  0.21350  Biso   1.000  H
  H19      1.0000 0.54670  0.32940  0.28650  Biso   1.000  H
  H20      1.0000 0.45330  0.32940  0.21350  Biso   1.000  H
  H21      1.0000 0.95330  0.17060  0.71350  Biso   1.000  H
  H22      1.0000 0.04670  0.17060  0.78650  Biso   1.000  H
  H23      1.0000 0.45330  0.67060  0.71350  Biso   1.000  H
  H24      1.0000 0.54670  0.67060  0.78650  Biso   1.000  H
  C25      1.0000 0.05162  0.91220  0.37210  Biso   1.000  C
  C26      1.0000 0.94838  0.91220  0.12790  Biso   1.000  C
  C27      1.0000 0.55162  0.41220  0.37210  Biso   1.000  C
  C28      1.0000 0.44838  0.41220  0.12790  Biso   1.000  C
  C29      1.0000 0.94838  0.08780  0.62790  Biso   1.000  C
  C30      1.0000 0.05162  0.08780  0.87210  Biso   1.000  C
  C31      1.0000 0.44838  0.58780  0.62790  Biso   1.000  C
  C32      1.0000 0.55162  0.58780  0.87210  Biso   1.000  C
  C33      1.0000 0.07495  0.92970  0.36520  Biso   1.000  C
  C34      1.0000 0.92505  0.92970  0.13480  Biso   1.000  C
  C35      1.0000 0.57495  0.42970  0.36520  Biso   1.000  C
  C36      1.0000 0.42505  0.42970  0.13480  Biso   1.000  C
  C37      1.0000 0.92505  0.07030  0.63480  Biso   1.000  C
  C38      1.0000 0.07495  0.07030  0.86520  Biso   1.000  C
  C39      1.0000 0.42505  0.57030  0.63480  Biso   1.000  C
  C40      1.0000 0.57495  0.57030  0.86520  Biso   1.000  C
  C41      1.0000 0.08412  0.00710  0.38920  Biso   1.000  C
  C42      1.0000 0.91588  0.00710  0.11080  Biso   1.000  C
  C43      1.0000 0.58412  0.50710  0.38920  Biso   1.000  C
  C44      1.0000 0.41588  0.50710  0.11080  Biso   1.000  C
  C45      1.0000 0.91588  0.99290  0.61080  Biso   1.000  C
  C46      1.0000 0.08412  0.99290  0.88920  Biso   1.000  C
  C47      1.0000 0.41588  0.49290  0.61080  Biso   1.000  C
  C48      1.0000 0.58412  0.49290  0.88920  Biso   1.000  C
  H25      1.0000 0.07570  0.04770  0.41080  Biso   1.000  H
  H26      1.0000 0.92430  0.04770  0.08920  Biso   1.000  H
  H27      1.0000 0.57570  0.54770  0.41080  Biso   1.000  H
  H28      1.0000 0.42430  0.54770  0.08920  Biso   1.000  H
  H29      1.0000 0.92430  0.95230  0.58920  Biso   1.000  H
  H30      1.0000 0.07570  0.95230  0.91080  Biso   1.000  H
  H31      1.0000 0.42430  0.45230  0.58920  Biso   1.000  H
  H32      1.0000 0.57570  0.45230  0.91080  Biso   1.000  H
  C49      1.0000 0.10616  0.02450  0.38100  Biso   1.000  C
  C50      1.0000 0.89384  0.02450  0.11900  Biso   1.000  C
  C51      1.0000 0.60616  0.52450  0.38100  Biso   1.000  C
  C52      1.0000 0.39384  0.52450  0.11900  Biso   1.000  C
  C53      1.0000 0.89384  0.97550  0.61900  Biso   1.000  C
  C54      1.0000 0.10616  0.97550  0.88100  Biso   1.000  C
  C55      1.0000 0.39384  0.47550  0.61900  Biso   1.000  C
  C56      1.0000 0.60616  0.47550  0.88100  Biso   1.000  C
  C57      1.0000 0.11829  0.96420  0.34780  Biso   1.000  C
  C58      1.0000 0.88171  0.96420  0.15220  Biso   1.000  C
  C59      1.0000 0.61829  0.46420  0.34780  Biso   1.000  C
  C60      1.0000 0.38171  0.46420  0.15220  Biso   1.000  C
  C61      1.0000 0.88171  0.03580  0.65220  Biso   1.000  C
  C62      1.0000 0.11829  0.03580  0.84780  Biso   1.000  C
  C63      1.0000 0.38171  0.53580  0.65220  Biso   1.000  C
  C64      1.0000 0.61829  0.53580  0.84780  Biso   1.000  C
  H33      1.0000 0.13280  0.97510  0.34170  Biso   1.000  H
  H34      1.0000 0.86720  0.97510  0.15830  Biso   1.000  H
  H35      1.0000 0.63280  0.47510  0.34170  Biso   1.000  H
  H36      1.0000 0.36720  0.47510  0.15830  Biso   1.000  H
  H37      1.0000 0.86720  0.02490  0.65830  Biso   1.000  H
  H38      1.0000 0.13280  0.02490  0.84170  Biso   1.000  H
  H39      1.0000 0.36720  0.52490  0.65830  Biso   1.000  H
  H40      1.0000 0.63280  0.52490  0.84170  Biso   1.000  H
  C65      1.0000 0.10911  0.88910  0.32400  Biso   1.000  C
  C66      1.0000 0.89089  0.88910  0.17600  Biso   1.000  C
  C67      1.0000 0.60911  0.38910  0.32400  Biso   1.000  C
  C68      1.0000 0.39089  0.38910  0.17600  Biso   1.000  C
  C69      1.0000 0.89089  0.11090  0.67600  Biso   1.000  C
  C70      1.0000 0.10911  0.11090  0.82400  Biso   1.000  C
  C71      1.0000 0.39089  0.61090  0.67600  Biso   1.000  C
  C72      1.0000 0.60911  0.61090  0.82400  Biso   1.000  C
  H41      1.0000 0.11750  0.84950  0.30090  Biso   1.000  H
  H42      1.0000 0.88250  0.84950  0.19910  Biso   1.000  H
  H43      1.0000 0.61750  0.34950  0.30090  Biso   1.000  H
  H44      1.0000 0.38250  0.34950  0.19910  Biso   1.000  H
  H45      1.0000 0.88250  0.15050  0.69910  Biso   1.000  H
  H46      1.0000 0.11750  0.15050  0.80090  Biso   1.000  H
  H47      1.0000 0.38250  0.65050  0.69910  Biso   1.000  H
  H48      1.0000 0.61750  0.65050  0.80090  Biso   1.000  H
  C73      1.0000 0.08770  0.86930  0.33280  Biso   1.000  C
  C74      1.0000 0.91230  0.86930  0.16720  Biso   1.000  C
  C75      1.0000 0.58770  0.36930  0.33280  Biso   1.000  C
  C76      1.0000 0.41230  0.36930  0.16720  Biso   1.000  C
  C77      1.0000 0.91230  0.13070  0.66720  Biso   1.000  C
  C78      1.0000 0.08770  0.13070  0.83280  Biso   1.000  C
  C79      1.0000 0.41230  0.63070  0.66720  Biso   1.000  C
  C80      1.0000 0.58770  0.63070  0.83280  Biso   1.000  C
  H49      1.0000 0.08190  0.81660  0.31740  Biso   1.000  H
  H50      1.0000 0.91810  0.81660  0.18260  Biso   1.000  H
  H51      1.0000 0.58190  0.31660  0.31740  Biso   1.000  H
  H52      1.0000 0.41810  0.31660  0.18260  Biso   1.000  H
  H53      1.0000 0.91810  0.18340  0.68260  Biso   1.000  H
  H54      1.0000 0.08190  0.18340  0.81740  Biso   1.000  H
  H55      1.0000 0.41810  0.68340  0.68260  Biso   1.000  H
  H56      1.0000 0.58190  0.68340  0.81740  Biso   1.000  H
  C81      1.0000 0.10521  0.18630  0.41340  Biso   1.000  C
  C82      1.0000 0.89479  0.18630  0.08660  Biso   1.000  C
  C83      1.0000 0.60521  0.68630  0.41340  Biso   1.000  C
  C84      1.0000 0.39479  0.68630  0.08660  Biso   1.000  C
  C85      1.0000 0.89479  0.81370  0.58660  Biso   1.000  C
  C86      1.0000 0.10521  0.81370  0.91340  Biso   1.000  C
  C87      1.0000 0.39479  0.31370  0.58660  Biso   1.000  C
  C88      1.0000 0.60521  0.31370  0.91340  Biso   1.000  C
  C89      1.0000 0.08928  0.20230  0.34410  Biso   1.000  C
  C90      1.0000 0.91072  0.20230  0.15590  Biso   1.000  C
  C91      1.0000 0.58928  0.70230  0.34410  Biso   1.000  C
  C92      1.0000 0.41072  0.70230  0.15590  Biso   1.000  C
  C93      1.0000 0.91072  0.79770  0.65590  Biso   1.000  C
  C94      1.0000 0.08928  0.79770  0.84410  Biso   1.000  C
  C95      1.0000 0.41072  0.29770  0.65590  Biso   1.000  C
  C96      1.0000 0.58928  0.29770  0.84410  Biso   1.000  C
  H57      1.0000 0.07820  0.15890  0.34050  Biso   1.000  H
  H58      1.0000 0.92180  0.15890  0.15950  Biso   1.000  H
  H59      1.0000 0.57820  0.65890  0.34050  Biso   1.000  H
  H60      1.0000 0.42180  0.65890  0.15950  Biso   1.000  H
  H61      1.0000 0.92180  0.84110  0.65950  Biso   1.000  H
  H62      1.0000 0.07820  0.84110  0.84050  Biso   1.000  H
  H63      1.0000 0.42180  0.34110  0.65950  Biso   1.000  H
  H64      1.0000 0.57820  0.34110  0.84050  Biso   1.000  H
  H65      1.0000 0.09700  0.20060  0.30040  Biso   1.000  H
  H66      1.0000 0.90300  0.20060  0.19960  Biso   1.000  H
  H67      1.0000 0.59700  0.70060  0.30040  Biso   1.000  H
  H68      1.0000 0.40300  0.70060  0.19960  Biso   1.000  H
  H69      1.0000 0.90300  0.79940  0.69960  Biso   1.000  H
  H70      1.0000 0.09700  0.79940  0.80040  Biso   1.000  H
  H71      1.0000 0.40300  0.29940  0.69960  Biso   1.000  H
  H72      1.0000 0.59700  0.29940  0.80040  Biso   1.000  H
  H73      1.0000 0.08260  0.25740  0.34790  Biso   1.000  H
  H74      1.0000 0.91740  0.25740  0.15210  Biso   1.000  H
  H75      1.0000 0.58260  0.75740  0.34790  Biso   1.000  H
  H76      1.0000 0.41740  0.75740  0.15210  Biso   1.000  H
  H77      1.0000 0.91740  0.74260  0.65210  Biso   1.000  H
  H78      1.0000 0.08260  0.74260  0.84790  Biso   1.000  H
  H79      1.0000 0.41740  0.24260  0.65210  Biso   1.000  H
  H80      1.0000 0.58260  0.24260  0.84790  Biso   1.000  H
  C97      1.0000 0.09431  0.18810  0.48510  Biso   1.000  C
  C98      1.0000 0.90569  0.18810  0.01490  Biso   1.000  C
  C99      1.0000 0.59431  0.68810  0.48510  Biso   1.000  C
  C100     1.0000 0.40569  0.68810  0.01490  Biso   1.000  C
  C101     1.0000 0.90569  0.81190  0.51490  Biso   1.000  C
  C102     1.0000 0.09431  0.81190  0.98510  Biso   1.000  C
  C103     1.0000 0.40569  0.31190  0.51490  Biso   1.000  C
  C104     1.0000 0.59431  0.31190  0.98510  Biso   1.000  C
  H81      1.0000 0.08330  0.14430  0.48350  Biso   1.000  H
  H82      1.0000 0.91670  0.14430  0.01650  Biso   1.000  H
  H83      1.0000 0.58330  0.64430  0.48350  Biso   1.000  H
  H84      1.0000 0.41670  0.64430  0.01650  Biso   1.000  H
  H85      1.0000 0.91670  0.85570  0.51650  Biso   1.000  H
  H86      1.0000 0.08330  0.85570  0.98350  Biso   1.000  H
  H87      1.0000 0.41670  0.35570  0.51650  Biso   1.000  H
  H88      1.0000 0.58330  0.35570  0.98350  Biso   1.000  H
  H89      1.0000 0.08770  0.24290  0.49050  Biso   1.000  H
  H90      1.0000 0.91230  0.24290  0.00950  Biso   1.000  H
  H91      1.0000 0.58770  0.74290  0.49050  Biso   1.000  H
  H92      1.0000 0.41230  0.74290  0.00950  Biso   1.000  H
  H93      1.0000 0.91230  0.75710  0.50950  Biso   1.000  H
  H94      1.0000 0.08770  0.75710  0.99050  Biso   1.000  H
  H95      1.0000 0.41230  0.25710  0.50950  Biso   1.000  H
  H96      1.0000 0.58770  0.25710  0.99050  Biso   1.000  H
  H97      1.0000 0.10500  0.17810  0.52680  Biso   1.000  H
  H98      1.0000 0.89500  0.17810  0.97320  Biso   1.000  H
  H99      1.0000 0.60500  0.67810  0.52680  Biso   1.000  H
  H100     1.0000 0.39500  0.67810  0.97320  Biso   1.000  H
  H101     1.0000 0.89500  0.82190  0.47320  Biso   1.000  H
  H102     1.0000 0.10500  0.82190  0.02680  Biso   1.000  H
  H103     1.0000 0.39500  0.32190  0.47320  Biso   1.000  H
  H104     1.0000 0.60500  0.32190  0.02680  Biso   1.000  H
  C105     1.0000 0.12273  0.25630  0.41870  Biso   1.000  C
  C106     1.0000 0.87727  0.25630  0.08130  Biso   1.000  C
  C107     1.0000 0.62273  0.75630  0.41870  Biso   1.000  C
  C108     1.0000 0.37727  0.75630  0.08130  Biso   1.000  C
  C109     1.0000 0.87727  0.74370  0.58130  Biso   1.000  C
  C110     1.0000 0.12273  0.74370  0.91870  Biso   1.000  C
  C111     1.0000 0.37727  0.24370  0.58130  Biso   1.000  C
  C112     1.0000 0.62273  0.24370  0.91870  Biso   1.000  C
  H105     1.0000 0.12990  0.25650  0.37390  Biso   1.000  H
  H106     1.0000 0.87010  0.25650  0.12610  Biso   1.000  H
  H107     1.0000 0.62990  0.75650  0.37390  Biso   1.000  H
  H108     1.0000 0.37010  0.75650  0.12610  Biso   1.000  H
  H109     1.0000 0.87010  0.74350  0.62610  Biso   1.000  H
  H110     1.0000 0.12990  0.74350  0.87390  Biso   1.000  H
  H111     1.0000 0.37010  0.24350  0.62610  Biso   1.000  H
  H112     1.0000 0.62990  0.24350  0.87390  Biso   1.000  H
  H113     1.0000 0.13320  0.24530  0.46090  Biso   1.000  H
  H114     1.0000 0.86680  0.24530  0.03910  Biso   1.000  H
  H115     1.0000 0.63320  0.74530  0.46090  Biso   1.000  H
  H116     1.0000 0.36680  0.74530  0.03910  Biso   1.000  H
  H117     1.0000 0.86680  0.75470  0.53910  Biso   1.000  H
  H118     1.0000 0.13320  0.75470  0.96090  Biso   1.000  H
  H119     1.0000 0.36680  0.25470  0.53910  Biso   1.000  H
  H120     1.0000 0.63320  0.25470  0.96090  Biso   1.000  H
  H121     1.0000 0.11600  0.31090  0.42480  Biso   1.000  H
  H122     1.0000 0.88400  0.31090  0.07520  Biso   1.000  H
  H123     1.0000 0.61600  0.81090  0.42480  Biso   1.000  H
  H124     1.0000 0.38400  0.81090  0.07520  Biso   1.000  H
  H125     1.0000 0.88400  0.68910  0.57520  Biso   1.000  H
  H126     1.0000 0.11600  0.68910  0.92480  Biso   1.000  H
  H127     1.0000 0.38400  0.18910  0.57520  Biso   1.000  H
  H128     1.0000 0.61600  0.18910  0.92480  Biso   1.000  H
  C113     1.0000 0.22099  0.14080  0.42820  Biso   1.000  C
  C114     1.0000 0.77901  0.14080  0.07180  Biso   1.000  C
  C115     1.0000 0.72099  0.64080  0.42820  Biso   1.000  C
  C116     1.0000 0.27901  0.64080  0.07180  Biso   1.000  C
  C117     1.0000 0.77901  0.85920  0.57180  Biso   1.000  C
  C118     1.0000 0.22099  0.85920  0.92820  Biso   1.000  C
  C119     1.0000 0.27901  0.35920  0.57180  Biso   1.000  C
  C120     1.0000 0.72099  0.35920  0.92820  Biso   1.000  C
  H129     1.0000 0.23360  0.15630  0.40740  Biso   1.000  H
  H130     1.0000 0.76640  0.15630  0.09260  Biso   1.000  H
  H131     1.0000 0.73360  0.65630  0.40740  Biso   1.000  H
  H132     1.0000 0.26640  0.65630  0.09260  Biso   1.000  H
  H133     1.0000 0.76640  0.84370  0.59260  Biso   1.000  H
  H134     1.0000 0.23360  0.84370  0.90740  Biso   1.000  H
  H135     1.0000 0.26640  0.34370  0.59260  Biso   1.000  H
  H136     1.0000 0.73360  0.34370  0.90740  Biso   1.000  H
  C121     1.0000 0.18513  0.16660  0.44450  Biso   1.000  C
  C122     1.0000 0.81487  0.16660  0.05550  Biso   1.000  C
  C123     1.0000 0.68513  0.66660  0.44450  Biso   1.000  C
  C124     1.0000 0.31487  0.66660  0.05550  Biso   1.000  C
  C125     1.0000 0.81487  0.83340  0.55550  Biso   1.000  C
  C126     1.0000 0.18513  0.83340  0.94450  Biso   1.000  C
  C127     1.0000 0.31487  0.33340  0.55550  Biso   1.000  C
  C128     1.0000 0.68513  0.33340  0.94450  Biso   1.000  C
  H137     1.0000 0.17290  0.20170  0.43690  Biso   1.000  H
  H138     1.0000 0.82710  0.20170  0.06310  Biso   1.000  H
  H139     1.0000 0.67290  0.70170  0.43690  Biso   1.000  H
  H140     1.0000 0.32710  0.70170  0.06310  Biso   1.000  H
  H141     1.0000 0.82710  0.79830  0.56310  Biso   1.000  H
  H142     1.0000 0.17290  0.79830  0.93690  Biso   1.000  H
  H143     1.0000 0.32710  0.29830  0.56310  Biso   1.000  H
  H144     1.0000 0.67290  0.29830  0.93690  Biso   1.000  H
  C129     1.0000 0.20120  0.04480  0.49420  Biso   1.000  C
  C130     1.0000 0.79880  0.04480  0.00580  Biso   1.000  C
  C131     1.0000 0.70120  0.54480  0.49420  Biso   1.000  C
  C132     1.0000 0.29880  0.54480  0.00580  Biso   1.000  C
  C133     1.0000 0.79880  0.95520  0.50580  Biso   1.000  C
  C134     1.0000 0.20120  0.95520  0.99420  Biso   1.000  C
  C135     1.0000 0.29880  0.45520  0.50580  Biso   1.000  C
  C136     1.0000 0.70120  0.45520  0.99420  Biso   1.000  C
  H145     1.0000 0.20030  0.99440  0.52130  Biso   1.000  H
  H146     1.0000 0.79970  0.99440  0.97870  Biso   1.000  H
  H147     1.0000 0.70030  0.49440  0.52130  Biso   1.000  H
  H148     1.0000 0.29970  0.49440  0.97870  Biso   1.000  H
  H149     1.0000 0.79970  0.00560  0.47870  Biso   1.000  H
  H150     1.0000 0.20030  0.00560  0.02130  Biso   1.000  H
  H151     1.0000 0.29970  0.50560  0.47870  Biso   1.000  H
  H152     1.0000 0.70030  0.50560  0.02130  Biso   1.000  H
  C137     1.0000 0.22077  0.06590  0.46890  Biso   1.000  C
  C138     1.0000 0.77923  0.06590  0.03110  Biso   1.000  C
  C139     1.0000 0.72077  0.56590  0.46890  Biso   1.000  C
  C140     1.0000 0.27923  0.56590  0.03110  Biso   1.000  C
  C141     1.0000 0.77923  0.93410  0.53110  Biso   1.000  C
  C142     1.0000 0.22077  0.93410  0.96890  Biso   1.000  C
  C143     1.0000 0.27923  0.43410  0.53110  Biso   1.000  C
  C144     1.0000 0.72077  0.43410  0.96890  Biso   1.000  C
  C145     1.0000 0.24095  0.01480  0.48690  Biso   1.000  C
  C146     1.0000 0.75905  0.01480  0.01310  Biso   1.000  C
  C147     1.0000 0.74095  0.51480  0.48690  Biso   1.000  C
  C148     1.0000 0.25905  0.51480  0.01310  Biso   1.000  C
  C149     1.0000 0.75905  0.98520  0.51310  Biso   1.000  C
  C150     1.0000 0.24095  0.98520  0.98690  Biso   1.000  C
  C151     1.0000 0.25905  0.48520  0.51310  Biso   1.000  C
  C152     1.0000 0.74095  0.48520  0.98690  Biso   1.000  C
  C153     1.0000 0.26091  0.05690  0.49900  Biso   1.000  C
  C154     1.0000 0.73909  0.05690  0.00100  Biso   1.000  C
  C155     1.0000 0.76091  0.55690  0.49900  Biso   1.000  C
  C156     1.0000 0.23909  0.55690  0.00100  Biso   1.000  C
  C157     1.0000 0.73909  0.94310  0.50100  Biso   1.000  C
  C158     1.0000 0.26091  0.94310  0.99900  Biso   1.000  C
  C159     1.0000 0.23909  0.44310  0.50100  Biso   1.000  C
  C160     1.0000 0.76091  0.44310  0.99900  Biso   1.000  C
  H153     1.0000 0.26150  0.11600  0.49350  Biso   1.000  H
  H154     1.0000 0.73850  0.11600  0.00650  Biso   1.000  H
  H155     1.0000 0.76150  0.61600  0.49350  Biso   1.000  H
  H156     1.0000 0.23850  0.61600  0.00650  Biso   1.000  H
  H157     1.0000 0.73850  0.88400  0.50650  Biso   1.000  H
  H158     1.0000 0.26150  0.88400  0.99350  Biso   1.000  H
  H159     1.0000 0.23850  0.38400  0.50650  Biso   1.000  H
  H160     1.0000 0.76150  0.38400  0.99350  Biso   1.000  H
  C161     1.0000 0.27997  0.01060  0.51940  Biso   1.000  C
  C162     1.0000 0.72003  0.01060  0.98060  Biso   1.000  C
  C163     1.0000 0.77997  0.51060  0.51940  Biso   1.000  C
  C164     1.0000 0.22003  0.51060  0.98060  Biso   1.000  C
  C165     1.0000 0.72003  0.98940  0.48060  Biso   1.000  C
  C166     1.0000 0.27997  0.98940  0.01940  Biso   1.000  C
  C167     1.0000 0.22003  0.48940  0.48060  Biso   1.000  C
  C168     1.0000 0.77997  0.48940  0.01940  Biso   1.000  C
  C169     1.0000 0.27889  0.92240  0.52850  Biso   1.000  C
  C170     1.0000 0.72111  0.92240  0.97150  Biso   1.000  C
  C171     1.0000 0.77889  0.42240  0.52850  Biso   1.000  C
  C172     1.0000 0.22111  0.42240  0.97150  Biso   1.000  C
  C173     1.0000 0.72111  0.07760  0.47150  Biso   1.000  C
  C174     1.0000 0.27889  0.07760  0.02850  Biso   1.000  C
  C175     1.0000 0.22111  0.57760  0.47150  Biso   1.000  C
  C176     1.0000 0.77889  0.57760  0.02850  Biso   1.000  C
  H161     1.0000 0.29140  0.89110  0.54410  Biso   1.000  H
  H162     1.0000 0.70860  0.89110  0.95590  Biso   1.000  H
  H163     1.0000 0.79140  0.39110  0.54410  Biso   1.000  H
  H164     1.0000 0.20860  0.39110  0.95590  Biso   1.000  H
  H165     1.0000 0.70860  0.10890  0.45590  Biso   1.000  H
  H166     1.0000 0.29140  0.10890  0.04410  Biso   1.000  H
  H167     1.0000 0.20860  0.60890  0.45590  Biso   1.000  H
  H168     1.0000 0.79140  0.60890  0.04410  Biso   1.000  H
  C177     1.0000 0.25893  0.88200  0.51390  Biso   1.000  C
  C178     1.0000 0.74107  0.88200  0.98610  Biso   1.000  C
  C179     1.0000 0.75893  0.38200  0.51390  Biso   1.000  C
  C180     1.0000 0.24107  0.38200  0.98610  Biso   1.000  C
  C181     1.0000 0.74107  0.11800  0.48610  Biso   1.000  C
  C182     1.0000 0.25893  0.11800  0.01390  Biso   1.000  C
  C183     1.0000 0.24107  0.61800  0.48610  Biso   1.000  C
  C184     1.0000 0.75893  0.61800  0.01390  Biso   1.000  C
  H169     1.0000 0.25830  0.82270  0.51740  Biso   1.000  H
  H170     1.0000 0.74170  0.82270  0.98260  Biso   1.000  H
  H171     1.0000 0.75830  0.32270  0.51740  Biso   1.000  H
  H172     1.0000 0.24170  0.32270  0.98260  Biso   1.000  H
  H173     1.0000 0.74170  0.17730  0.48260  Biso   1.000  H
  H174     1.0000 0.25830  0.17730  0.01740  Biso   1.000  H
  H175     1.0000 0.24170  0.67730  0.48260  Biso   1.000  H
  H176     1.0000 0.75830  0.67730  0.01740  Biso   1.000  H
  C185     1.0000 0.24020  0.92600  0.49460  Biso   1.000  C
  C186     1.0000 0.75980  0.92600  0.00540  Biso   1.000  C
  C187     1.0000 0.74020  0.42600  0.49460  Biso   1.000  C
  C188     1.0000 0.25980  0.42600  0.00540  Biso   1.000  C
  C189     1.0000 0.75980  0.07400  0.50540  Biso   1.000  C
  C190     1.0000 0.24020  0.07400  0.99460  Biso   1.000  C
  C191     1.0000 0.25980  0.57400  0.50540  Biso   1.000  C
  C192     1.0000 0.74020  0.57400  0.99460  Biso   1.000  C
  H177     1.0000 0.22700  0.89720  0.48660  Biso   1.000  H
  H178     1.0000 0.77300  0.89720  0.01340  Biso   1.000  H
  H179     1.0000 0.72700  0.39720  0.48660  Biso   1.000  H
  H180     1.0000 0.27300  0.39720  0.01340  Biso   1.000  H
  H181     1.0000 0.77300  0.10280  0.51340  Biso   1.000  H
  H182     1.0000 0.22700  0.10280  0.98660  Biso   1.000  H
  H183     1.0000 0.27300  0.60280  0.51340  Biso   1.000  H
  H184     1.0000 0.72700  0.60280  0.98660  Biso   1.000  H
  C193     1.0000 0.32245  0.01940  0.53530  Biso   1.000  C
  C194     1.0000 0.67755  0.01940  0.96470  Biso   1.000  C
  C195     1.0000 0.82245  0.51940  0.53530  Biso   1.000  C
  C196     1.0000 0.17755  0.51940  0.96470  Biso   1.000  C
  C197     1.0000 0.67755  0.98060  0.46470  Biso   1.000  C
  C198     1.0000 0.32245  0.98060  0.03530  Biso   1.000  C
  C199     1.0000 0.17755  0.48060  0.46470  Biso   1.000  C
  C200     1.0000 0.82245  0.48060  0.03530  Biso   1.000  C
  C201     1.0000 0.32372  0.96550  0.46580  Biso   1.000  C
  C202     1.0000 0.67628  0.96550  0.03420  Biso   1.000  C
  C203     1.0000 0.82372  0.46550  0.46580  Biso   1.000  C
  C204     1.0000 0.17628  0.46550  0.03420  Biso   1.000  C
  C205     1.0000 0.67628  0.03450  0.53420  Biso   1.000  C
  C206     1.0000 0.32372  0.03450  0.96580  Biso   1.000  C
  C207     1.0000 0.17628  0.53450  0.53420  Biso   1.000  C
  C208     1.0000 0.82372  0.53450  0.96580  Biso   1.000  C
  H185     1.0000 0.31380  0.91810  0.46650  Biso   1.000  H
  H186     1.0000 0.68620  0.91810  0.03350  Biso   1.000  H
  H187     1.0000 0.81380  0.41810  0.46650  Biso   1.000  H
  H188     1.0000 0.18620  0.41810  0.03350  Biso   1.000  H
  H189     1.0000 0.68620  0.08190  0.53350  Biso   1.000  H
  H190     1.0000 0.31380  0.08190  0.96650  Biso   1.000  H
  H191     1.0000 0.18620  0.58190  0.53350  Biso   1.000  H
  H192     1.0000 0.81380  0.58190  0.96650  Biso   1.000  H
  H193     1.0000 0.31980  0.99970  0.42220  Biso   1.000  H
  H194     1.0000 0.68020  0.99970  0.07780  Biso   1.000  H
  H195     1.0000 0.81980  0.49970  0.42220  Biso   1.000  H
  H196     1.0000 0.18020  0.49970  0.07780  Biso   1.000  H
  H197     1.0000 0.68020  0.00030  0.57780  Biso   1.000  H
  H198     1.0000 0.31980  0.00030  0.92220  Biso   1.000  H
  H199     1.0000 0.18020  0.50030  0.57780  Biso   1.000  H
  H200     1.0000 0.81980  0.50030  0.92220  Biso   1.000  H
  H201     1.0000 0.33830  0.94450  0.46480  Biso   1.000  H
  H202     1.0000 0.66170  0.94450  0.03520  Biso   1.000  H
  H203     1.0000 0.83830  0.44450  0.46480  Biso   1.000  H
  H204     1.0000 0.16170  0.44450  0.03520  Biso   1.000  H
  H205     1.0000 0.66170  0.05550  0.53520  Biso   1.000  H
  H206     1.0000 0.33830  0.05550  0.96480  Biso   1.000  H
  H207     1.0000 0.16170  0.55550  0.53520  Biso   1.000  H
  H208     1.0000 0.83830  0.55550  0.96480  Biso   1.000  H
  C209     1.0000 0.33840  0.09530  0.53350  Biso   1.000  C
  C210     1.0000 0.66160  0.09530  0.96650  Biso   1.000  C
  C211     1.0000 0.83840  0.59530  0.53350  Biso   1.000  C
  C212     1.0000 0.16160  0.59530  0.96650  Biso   1.000  C
  C213     1.0000 0.66160  0.90470  0.46650  Biso   1.000  C
  C214     1.0000 0.33840  0.90470  0.03350  Biso   1.000  C
  C215     1.0000 0.16160  0.40470  0.46650  Biso   1.000  C
  C216     1.0000 0.83840  0.40470  0.03350  Biso   1.000  C
  H209     1.0000 0.33520  0.12640  0.48770  Biso   1.000  H
  H210     1.0000 0.66480  0.12640  0.01230  Biso   1.000  H
  H211     1.0000 0.83520  0.62640  0.48770  Biso   1.000  H
  H212     1.0000 0.16480  0.62640  0.01230  Biso   1.000  H
  H213     1.0000 0.66480  0.87360  0.51230  Biso   1.000  H
  H214     1.0000 0.33520  0.87360  0.98770  Biso   1.000  H
  H215     1.0000 0.16480  0.37360  0.51230  Biso   1.000  H
  H216     1.0000 0.83520  0.37360  0.98770  Biso   1.000  H
  H217     1.0000 0.33680  0.13240  0.57510  Biso   1.000  H
  H218     1.0000 0.66320  0.13240  0.92490  Biso   1.000  H
  H219     1.0000 0.83680  0.63240  0.57510  Biso   1.000  H
  H220     1.0000 0.16320  0.63240  0.92490  Biso   1.000  H
  H221     1.0000 0.66320  0.86760  0.42490  Biso   1.000  H
  H222     1.0000 0.33680  0.86760  0.07510  Biso   1.000  H
  H223     1.0000 0.16320  0.36760  0.42490  Biso   1.000  H
  H224     1.0000 0.83680  0.36760  0.07510  Biso   1.000  H
  H225     1.0000 0.35310  0.07420  0.53660  Biso   1.000  H
  H226     1.0000 0.64690  0.07420  0.96340  Biso   1.000  H
  H227     1.0000 0.85310  0.57420  0.53660  Biso   1.000  H
  H228     1.0000 0.14690  0.57420  0.96340  Biso   1.000  H
  H229     1.0000 0.64690  0.92580  0.46340  Biso   1.000  H
  H230     1.0000 0.35310  0.92580  0.03660  Biso   1.000  H
  H231     1.0000 0.14690  0.42580  0.46340  Biso   1.000  H
  H232     1.0000 0.85310  0.42580  0.03660  Biso   1.000  H
  C217     1.0000 0.32788  0.96980  0.60830  Biso   1.000  C
  C218     1.0000 0.67212  0.96980  0.89170  Biso   1.000  C
  C219     1.0000 0.82788  0.46980  0.60830  Biso   1.000  C
  C220     1.0000 0.17212  0.46980  0.89170  Biso   1.000  C
  C221     1.0000 0.67212  0.03020  0.39170  Biso   1.000  C
  C222     1.0000 0.32788  0.03020  0.10830  Biso   1.000  C
  C223     1.0000 0.17212  0.53020  0.39170  Biso   1.000  C
  C224     1.0000 0.82788  0.53020  0.10830  Biso   1.000  C
  H233     1.0000 0.31790  0.92290  0.61020  Biso   1.000  H
  H234     1.0000 0.68210  0.92290  0.88980  Biso   1.000  H
  H235     1.0000 0.81790  0.42290  0.61020  Biso   1.000  H
  H236     1.0000 0.18210  0.42290  0.88980  Biso   1.000  H
  H237     1.0000 0.68210  0.07710  0.38980  Biso   1.000  H
  H238     1.0000 0.31790  0.07710  0.11020  Biso   1.000  H
  H239     1.0000 0.18210  0.57710  0.38980  Biso   1.000  H
  H240     1.0000 0.81790  0.57710  0.11020  Biso   1.000  H
  H241     1.0000 0.34250  0.94830  0.61040  Biso   1.000  H
  H242     1.0000 0.65750  0.94830  0.88960  Biso   1.000  H
  H243     1.0000 0.84250  0.44830  0.61040  Biso   1.000  H
  H244     1.0000 0.15750  0.44830  0.88960  Biso   1.000  H
  H245     1.0000 0.65750  0.05170  0.38960  Biso   1.000  H
  H246     1.0000 0.34250  0.05170  0.11040  Biso   1.000  H
  H247     1.0000 0.15750  0.55170  0.38960  Biso   1.000  H
  H248     1.0000 0.84250  0.55170  0.11040  Biso   1.000  H
  H249     1.0000 0.32660  0.00720  0.65000  Biso   1.000  H
  H250     1.0000 0.67340  0.00720  0.85000  Biso   1.000  H
  H251     1.0000 0.82660  0.50720  0.65000  Biso   1.000  H
  H252     1.0000 0.17340  0.50720  0.85000  Biso   1.000  H
  H253     1.0000 0.67340  0.99280  0.35000  Biso   1.000  H
  H254     1.0000 0.32660  0.99280  0.15000  Biso   1.000  H
  H255     1.0000 0.17340  0.49280  0.35000  Biso   1.000  H
  H256     1.0000 0.82660  0.49280  0.15000  Biso   1.000  H
  C225     1.0000 0.18015  0.99740  0.75650  Biso   1.000  C
  C226     1.0000 0.81985  0.99740  0.74350  Biso   1.000  C
  C227     1.0000 0.68015  0.49740  0.75650  Biso   1.000  C
  C228     1.0000 0.31985  0.49740  0.74350  Biso   1.000  C
  C229     1.0000 0.81985  0.00260  0.24350  Biso   1.000  C
  C230     1.0000 0.18015  0.00260  0.25650  Biso   1.000  C
  C231     1.0000 0.31985  0.50260  0.24350  Biso   1.000  C
  C232     1.0000 0.68015  0.50260  0.25650  Biso   1.000  C
  C233     1.0000 0.17059  0.04710  0.68900  Biso   1.000  C
  C234     1.0000 0.82941  0.04710  0.81100  Biso   1.000  C
  C235     1.0000 0.67059  0.54710  0.68900  Biso   1.000  C
  C236     1.0000 0.32941  0.54710  0.81100  Biso   1.000  C
  C237     1.0000 0.82941  0.95290  0.31100  Biso   1.000  C
  C238     1.0000 0.17059  0.95290  0.18900  Biso   1.000  C
  C239     1.0000 0.32941  0.45290  0.31100  Biso   1.000  C
  C240     1.0000 0.67059  0.45290  0.18900  Biso   1.000  C
  C241     1.0000 0.16122  0.12650  0.70210  Biso   1.000  C
  C242     1.0000 0.83878  0.12650  0.79790  Biso   1.000  C
  C243     1.0000 0.66122  0.62650  0.70210  Biso   1.000  C
  C244     1.0000 0.33878  0.62650  0.79790  Biso   1.000  C
  C245     1.0000 0.83878  0.87350  0.29790  Biso   1.000  C
  C246     1.0000 0.16122  0.87350  0.20210  Biso   1.000  C
  C247     1.0000 0.33878  0.37350  0.29790  Biso   1.000  C
  C248     1.0000 0.66122  0.37350  0.20210  Biso   1.000  C
  H257     1.0000 0.16010  0.14270  0.75130  Biso   1.000  H
  H258     1.0000 0.83990  0.14270  0.74870  Biso   1.000  H
  H259     1.0000 0.66010  0.64270  0.75130  Biso   1.000  H
  H260     1.0000 0.33990  0.64270  0.74870  Biso   1.000  H
  H261     1.0000 0.83990  0.85730  0.24870  Biso   1.000  H
  H262     1.0000 0.16010  0.85730  0.25130  Biso   1.000  H
  H263     1.0000 0.33990  0.35730  0.24870  Biso   1.000  H
  H264     1.0000 0.66010  0.35730  0.25130  Biso   1.000  H
  C249     1.0000 0.15365  0.18140  0.64620  Biso   1.000  C
  C250     1.0000 0.84635  0.18140  0.85380  Biso   1.000  C
  C251     1.0000 0.65365  0.68140  0.64620  Biso   1.000  C
  C252     1.0000 0.34635  0.68140  0.85380  Biso   1.000  C
  C253     1.0000 0.84635  0.81860  0.35380  Biso   1.000  C
  C254     1.0000 0.15365  0.81860  0.14620  Biso   1.000  C
  C255     1.0000 0.34635  0.31860  0.35380  Biso   1.000  C
  C256     1.0000 0.65365  0.31860  0.14620  Biso   1.000  C
  C257     1.0000 0.14650  0.26830  0.67040  Biso   1.000  C
  C258     1.0000 0.85350  0.26830  0.82960  Biso   1.000  C
  C259     1.0000 0.64650  0.76830  0.67040  Biso   1.000  C
  C260     1.0000 0.35350  0.76830  0.82960  Biso   1.000  C
  C261     1.0000 0.85350  0.73170  0.32960  Biso   1.000  C
  C262     1.0000 0.14650  0.73170  0.17040  Biso   1.000  C
  C263     1.0000 0.35350  0.23170  0.32960  Biso   1.000  C
  C264     1.0000 0.64650  0.23170  0.17040  Biso   1.000  C
  C265     1.0000 0.15703  0.79200  0.45740  Biso   1.000  C
  C266     1.0000 0.84297  0.79200  0.04260  Biso   1.000  C
  C267     1.0000 0.65703  0.29200  0.45740  Biso   1.000  C
  C268     1.0000 0.34297  0.29200  0.04260  Biso   1.000  C
  C269     1.0000 0.84297  0.20800  0.54260  Biso   1.000  C
  C270     1.0000 0.15703  0.20800  0.95740  Biso   1.000  C
  C271     1.0000 0.34297  0.70800  0.54260  Biso   1.000  C
  C272     1.0000 0.65703  0.70800  0.95740  Biso   1.000  C
  C273     1.0000 0.14930  0.87120  0.49270  Biso   1.000  C
  C274     1.0000 0.85070  0.87120  0.00730  Biso   1.000  C
  C275     1.0000 0.64930  0.37120  0.49270  Biso   1.000  C
  C276     1.0000 0.35070  0.37120  0.00730  Biso   1.000  C
  C277     1.0000 0.85070  0.12880  0.50730  Biso   1.000  C
  C278     1.0000 0.14930  0.12880  0.99270  Biso   1.000  C
  C279     1.0000 0.35070  0.62880  0.50730  Biso   1.000  C
  C280     1.0000 0.64930  0.62880  0.99270  Biso   1.000  C
  C281     1.0000 0.13086  0.86870  0.53230  Biso   1.000  C
  C282     1.0000 0.86914  0.86870  0.96770  Biso   1.000  C
  C283     1.0000 0.63086  0.36870  0.53230  Biso   1.000  C
  C284     1.0000 0.36914  0.36870  0.96770  Biso   1.000  C
  C285     1.0000 0.86914  0.13130  0.46770  Biso   1.000  C
  C286     1.0000 0.13086  0.13130  0.03230  Biso   1.000  C
  C287     1.0000 0.36914  0.63130  0.46770  Biso   1.000  C
  C288     1.0000 0.63086  0.63130  0.03230  Biso   1.000  C
  H265     1.0000 0.12440  0.81590  0.53900  Biso   1.000  H
  H266     1.0000 0.87560  0.81590  0.96100  Biso   1.000  H
  H267     1.0000 0.62440  0.31590  0.53900  Biso   1.000  H
  H268     1.0000 0.37560  0.31590  0.96100  Biso   1.000  H
  H269     1.0000 0.87560  0.18410  0.46100  Biso   1.000  H
  H270     1.0000 0.12440  0.18410  0.03900  Biso   1.000  H
  H271     1.0000 0.37560  0.68410  0.46100  Biso   1.000  H
  H272     1.0000 0.62440  0.68410  0.03900  Biso   1.000  H
  C289     1.0000 0.12189  0.93890  0.56130  Biso   1.000  C
  C290     1.0000 0.87811  0.93890  0.93870  Biso   1.000  C
  C291     1.0000 0.62189  0.43890  0.56130  Biso   1.000  C
  C292     1.0000 0.37811  0.43890  0.93870  Biso   1.000  C
  C293     1.0000 0.87811  0.06110  0.43870  Biso   1.000  C
  C294     1.0000 0.12189  0.06110  0.06130  Biso   1.000  C
  C295     1.0000 0.37811  0.56110  0.43870  Biso   1.000  C
  C296     1.0000 0.62189  0.56110  0.06130  Biso   1.000  C
  C297     1.0000 0.10170  0.93170  0.60350  Biso   1.000  C
  C298     1.0000 0.89830  0.93170  0.89650  Biso   1.000  C
  C299     1.0000 0.60170  0.43170  0.60350  Biso   1.000  C
  C300     1.0000 0.39830  0.43170  0.89650  Biso   1.000  C
  C301     1.0000 0.89830  0.06830  0.39650  Biso   1.000  C
  C302     1.0000 0.10170  0.06830  0.10350  Biso   1.000  C
  C303     1.0000 0.39830  0.56830  0.39650  Biso   1.000  C
  C304     1.0000 0.60170  0.56830  0.10350  Biso   1.000  C
  C305     1.0000 0.28257  0.28830  0.84870  Biso   1.000  C
  C306     1.0000 0.71743  0.28830  0.65130  Biso   1.000  C
  C307     1.0000 0.78257  0.78830  0.84870  Biso   1.000  C
  C308     1.0000 0.21743  0.78830  0.65130  Biso   1.000  C
  C309     1.0000 0.71743  0.71170  0.15130  Biso   1.000  C
  C310     1.0000 0.28257  0.71170  0.34870  Biso   1.000  C
  C311     1.0000 0.21743  0.21170  0.15130  Biso   1.000  C
  C312     1.0000 0.78257  0.21170  0.34870  Biso   1.000  C
  C313     1.0000 0.29561  0.25380  0.78940  Biso   1.000  C
  C314     1.0000 0.70439  0.25380  0.71060  Biso   1.000  C
  C315     1.0000 0.79561  0.75380  0.78940  Biso   1.000  C
  C316     1.0000 0.20439  0.75380  0.71060  Biso   1.000  C
  C317     1.0000 0.70439  0.74620  0.21060  Biso   1.000  C
  C318     1.0000 0.29561  0.74620  0.28940  Biso   1.000  C
  C319     1.0000 0.20439  0.24620  0.21060  Biso   1.000  C
  C320     1.0000 0.79561  0.24620  0.28940  Biso   1.000  C
  C321     1.0000 0.31632  0.22430  0.81010  Biso   1.000  C
  C322     1.0000 0.68368  0.22430  0.68990  Biso   1.000  C
  C323     1.0000 0.81632  0.72430  0.81010  Biso   1.000  C
  C324     1.0000 0.18368  0.72430  0.68990  Biso   1.000  C
  C325     1.0000 0.68368  0.77570  0.18990  Biso   1.000  C
  C326     1.0000 0.31632  0.77570  0.31010  Biso   1.000  C
  C327     1.0000 0.18368  0.27570  0.18990  Biso   1.000  C
  C328     1.0000 0.81632  0.27570  0.31010  Biso   1.000  C
  H273     1.0000 0.32120  0.22320  0.86080  Biso   1.000  H
  H274     1.0000 0.67880  0.22320  0.63920  Biso   1.000  H
  H275     1.0000 0.82120  0.72320  0.86080  Biso   1.000  H
  H276     1.0000 0.17880  0.72320  0.63920  Biso   1.000  H
  H277     1.0000 0.67880  0.77680  0.13920  Biso   1.000  H
  H278     1.0000 0.32120  0.77680  0.36080  Biso   1.000  H
  H279     1.0000 0.17880  0.27680  0.13920  Biso   1.000  H
  H280     1.0000 0.82120  0.27680  0.36080  Biso   1.000  H
  C329     1.0000 0.33058  0.19580  0.75980  Biso   1.000  C
  C330     1.0000 0.66942  0.19580  0.74020  Biso   1.000  C
  C331     1.0000 0.83058  0.69580  0.75980  Biso   1.000  C
  C332     1.0000 0.16942  0.69580  0.74020  Biso   1.000  C
  C333     1.0000 0.66942  0.80420  0.24020  Biso   1.000  C
  C334     1.0000 0.33058  0.80420  0.25980  Biso   1.000  C
  C335     1.0000 0.16942  0.30420  0.24020  Biso   1.000  C
  C336     1.0000 0.83058  0.30420  0.25980  Biso   1.000  C
  C337     1.0000 0.35301  0.16830  0.79020  Biso   1.000  C
  C338     1.0000 0.64699  0.16830  0.70980  Biso   1.000  C
  C339     1.0000 0.85301  0.66830  0.79020  Biso   1.000  C
  C340     1.0000 0.14699  0.66830  0.70980  Biso   1.000  C
  C341     1.0000 0.64699  0.83170  0.20980  Biso   1.000  C
  C342     1.0000 0.35301  0.83170  0.29020  Biso   1.000  C
  C343     1.0000 0.14699  0.33170  0.20980  Biso   1.000  C
  C344     1.0000 0.85301  0.33170  0.29020  Biso   1.000  C
  C345     1.0000 0.22168  0.21320  0.66040  Biso   1.000  C
  C346     1.0000 0.77832  0.21320  0.83960  Biso   1.000  C
  C347     1.0000 0.72168  0.71320  0.66040  Biso   1.000  C
  C348     1.0000 0.27832  0.71320  0.83960  Biso   1.000  C
  C349     1.0000 0.77832  0.78680  0.33960  Biso   1.000  C
  C350     1.0000 0.22168  0.78680  0.16040  Biso   1.000  C
  C351     1.0000 0.27832  0.28680  0.33960  Biso   1.000  C
  C352     1.0000 0.72168  0.28680  0.16040  Biso   1.000  C
  C353     1.0000 0.24369  0.17300  0.65560  Biso   1.000  C
  C354     1.0000 0.75631  0.17300  0.84440  Biso   1.000  C
  C355     1.0000 0.74369  0.67300  0.65560  Biso   1.000  C
  C356     1.0000 0.25631  0.67300  0.84440  Biso   1.000  C
  C357     1.0000 0.75631  0.82700  0.34440  Biso   1.000  C
  C358     1.0000 0.24369  0.82700  0.15560  Biso   1.000  C
  C359     1.0000 0.25631  0.32700  0.34440  Biso   1.000  C
  C360     1.0000 0.74369  0.32700  0.15560  Biso   1.000  C
  C361     1.0000 0.24949  0.10260  0.70330  Biso   1.000  C
  C362     1.0000 0.75051  0.10260  0.79670  Biso   1.000  C
  C363     1.0000 0.74949  0.60260  0.70330  Biso   1.000  C
  C364     1.0000 0.25051  0.60260  0.79670  Biso   1.000  C
  C365     1.0000 0.75051  0.89740  0.29670  Biso   1.000  C
  C366     1.0000 0.24949  0.89740  0.20330  Biso   1.000  C
  C367     1.0000 0.25051  0.39740  0.29670  Biso   1.000  C
  C368     1.0000 0.74949  0.39740  0.20330  Biso   1.000  C
  H281     1.0000 0.23900  0.08130  0.73220  Biso   1.000  H
  H282     1.0000 0.76100  0.08130  0.76780  Biso   1.000  H
  H283     1.0000 0.73900  0.58130  0.73220  Biso   1.000  H
  H284     1.0000 0.26100  0.58130  0.76780  Biso   1.000  H
  H285     1.0000 0.76100  0.91870  0.26780  Biso   1.000  H
  H286     1.0000 0.23900  0.91870  0.23220  Biso   1.000  H
  H287     1.0000 0.26100  0.41870  0.26780  Biso   1.000  H
  H288     1.0000 0.73900  0.41870  0.23220  Biso   1.000  H
  C369     1.0000 0.26978  0.06360  0.70940  Biso   1.000  C
  C370     1.0000 0.73022  0.06360  0.79060  Biso   1.000  C
  C371     1.0000 0.76978  0.56360  0.70940  Biso   1.000  C
  C372     1.0000 0.23022  0.56360  0.79060  Biso   1.000  C
  C373     1.0000 0.73022  0.93640  0.29060  Biso   1.000  C
  C374     1.0000 0.26978  0.93640  0.20940  Biso   1.000  C
  C375     1.0000 0.23022  0.43640  0.29060  Biso   1.000  C
  C376     1.0000 0.76978  0.43640  0.20940  Biso   1.000  C
  C377     1.0000 0.27342  0.98620  0.75920  Biso   1.000  C
  C378     1.0000 0.72658  0.98620  0.74080  Biso   1.000  C
  C379     1.0000 0.77342  0.48620  0.75920  Biso   1.000  C
  C380     1.0000 0.22658  0.48620  0.74080  Biso   1.000  C
  C381     1.0000 0.72658  0.01380  0.24080  Biso   1.000  C
  C382     1.0000 0.27342  0.01380  0.25920  Biso   1.000  C
  C383     1.0000 0.22658  0.51380  0.24080  Biso   1.000  C
  C384     1.0000 0.77342  0.51380  0.25920  Biso   1.000  C
  C385     1.0000 0.02172  0.23550  0.40420  Biso   1.000  C
  C386     1.0000 0.97828  0.23550  0.09580  Biso   1.000  C
  C387     1.0000 0.52172  0.73550  0.40420  Biso   1.000  C
  C388     1.0000 0.47828  0.73550  0.09580  Biso   1.000  C
  C389     1.0000 0.97828  0.76450  0.59580  Biso   1.000  C
  C390     1.0000 0.02172  0.76450  0.90420  Biso   1.000  C
  C391     1.0000 0.47828  0.26450  0.59580  Biso   1.000  C
  C392     1.0000 0.52172  0.26450  0.90420  Biso   1.000  C
  C393     1.0000 0.00753  0.15670  0.41460  Biso   1.000  C
  C394     1.0000 0.99247  0.15670  0.08540  Biso   1.000  C
  C395     1.0000 0.50753  0.65670  0.41460  Biso   1.000  C
  C396     1.0000 0.49247  0.65670  0.08540  Biso   1.000  C
  C397     1.0000 0.99247  0.84330  0.58540  Biso   1.000  C
  C398     1.0000 0.00753  0.84330  0.91460  Biso   1.000  C
  C399     1.0000 0.49247  0.34330  0.58540  Biso   1.000  C
  C400     1.0000 0.50753  0.34330  0.91460  Biso   1.000  C
  C401     1.0000 0.99021  0.14160  0.36080  Biso   1.000  C
  C402     1.0000 0.00979  0.14160  0.13920  Biso   1.000  C
  C403     1.0000 0.49021  0.64160  0.36080  Biso   1.000  C
  C404     1.0000 0.50979  0.64160  0.13920  Biso   1.000  C
  C405     1.0000 0.00979  0.85840  0.63920  Biso   1.000  C
  C406     1.0000 0.99021  0.85840  0.86080  Biso   1.000  C
  C407     1.0000 0.50979  0.35840  0.63920  Biso   1.000  C
  C408     1.0000 0.49021  0.35840  0.86080  Biso   1.000  C
  H289     1.0000 0.98810  0.17900  0.32050  Biso   1.000  H
  H290     1.0000 0.01190  0.17900  0.17950  Biso   1.000  H
  H291     1.0000 0.48810  0.67900  0.32050  Biso   1.000  H
  H292     1.0000 0.51190  0.67900  0.17950  Biso   1.000  H
  H293     1.0000 0.01190  0.82100  0.67950  Biso   1.000  H
  H294     1.0000 0.98810  0.82100  0.82050  Biso   1.000  H
  H295     1.0000 0.51190  0.32100  0.67950  Biso   1.000  H
  H296     1.0000 0.48810  0.32100  0.82050  Biso   1.000  H
  C409     1.0000 0.97579  0.07330  0.36380  Biso   1.000  C
  C410     1.0000 0.02421  0.07330  0.13620  Biso   1.000  C
  C411     1.0000 0.47579  0.57330  0.36380  Biso   1.000  C
  C412     1.0000 0.52421  0.57330  0.13620  Biso   1.000  C
  C413     1.0000 0.02421  0.92670  0.63620  Biso   1.000  C
  C414     1.0000 0.97579  0.92670  0.86380  Biso   1.000  C
  C415     1.0000 0.52421  0.42670  0.63620  Biso   1.000  C
  C416     1.0000 0.47579  0.42670  0.86380  Biso   1.000  C
  C417     1.0000 0.95830  0.06450  0.29900  Biso   1.000  C
  C418     1.0000 0.04170  0.06450  0.20100  Biso   1.000  C
  C419     1.0000 0.45830  0.56450  0.29900  Biso   1.000  C
  C420     1.0000 0.54170  0.56450  0.20100  Biso   1.000  C
  C421     1.0000 0.04170  0.93550  0.70100  Biso   1.000  C
  C422     1.0000 0.95830  0.93550  0.79900  Biso   1.000  C
  C423     1.0000 0.54170  0.43550  0.70100  Biso   1.000  C
  C424     1.0000 0.45830  0.43550  0.79900  Biso   1.000  C
  C425     1.0000 0.05403  0.70550  0.13060  Biso   1.000  C
  C426     1.0000 0.94597  0.70550  0.36940  Biso   1.000  C
  C427     1.0000 0.55403  0.20550  0.13060  Biso   1.000  C
  C428     1.0000 0.44597  0.20550  0.36940  Biso   1.000  C
  C429     1.0000 0.94597  0.29450  0.86940  Biso   1.000  C
  C430     1.0000 0.05403  0.29450  0.63060  Biso   1.000  C
  C431     1.0000 0.44597  0.79450  0.86940  Biso   1.000  C
  C432     1.0000 0.55403  0.79450  0.63060  Biso   1.000  C
  C433     1.0000 0.03072  0.68720  0.15290  Biso   1.000  C
  C434     1.0000 0.96928  0.68720  0.34710  Biso   1.000  C
  C435     1.0000 0.53072  0.18720  0.15290  Biso   1.000  C
  C436     1.0000 0.46928  0.18720  0.34710  Biso   1.000  C
  C437     1.0000 0.96928  0.31280  0.84710  Biso   1.000  C
  C438     1.0000 0.03072  0.31280  0.65290  Biso   1.000  C
  C439     1.0000 0.46928  0.81280  0.84710  Biso   1.000  C
  C440     1.0000 0.53072  0.81280  0.65290  Biso   1.000  C
  C441     1.0000 0.01960  0.61610  0.12990  Biso   1.000  C
  C442     1.0000 0.98040  0.61610  0.37010  Biso   1.000  C
  C443     1.0000 0.51960  0.11610  0.12990  Biso   1.000  C
  C444     1.0000 0.48040  0.11610  0.37010  Biso   1.000  C
  C445     1.0000 0.98040  0.38390  0.87010  Biso   1.000  C
  C446     1.0000 0.01960  0.38390  0.62990  Biso   1.000  C
  C447     1.0000 0.48040  0.88390  0.87010  Biso   1.000  C
  C448     1.0000 0.51960  0.88390  0.62990  Biso   1.000  C
  H297     1.0000 0.02630  0.57670  0.10090  Biso   1.000  H
  H298     1.0000 0.97370  0.57670  0.39910  Biso   1.000  H
  H299     1.0000 0.52630  0.07670  0.10090  Biso   1.000  H
  H300     1.0000 0.47370  0.07670  0.39910  Biso   1.000  H
  H301     1.0000 0.97370  0.42330  0.89910  Biso   1.000  H
  H302     1.0000 0.02630  0.42330  0.60090  Biso   1.000  H
  H303     1.0000 0.47370  0.92330  0.89910  Biso   1.000  H
  H304     1.0000 0.52630  0.92330  0.60090  Biso   1.000  H
  C449     1.0000 0.99890  0.59940  0.14720  Biso   1.000  C
  C450     1.0000 0.00110  0.59940  0.35280  Biso   1.000  C
  C451     1.0000 0.49890  0.09940  0.14720  Biso   1.000  C
  C452     1.0000 0.50110  0.09940  0.35280  Biso   1.000  C
  C453     1.0000 0.00110  0.40060  0.85280  Biso   1.000  C
  C454     1.0000 0.99890  0.40060  0.64720  Biso   1.000  C
  C455     1.0000 0.50110  0.90060  0.85280  Biso   1.000  C
  C456     1.0000 0.49890  0.90060  0.64720  Biso   1.000  C
  C457     1.0000 0.98560  0.50320  0.10900  Biso   1.000  C
  C458     1.0000 0.01440  0.50320  0.39100  Biso   1.000  C
  C459     1.0000 0.48560  0.00320  0.10900  Biso   1.000  C
  C460     1.0000 0.51440  0.00320  0.39100  Biso   1.000  C
  C461     1.0000 0.01440  0.49680  0.89100  Biso   1.000  C
  C462     1.0000 0.98560  0.49680  0.60900  Biso   1.000  C
  C463     1.0000 0.51440  0.99680  0.89100  Biso   1.000  C
  C464     1.0000 0.48560  0.99680  0.60900  Biso   1.000  C
  F1       1.0000 0.20240  0.98930  0.75950  Biso   1.000  F
  F2       1.0000 0.79760  0.98930  0.74050  Biso   1.000  F
  F3       1.0000 0.70240  0.48930  0.75950  Biso   1.000  F
  F4       1.0000 0.29760  0.48930  0.74050  Biso   1.000  F
  F5       1.0000 0.79760  0.01070  0.24050  Biso   1.000  F
  F6       1.0000 0.20240  0.01070  0.25950  Biso   1.000  F
  F7       1.0000 0.29760  0.51070  0.24050  Biso   1.000  F
  F8       1.0000 0.70240  0.51070  0.25950  Biso   1.000  F
  F9       1.0000 0.17420  0.01780  0.81840  Biso   1.000  F
  F10      1.0000 0.82580  0.01780  0.68160  Biso   1.000  F
  F11      1.0000 0.67420  0.51780  0.81840  Biso   1.000  F
  F12      1.0000 0.32580  0.51780  0.68160  Biso   1.000  F
  F13      1.0000 0.82580  0.98220  0.18160  Biso   1.000  F
  F14      1.0000 0.17420  0.98220  0.31840  Biso   1.000  F
  F15      1.0000 0.32580  0.48220  0.18160  Biso   1.000  F
  F16      1.0000 0.67420  0.48220  0.31840  Biso   1.000  F
  F17      1.0000 0.16940  0.91360  0.74410  Biso   1.000  F
  F18      1.0000 0.83060  0.91360  0.75590  Biso   1.000  F
  F19      1.0000 0.66940  0.41360  0.74410  Biso   1.000  F
  F20      1.0000 0.33060  0.41360  0.75590  Biso   1.000  F
  F21      1.0000 0.83060  0.08640  0.25590  Biso   1.000  F
  F22      1.0000 0.16940  0.08640  0.24410  Biso   1.000  F
  F23      1.0000 0.33060  0.58640  0.25590  Biso   1.000  F
  F24      1.0000 0.66940  0.58640  0.24410  Biso   1.000  F
  F25      1.0000 0.13946  0.27410  0.73490  Biso   1.000  F
  F26      1.0000 0.86054  0.27410  0.76510  Biso   1.000  F
  F27      1.0000 0.63946  0.77410  0.73490  Biso   1.000  F
  F28      1.0000 0.36054  0.77410  0.76510  Biso   1.000  F
  F29      1.0000 0.86054  0.72590  0.26510  Biso   1.000  F
  F30      1.0000 0.13946  0.72590  0.23490  Biso   1.000  F
  F31      1.0000 0.36054  0.22590  0.26510  Biso   1.000  F
  F32      1.0000 0.63946  0.22590  0.23490  Biso   1.000  F
  F33      1.0000 0.13250  0.30610  0.61790  Biso   1.000  F
  F34      1.0000 0.86750  0.30610  0.88210  Biso   1.000  F
  F35      1.0000 0.63250  0.80610  0.61790  Biso   1.000  F
  F36      1.0000 0.36750  0.80610  0.88210  Biso   1.000  F
  F37      1.0000 0.86750  0.69390  0.38210  Biso   1.000  F
  F38      1.0000 0.13250  0.69390  0.11790  Biso   1.000  F
  F39      1.0000 0.36750  0.19390  0.38210  Biso   1.000  F
  F40      1.0000 0.63250  0.19390  0.11790  Biso   1.000  F
  F41      1.0000 0.16390  0.32550  0.66360  Biso   1.000  F
  F42      1.0000 0.83610  0.32550  0.83640  Biso   1.000  F
  F43      1.0000 0.66390  0.82550  0.66360  Biso   1.000  F
  F44      1.0000 0.33610  0.82550  0.83640  Biso   1.000  F
  F45      1.0000 0.83610  0.67450  0.33640  Biso   1.000  F
  F46      1.0000 0.16390  0.67450  0.16360  Biso   1.000  F
  F47      1.0000 0.33610  0.17450  0.33640  Biso   1.000  F
  F48      1.0000 0.66390  0.17450  0.16360  Biso   1.000  F
  F49      1.0000 0.15980  0.80100  0.38800  Biso   1.000  F
  F50      1.0000 0.84020  0.80100  0.11200  Biso   1.000  F
  F51      1.0000 0.65980  0.30100  0.38800  Biso   1.000  F
  F52      1.0000 0.34020  0.30100  0.11200  Biso   1.000  F
  F53      1.0000 0.84020  0.19900  0.61200  Biso   1.000  F
  F54      1.0000 0.15980  0.19900  0.88800  Biso   1.000  F
  F55      1.0000 0.34020  0.69900  0.61200  Biso   1.000  F
  F56      1.0000 0.65980  0.69900  0.88800  Biso   1.000  F
  F57      1.0000 0.17300  0.75460  0.49540  Biso   1.000  F
  F58      1.0000 0.82700  0.75460  0.00460  Biso   1.000  F
  F59      1.0000 0.67300  0.25460  0.49540  Biso   1.000  F
  F60      1.0000 0.32700  0.25460  0.00460  Biso   1.000  F
  F61      1.0000 0.82700  0.24540  0.50460  Biso   1.000  F
  F62      1.0000 0.17300  0.24540  0.99540  Biso   1.000  F
  F63      1.0000 0.32700  0.74540  0.50460  Biso   1.000  F
  F64      1.0000 0.67300  0.74540  0.99540  Biso   1.000  F
  F65      1.0000 0.14180  0.72620  0.45650  Biso   1.000  F
  F66      1.0000 0.85820  0.72620  0.04350  Biso   1.000  F
  F67      1.0000 0.64180  0.22620  0.45650  Biso   1.000  F
  F68      1.0000 0.35820  0.22620  0.04350  Biso   1.000  F
  F69      1.0000 0.85820  0.27380  0.54350  Biso   1.000  F
  F70      1.0000 0.14180  0.27380  0.95650  Biso   1.000  F
  F71      1.0000 0.35820  0.77380  0.54350  Biso   1.000  F
  F72      1.0000 0.64180  0.77380  0.95650  Biso   1.000  F
  F73      1.0000 0.10660  0.92030  0.67160  Biso   1.000  F
  F74      1.0000 0.89340  0.92030  0.82840  Biso   1.000  F
  F75      1.0000 0.60660  0.42030  0.67160  Biso   1.000  F
  F76      1.0000 0.39340  0.42030  0.82840  Biso   1.000  F
  F77      1.0000 0.89340  0.07970  0.32840  Biso   1.000  F
  F78      1.0000 0.10660  0.07970  0.17160  Biso   1.000  F
  F79      1.0000 0.39340  0.57970  0.32840  Biso   1.000  F
  F80      1.0000 0.60660  0.57970  0.17160  Biso   1.000  F
  F81      1.0000 0.09070  0.85800  0.58190  Biso   1.000  F
  F82      1.0000 0.90930  0.85800  0.91810  Biso   1.000  F
  F83      1.0000 0.59070  0.35800  0.58190  Biso   1.000  F
  F84      1.0000 0.40930  0.35800  0.91810  Biso   1.000  F
  F85      1.0000 0.90930  0.14200  0.41810  Biso   1.000  F
  F86      1.0000 0.09070  0.14200  0.08190  Biso   1.000  F
  F87      1.0000 0.40930  0.64200  0.41810  Biso   1.000  F
  F88      1.0000 0.59070  0.64200  0.08190  Biso   1.000  F
  F89      1.0000 0.08670  0.99270  0.58320  Biso   1.000  F
  F90      1.0000 0.91330  0.99270  0.91680  Biso   1.000  F
  F91      1.0000 0.58670  0.49270  0.58320  Biso   1.000  F
  F92      1.0000 0.41330  0.49270  0.91680  Biso   1.000  F
  F93      1.0000 0.91330  0.00730  0.41680  Biso   1.000  F
  F94      1.0000 0.08670  0.00730  0.08320  Biso   1.000  F
  F95      1.0000 0.41330  0.50730  0.41680  Biso   1.000  F
  F96      1.0000 0.58670  0.50730  0.08320  Biso   1.000  F
  F97      1.0000 0.26195  0.25700  0.84340  Biso   1.000  F
  F98      1.0000 0.73805  0.25700  0.65660  Biso   1.000  F
  F99      1.0000 0.76195  0.75700  0.84340  Biso   1.000  F
  F100     1.0000 0.23805  0.75700  0.65660  Biso   1.000  F
  F101     1.0000 0.73805  0.74300  0.15660  Biso   1.000  F
  F102     1.0000 0.26195  0.74300  0.34340  Biso   1.000  F
  F103     1.0000 0.23805  0.24300  0.15660  Biso   1.000  F
  F104     1.0000 0.76195  0.24300  0.34340  Biso   1.000  F
  F105     1.0000 0.28990  0.26860  0.91870  Biso   1.000  F
  F106     1.0000 0.71010  0.26860  0.58130  Biso   1.000  F
  F107     1.0000 0.78990  0.76860  0.91870  Biso   1.000  F
  F108     1.0000 0.21010  0.76860  0.58130  Biso   1.000  F
  F109     1.0000 0.71010  0.73140  0.08130  Biso   1.000  F
  F110     1.0000 0.28990  0.73140  0.41870  Biso   1.000  F
  F111     1.0000 0.21010  0.23140  0.08130  Biso   1.000  F
  F112     1.0000 0.78990  0.23140  0.41870  Biso   1.000  F
  F113     1.0000 0.27830  0.37330  0.84420  Biso   1.000  F
  F114     1.0000 0.72170  0.37330  0.65580  Biso   1.000  F
  F115     1.0000 0.77830  0.87330  0.84420  Biso   1.000  F
  F116     1.0000 0.22170  0.87330  0.65580  Biso   1.000  F
  F117     1.0000 0.72170  0.62670  0.15580  Biso   1.000  F
  F118     1.0000 0.27830  0.62670  0.34420  Biso   1.000  F
  F119     1.0000 0.22170  0.12670  0.15580  Biso   1.000  F
  F120     1.0000 0.77830  0.12670  0.34420  Biso   1.000  F
  F121     1.0000 0.35563  0.14190  0.85790  Biso   1.000  F
  F122     1.0000 0.64437  0.14190  0.64210  Biso   1.000  F
  F123     1.0000 0.85563  0.64190  0.85790  Biso   1.000  F
  F124     1.0000 0.14437  0.64190  0.64210  Biso   1.000  F
  F125     1.0000 0.64437  0.85810  0.14210  Biso   1.000  F
  F126     1.0000 0.35563  0.85810  0.35790  Biso   1.000  F
  F127     1.0000 0.14437  0.35810  0.14210  Biso   1.000  F
  F128     1.0000 0.85563  0.35810  0.35790  Biso   1.000  F
  F129     1.0000 0.36320  0.11960  0.74570  Biso   1.000  F
  F130     1.0000 0.63680  0.11960  0.75430  Biso   1.000  F
  F131     1.0000 0.86320  0.61960  0.74570  Biso   1.000  F
  F132     1.0000 0.13680  0.61960  0.75430  Biso   1.000  F
  F133     1.0000 0.63680  0.88040  0.25430  Biso   1.000  F
  F134     1.0000 0.36320  0.88040  0.24570  Biso   1.000  F
  F135     1.0000 0.13680  0.38040  0.25430  Biso   1.000  F
  F136     1.0000 0.86320  0.38040  0.24570  Biso   1.000  F
  F137     1.0000 0.36680  0.24150  0.78410  Biso   1.000  F
  F138     1.0000 0.63320  0.24150  0.71590  Biso   1.000  F
  F139     1.0000 0.86680  0.74150  0.78410  Biso   1.000  F
  F140     1.0000 0.13320  0.74150  0.71590  Biso   1.000  F
  F141     1.0000 0.63320  0.75850  0.21590  Biso   1.000  F
  F142     1.0000 0.36680  0.75850  0.28410  Biso   1.000  F
  F143     1.0000 0.13320  0.25850  0.21590  Biso   1.000  F
  F144     1.0000 0.86680  0.25850  0.28410  Biso   1.000  F
  F145     1.0000 0.25430  0.95140  0.77880  Biso   1.000  F
  F146     1.0000 0.74570  0.95140  0.72120  Biso   1.000  F
  F147     1.0000 0.75430  0.45140  0.77880  Biso   1.000  F
  F148     1.0000 0.24570  0.45140  0.72120  Biso   1.000  F
  F149     1.0000 0.74570  0.04860  0.22120  Biso   1.000  F
  F150     1.0000 0.25430  0.04860  0.27880  Biso   1.000  F
  F151     1.0000 0.24570  0.54860  0.22120  Biso   1.000  F
  F152     1.0000 0.75430  0.54860  0.27880  Biso   1.000  F
  F153     1.0000 0.28590  0.92960  0.73630  Biso   1.000  F
  F154     1.0000 0.71410  0.92960  0.76370  Biso   1.000  F
  F155     1.0000 0.78590  0.42960  0.73630  Biso   1.000  F
  F156     1.0000 0.21410  0.42960  0.76370  Biso   1.000  F
  F157     1.0000 0.71410  0.07040  0.26370  Biso   1.000  F
  F158     1.0000 0.28590  0.07040  0.23630  Biso   1.000  F
  F159     1.0000 0.21410  0.57040  0.26370  Biso   1.000  F
  F160     1.0000 0.78590  0.57040  0.23630  Biso   1.000  F
  F161     1.0000 0.28290  0.01420  0.82480  Biso   1.000  F
  F162     1.0000 0.71710  0.01420  0.67520  Biso   1.000  F
  F163     1.0000 0.78290  0.51420  0.82480  Biso   1.000  F
  F164     1.0000 0.21710  0.51420  0.67520  Biso   1.000  F
  F165     1.0000 0.71710  0.98580  0.17520  Biso   1.000  F
  F166     1.0000 0.28290  0.98580  0.32480  Biso   1.000  F
  F167     1.0000 0.21710  0.48580  0.17520  Biso   1.000  F
  F168     1.0000 0.78290  0.48580  0.32480  Biso   1.000  F
  F169     1.0000 0.20662  0.19260  0.60690  Biso   1.000  F
  F170     1.0000 0.79338  0.19260  0.89310  Biso   1.000  F
  F171     1.0000 0.70662  0.69260  0.60690  Biso   1.000  F
  F172     1.0000 0.29338  0.69260  0.89310  Biso   1.000  F
  F173     1.0000 0.79338  0.80740  0.39310  Biso   1.000  F
  F174     1.0000 0.20662  0.80740  0.10690  Biso   1.000  F
  F175     1.0000 0.29338  0.30740  0.39310  Biso   1.000  F
  F176     1.0000 0.70662  0.30740  0.10690  Biso   1.000  F
  F177     1.0000 0.22330  0.29900  0.65890  Biso   1.000  F
  F178     1.0000 0.77670  0.29900  0.84110  Biso   1.000  F
  F179     1.0000 0.72330  0.79900  0.65890  Biso   1.000  F
  F180     1.0000 0.27670  0.79900  0.84110  Biso   1.000  F
  F181     1.0000 0.77670  0.70100  0.34110  Biso   1.000  F
  F182     1.0000 0.22330  0.70100  0.15890  Biso   1.000  F
  F183     1.0000 0.27670  0.20100  0.34110  Biso   1.000  F
  F184     1.0000 0.72330  0.20100  0.15890  Biso   1.000  F
  F185     1.0000 0.21426  0.20150  0.72940  Biso   1.000  F
  F186     1.0000 0.78574  0.20150  0.77060  Biso   1.000  F
  F187     1.0000 0.71426  0.70150  0.72940  Biso   1.000  F
  F188     1.0000 0.28574  0.70150  0.77060  Biso   1.000  F
  F189     1.0000 0.78574  0.79850  0.27060  Biso   1.000  F
  F190     1.0000 0.21426  0.79850  0.22940  Biso   1.000  F
  F191     1.0000 0.28574  0.29850  0.27060  Biso   1.000  F
  F192     1.0000 0.71426  0.29850  0.22940  Biso   1.000  F
  F193     1.0000 0.01520  0.29930  0.44550  Biso   1.000  F
  F194     1.0000 0.98480  0.29930  0.05450  Biso   1.000  F
  F195     1.0000 0.51520  0.79930  0.44550  Biso   1.000  F
  F196     1.0000 0.48480  0.79930  0.05450  Biso   1.000  F
  F197     1.0000 0.98480  0.70070  0.55450  Biso   1.000  F
  F198     1.0000 0.01520  0.70070  0.94550  Biso   1.000  F
  F199     1.0000 0.48480  0.20070  0.55450  Biso   1.000  F
  F200     1.0000 0.51520  0.20070  0.94550  Biso   1.000  F
  F201     1.0000 0.02040  0.26240  0.33140  Biso   1.000  F
  F202     1.0000 0.97960  0.26240  0.16860  Biso   1.000  F
  F203     1.0000 0.52040  0.76240  0.33140  Biso   1.000  F
  F204     1.0000 0.47960  0.76240  0.16860  Biso   1.000  F
  F205     1.0000 0.97960  0.73760  0.66860  Biso   1.000  F
  F206     1.0000 0.02040  0.73760  0.83140  Biso   1.000  F
  F207     1.0000 0.47960  0.23760  0.66860  Biso   1.000  F
  F208     1.0000 0.52040  0.23760  0.83140  Biso   1.000  F
  F209     1.0000 0.04140  0.23080  0.43740  Biso   1.000  F
  F210     1.0000 0.95860  0.23080  0.06260  Biso   1.000  F
  F211     1.0000 0.54140  0.73080  0.43740  Biso   1.000  F
  F212     1.0000 0.45860  0.73080  0.06260  Biso   1.000  F
  F213     1.0000 0.95860  0.76920  0.56260  Biso   1.000  F
  F214     1.0000 0.04140  0.76920  0.93740  Biso   1.000  F
  F215     1.0000 0.45860  0.26920  0.56260  Biso   1.000  F
  F216     1.0000 0.54140  0.26920  0.93740  Biso   1.000  F
  F217     1.0000 0.96287  0.08850  0.23400  Biso   1.000  F
  F218     1.0000 0.03713  0.08850  0.26600  Biso   1.000  F
  F219     1.0000 0.46287  0.58850  0.23400  Biso   1.000  F
  F220     1.0000 0.53713  0.58850  0.26600  Biso   1.000  F
  F221     1.0000 0.03713  0.91150  0.76600  Biso   1.000  F
  F222     1.0000 0.96287  0.91150  0.73400  Biso   1.000  F
  F223     1.0000 0.53713  0.41150  0.76600  Biso   1.000  F
  F224     1.0000 0.46287  0.41150  0.73400  Biso   1.000  F
  F225     1.0000 0.94789  0.98190  0.30140  Biso   1.000  F
  F226     1.0000 0.05211  0.98190  0.19860  Biso   1.000  F
  F227     1.0000 0.44789  0.48190  0.30140  Biso   1.000  F
  F228     1.0000 0.55211  0.48190  0.19860  Biso   1.000  F
  F229     1.0000 0.05211  0.01810  0.69860  Biso   1.000  F
  F230     1.0000 0.94789  0.01810  0.80140  Biso   1.000  F
  F231     1.0000 0.55211  0.51810  0.69860  Biso   1.000  F
  F232     1.0000 0.44789  0.51810  0.80140  Biso   1.000  F
  F233     1.0000 0.94100  0.11560  0.30930  Biso   1.000  F
  F234     1.0000 0.05900  0.11560  0.19070  Biso   1.000  F
  F235     1.0000 0.44100  0.61560  0.30930  Biso   1.000  F
  F236     1.0000 0.55900  0.61560  0.19070  Biso   1.000  F
  F237     1.0000 0.05900  0.88440  0.69070  Biso   1.000  F
  F238     1.0000 0.94100  0.88440  0.80930  Biso   1.000  F
  F239     1.0000 0.55900  0.38440  0.69070  Biso   1.000  F
  F240     1.0000 0.44100  0.38440  0.80930  Biso   1.000  F
  F241     1.0000 0.05840  0.65620  0.07440  Biso   1.000  F
  F242     1.0000 0.94160  0.65620  0.42560  Biso   1.000  F
  F243     1.0000 0.55840  0.15620  0.07440  Biso   1.000  F
  F244     1.0000 0.44160  0.15620  0.42560  Biso   1.000  F
  F245     1.0000 0.94160  0.34380  0.92560  Biso   1.000  F
  F246     1.0000 0.05840  0.34380  0.57440  Biso   1.000  F
  F247     1.0000 0.44160  0.84380  0.92560  Biso   1.000  F
  F248     1.0000 0.55840  0.84380  0.57440  Biso   1.000  F
  F249     1.0000 0.05910  0.77520  0.11990  Biso   1.000  F
  F250     1.0000 0.94090  0.77520  0.38010  Biso   1.000  F
  F251     1.0000 0.55910  0.27520  0.11990  Biso   1.000  F
  F252     1.0000 0.44090  0.27520  0.38010  Biso   1.000  F
  F253     1.0000 0.94090  0.22480  0.88010  Biso   1.000  F
  F254     1.0000 0.05910  0.22480  0.61990  Biso   1.000  F
  F255     1.0000 0.44090  0.72480  0.88010  Biso   1.000  F
  F256     1.0000 0.55910  0.72480  0.61990  Biso   1.000  F
  F257     1.0000 0.06660  0.67900  0.19900  Biso   1.000  F
  F258     1.0000 0.93340  0.67900  0.30100  Biso   1.000  F
  F259     1.0000 0.56660  0.17900  0.19900  Biso   1.000  F
  F260     1.0000 0.43340  0.17900  0.30100  Biso   1.000  F
  F261     1.0000 0.93340  0.32100  0.80100  Biso   1.000  F
  F262     1.0000 0.06660  0.32100  0.69900  Biso   1.000  F
  F263     1.0000 0.43340  0.82100  0.80100  Biso   1.000  F
  F264     1.0000 0.56660  0.82100  0.69900  Biso   1.000  F
  F265     1.0000 0.00460  0.45280  0.11360  Biso   1.000  F
  F266     1.0000 0.99540  0.45280  0.38640  Biso   1.000  F
  F267     1.0000 0.50460  0.95280  0.11360  Biso   1.000  F
  F268     1.0000 0.49540  0.95280  0.38640  Biso   1.000  F
  F269     1.0000 0.99540  0.54720  0.88640  Biso   1.000  F
  F270     1.0000 0.00460  0.54720  0.61360  Biso   1.000  F
  F271     1.0000 0.49540  0.04720  0.88640  Biso   1.000  F
  F272     1.0000 0.50460  0.04720  0.61360  Biso   1.000  F
  F273     1.0000 0.97640  0.48130  0.16060  Biso   1.000  F
  F274     1.0000 0.02360  0.48130  0.33940  Biso   1.000  F
  F275     1.0000 0.47640  0.98130  0.16060  Biso   1.000  F
  F276     1.0000 0.52360  0.98130  0.33940  Biso   1.000  F
  F277     1.0000 0.02360  0.51870  0.83940  Biso   1.000  F
  F278     1.0000 0.97640  0.51870  0.66060  Biso   1.000  F
  F279     1.0000 0.52360  0.01870  0.83940  Biso   1.000  F
  F280     1.0000 0.47640  0.01870  0.66060  Biso   1.000  F
  F281     1.0000 0.97860  0.52760  0.04720  Biso   1.000  F
  F282     1.0000 0.02140  0.52760  0.45280  Biso   1.000  F
  F283     1.0000 0.47860  0.02760  0.04720  Biso   1.000  F
  F284     1.0000 0.52140  0.02760  0.45280  Biso   1.000  F
  F285     1.0000 0.02140  0.47240  0.95280  Biso   1.000  F
  F286     1.0000 0.97860  0.47240  0.54720  Biso   1.000  F
  F287     1.0000 0.52140  0.97240  0.95280  Biso   1.000  F
  F288     1.0000 0.47860  0.97240  0.54720  Biso   1.000  F
  F289     1.0000 0.80380  0.95260  0.75650  Biso   1.000  F
  F290     1.0000 0.19620  0.95260  0.74350  Biso   1.000  F
  F291     1.0000 0.30380  0.45260  0.75650  Biso   1.000  F
  F292     1.0000 0.69620  0.45260  0.74350  Biso   1.000  F
  F293     1.0000 0.19620  0.04740  0.24350  Biso   1.000  F
  F294     1.0000 0.80380  0.04740  0.25650  Biso   1.000  F
  F295     1.0000 0.69620  0.54740  0.24350  Biso   1.000  F
  F296     1.0000 0.30380  0.54740  0.25650  Biso   1.000  F
  F297     1.0000 0.91530  0.93990  0.93720  Biso   1.000  F
  F298     1.0000 0.08470  0.93990  0.56280  Biso   1.000  F
  F299     1.0000 0.41530  0.43990  0.93720  Biso   1.000  F
  F300     1.0000 0.58470  0.43990  0.56280  Biso   1.000  F
  F301     1.0000 0.08470  0.06010  0.06280  Biso   1.000  F
  F302     1.0000 0.91530  0.06010  0.43720  Biso   1.000  F
  F303     1.0000 0.58470  0.56010  0.06280  Biso   1.000  F
  F304     1.0000 0.41530  0.56010  0.43720  Biso   1.000  F
  F305     1.0000 0.89630  0.97470  0.83340  Biso   1.000  F
  F306     1.0000 0.10370  0.97470  0.66660  Biso   1.000  F
  F307     1.0000 0.39630  0.47470  0.83340  Biso   1.000  F
  F308     1.0000 0.60370  0.47470  0.66660  Biso   1.000  F
  F309     1.0000 0.10370  0.02530  0.16660  Biso   1.000  F
  F310     1.0000 0.89630  0.02530  0.33340  Biso   1.000  F
  F311     1.0000 0.60370  0.52530  0.16660  Biso   1.000  F
  F312     1.0000 0.39630  0.52530  0.33340  Biso   1.000  F
  F313     1.0000 0.90070  0.85010  0.87100  Biso   1.000  F
  F314     1.0000 0.09930  0.85010  0.62900  Biso   1.000  F
  F315     1.0000 0.40070  0.35010  0.87100  Biso   1.000  F
  F316     1.0000 0.59930  0.35010  0.62900  Biso   1.000  F
  F317     1.0000 0.09930  0.14990  0.12900  Biso   1.000  F
  F318     1.0000 0.90070  0.14990  0.37100  Biso   1.000  F
  F319     1.0000 0.59930  0.64990  0.12900  Biso   1.000  F
  F320     1.0000 0.40070  0.64990  0.37100  Biso   1.000  F
  F321     1.0000 0.70470  0.34380  0.60470  Biso   1.000  F
  F322     1.0000 0.29530  0.34380  0.89530  Biso   1.000  F
  F323     1.0000 0.20470  0.84380  0.60470  Biso   1.000  F
  F324     1.0000 0.79530  0.84380  0.89530  Biso   1.000  F
  F325     1.0000 0.29530  0.65620  0.39530  Biso   1.000  F
  F326     1.0000 0.70470  0.65620  0.10470  Biso   1.000  F
  F327     1.0000 0.79530  0.15620  0.39530  Biso   1.000  F
  F328     1.0000 0.20470  0.15620  0.10470  Biso   1.000  F
  F329     1.0000 0.73290  0.33910  0.67560  Biso   1.000  F
  F330     1.0000 0.26710  0.33910  0.82440  Biso   1.000  F
  F331     1.0000 0.23290  0.83910  0.67560  Biso   1.000  F
  F332     1.0000 0.76710  0.83910  0.82440  Biso   1.000  F
  F333     1.0000 0.26710  0.66090  0.32440  Biso   1.000  F
  F334     1.0000 0.73290  0.66090  0.17560  Biso   1.000  F
  F335     1.0000 0.76710  0.16090  0.32440  Biso   1.000  F
  F336     1.0000 0.23290  0.16090  0.17560  Biso   1.000  F
  F337     1.0000 0.71980  0.23040  0.60110  Biso   1.000  F
  F338     1.0000 0.28020  0.23040  0.89890  Biso   1.000  F
  F339     1.0000 0.21980  0.73040  0.60110  Biso   1.000  F
  F340     1.0000 0.78020  0.73040  0.89890  Biso   1.000  F
  F341     1.0000 0.28020  0.76960  0.39890  Biso   1.000  F
  F342     1.0000 0.71980  0.76960  0.10110  Biso   1.000  F
  F343     1.0000 0.78020  0.26960  0.39890  Biso   1.000  F
  F344     1.0000 0.21980  0.26960  0.10110  Biso   1.000  F
  F345     1.0000 0.64186  0.18650  0.63800  Biso   1.000  F
  F346     1.0000 0.35814  0.18650  0.86200  Biso   1.000  F
  F347     1.0000 0.14186  0.68650  0.63800  Biso   1.000  F
  F348     1.0000 0.85814  0.68650  0.86200  Biso   1.000  F
  F349     1.0000 0.35814  0.81350  0.36200  Biso   1.000  F
  F350     1.0000 0.64186  0.81350  0.13800  Biso   1.000  F
  F351     1.0000 0.85814  0.31350  0.36200  Biso   1.000  F
  F352     1.0000 0.14186  0.31350  0.13800  Biso   1.000  F
  F353     1.0000 0.64660  0.07950  0.70590  Biso   1.000  F
  F354     1.0000 0.35340  0.07950  0.79410  Biso   1.000  F
  F355     1.0000 0.14660  0.57950  0.70590  Biso   1.000  F
  F356     1.0000 0.85340  0.57950  0.79410  Biso   1.000  F
  F357     1.0000 0.35340  0.92050  0.29410  Biso   1.000  F
  F358     1.0000 0.64660  0.92050  0.20590  Biso   1.000  F
  F359     1.0000 0.85340  0.42050  0.29410  Biso   1.000  F
  F360     1.0000 0.14660  0.42050  0.20590  Biso   1.000  F
  F361     1.0000 0.63220  0.17450  0.74600  Biso   1.000  F
  F362     1.0000 0.36780  0.17450  0.75400  Biso   1.000  F
  F363     1.0000 0.13220  0.67450  0.74600  Biso   1.000  F
  F364     1.0000 0.86780  0.67450  0.75400  Biso   1.000  F
  F365     1.0000 0.36780  0.82550  0.25400  Biso   1.000  F
  F366     1.0000 0.63220  0.82550  0.24600  Biso   1.000  F
  F367     1.0000 0.86780  0.32550  0.25400  Biso   1.000  F
  F368     1.0000 0.13220  0.32550  0.24600  Biso   1.000  F
  F369     1.0000 0.74160  0.97480  0.69350  Biso   1.000  F
  F370     1.0000 0.25840  0.97480  0.80650  Biso   1.000  F
  F371     1.0000 0.24160  0.47480  0.69350  Biso   1.000  F
  F372     1.0000 0.75840  0.47480  0.80650  Biso   1.000  F
  F373     1.0000 0.25840  0.02520  0.30650  Biso   1.000  F
  F374     1.0000 0.74160  0.02520  0.19350  Biso   1.000  F
  F375     1.0000 0.75840  0.52520  0.30650  Biso   1.000  F
  F376     1.0000 0.24160  0.52520  0.19350  Biso   1.000  F
  F377     1.0000 0.81560  0.04780  0.67740  Biso   1.000  F
  F378     1.0000 0.18440  0.04780  0.82260  Biso   1.000  F
  F379     1.0000 0.31560  0.54780  0.67740  Biso   1.000  F
  F380     1.0000 0.68440  0.54780  0.82260  Biso   1.000  F
  F381     1.0000 0.18440  0.95220  0.32260  Biso   1.000  F
  F382     1.0000 0.81560  0.95220  0.17740  Biso   1.000  F
  F383     1.0000 0.68440  0.45220  0.32260  Biso   1.000  F
  F384     1.0000 0.31560  0.45220  0.17740  Biso   1.000  F
  F385     1.0000 0.72500  0.91550  0.78610  Biso   1.000  F
  F386     1.0000 0.27500  0.91550  0.71390  Biso   1.000  F
  F387     1.0000 0.22500  0.41550  0.78610  Biso   1.000  F
  F388     1.0000 0.77500  0.41550  0.71390  Biso   1.000  F
  F389     1.0000 0.27500  0.08450  0.21390  Biso   1.000  F
  F390     1.0000 0.72500  0.08450  0.28610  Biso   1.000  F
  F391     1.0000 0.77500  0.58450  0.21390  Biso   1.000  F
  F392     1.0000 0.22500  0.58450  0.28610  Biso   1.000  F
  F393     1.0000 0.70770  0.98470  0.70050  Biso   1.000  F
  F394     1.0000 0.29230  0.98470  0.79950  Biso   1.000  F
  F395     1.0000 0.20770  0.48470  0.70050  Biso   1.000  F
  F396     1.0000 0.79230  0.48470  0.79950  Biso   1.000  F
  F397     1.0000 0.29230  0.01530  0.29950  Biso   1.000  F
  F398     1.0000 0.70770  0.01530  0.20050  Biso   1.000  F
  F399     1.0000 0.79230  0.51530  0.29950  Biso   1.000  F
  F400     1.0000 0.20770  0.51530  0.20050  Biso   1.000  F
  F401     1.0000 0.79372  0.15510  0.86350  Biso   1.000  F
  F402     1.0000 0.20628  0.15510  0.63650  Biso   1.000  F
  F403     1.0000 0.29372  0.65510  0.86350  Biso   1.000  F
  F404     1.0000 0.70628  0.65510  0.63650  Biso   1.000  F
  F405     1.0000 0.20628  0.84490  0.13650  Biso   1.000  F
  F406     1.0000 0.79372  0.84490  0.36350  Biso   1.000  F
  F407     1.0000 0.70628  0.34490  0.13650  Biso   1.000  F
  F408     1.0000 0.29372  0.34490  0.36350  Biso   1.000  F
  F409     1.0000 0.78120  0.28940  0.87760  Biso   1.000  F
  F410     1.0000 0.21880  0.28940  0.62240  Biso   1.000  F
  F411     1.0000 0.28120  0.78940  0.87760  Biso   1.000  F
  F412     1.0000 0.71880  0.78940  0.62240  Biso   1.000  F
  F413     1.0000 0.21880  0.71060  0.12240  Biso   1.000  F
  F414     1.0000 0.78120  0.71060  0.37760  Biso   1.000  F
  F415     1.0000 0.71880  0.21060  0.12240  Biso   1.000  F
  F416     1.0000 0.28120  0.21060  0.37760  Biso   1.000  F
  F417     1.0000 0.78280  0.24020  0.77690  Biso   1.000  F
  F418     1.0000 0.21720  0.24020  0.72310  Biso   1.000  F
  F419     1.0000 0.28280  0.74020  0.77690  Biso   1.000  F
  F420     1.0000 0.71720  0.74020  0.72310  Biso   1.000  F
  F421     1.0000 0.21720  0.75980  0.22310  Biso   1.000  F
  F422     1.0000 0.78280  0.75980  0.27690  Biso   1.000  F
  F423     1.0000 0.71720  0.25980  0.22310  Biso   1.000  F
  F424     1.0000 0.28280  0.25980  0.27690  Biso   1.000  F
  F425     1.0000 0.95799  0.79090  0.60010  Biso   1.000  F
  F426     1.0000 0.04201  0.79090  0.89990  Biso   1.000  F
  F427     1.0000 0.45799  0.29090  0.60010  Biso   1.000  F
  F428     1.0000 0.54201  0.29090  0.89990  Biso   1.000  F
  F429     1.0000 0.04201  0.20910  0.39990  Biso   1.000  F
  F430     1.0000 0.95799  0.20910  0.10010  Biso   1.000  F
  F431     1.0000 0.54201  0.70910  0.39990  Biso   1.000  F
  F432     1.0000 0.45799  0.70910  0.10010  Biso   1.000  F
  F433     1.0000 0.97650  0.71550  0.53530  Biso   1.000  F
  F434     1.0000 0.02350  0.71550  0.96470  Biso   1.000  F
  F435     1.0000 0.47650  0.21550  0.53530  Biso   1.000  F
  F436     1.0000 0.52350  0.21550  0.96470  Biso   1.000  F
  F437     1.0000 0.02350  0.28450  0.46470  Biso   1.000  F
  F438     1.0000 0.97650  0.28450  0.03530  Biso   1.000  F
  F439     1.0000 0.52350  0.78450  0.46470  Biso   1.000  F
  F440     1.0000 0.47650  0.78450  0.03530  Biso   1.000  F
  F441     1.0000 0.98610  0.71170  0.64670  Biso   1.000  F
  F442     1.0000 0.01390  0.71170  0.85330  Biso   1.000  F
  F443     1.0000 0.48610  0.21170  0.64670  Biso   1.000  F
  F444     1.0000 0.51390  0.21170  0.85330  Biso   1.000  F
  F445     1.0000 0.01390  0.28830  0.35330  Biso   1.000  F
  F446     1.0000 0.98610  0.28830  0.14670  Biso   1.000  F
  F447     1.0000 0.51390  0.78830  0.35330  Biso   1.000  F
  F448     1.0000 0.48610  0.78830  0.14670  Biso   1.000  F
  F449     1.0000 0.96799  0.04590  0.23680  Biso   1.000  F
  F450     1.0000 0.03201  0.04590  0.26320  Biso   1.000  F
  F451     1.0000 0.46799  0.54590  0.23680  Biso   1.000  F
  F452     1.0000 0.53201  0.54590  0.26320  Biso   1.000  F
  F453     1.0000 0.03201  0.95410  0.76320  Biso   1.000  F
  F454     1.0000 0.96799  0.95410  0.73680  Biso   1.000  F
  F455     1.0000 0.53201  0.45410  0.76320  Biso   1.000  F
  F456     1.0000 0.46799  0.45410  0.73680  Biso   1.000  F
  F457     1.0000 0.94330  0.02370  0.30000  Biso   1.000  F
  F458     1.0000 0.05670  0.02370  0.20000  Biso   1.000  F
  F459     1.0000 0.44330  0.52370  0.30000  Biso   1.000  F
  F460     1.0000 0.55670  0.52370  0.20000  Biso   1.000  F
  F461     1.0000 0.05670  0.97630  0.70000  Biso   1.000  F
  F462     1.0000 0.94330  0.97630  0.80000  Biso   1.000  F
  F463     1.0000 0.55670  0.47630  0.70000  Biso   1.000  F
  F464     1.0000 0.44330  0.47630  0.80000  Biso   1.000  F
  F465     1.0000 0.83080  0.93680  0.72200  Biso   1.000  F
  F466     1.0000 0.16920  0.93680  0.77800  Biso   1.000  F
  F467     1.0000 0.33080  0.43680  0.72200  Biso   1.000  F
  F468     1.0000 0.66920  0.43680  0.77800  Biso   1.000  F
  F469     1.0000 0.16920  0.06320  0.27800  Biso   1.000  F
  F470     1.0000 0.83080  0.06320  0.22200  Biso   1.000  F
  F471     1.0000 0.66920  0.56320  0.27800  Biso   1.000  F
  F472     1.0000 0.33080  0.56320  0.22200  Biso   1.000  F
  F473     1.0000 0.94790  0.14860  0.28690  Biso   1.000  F
  F474     1.0000 0.05210  0.14860  0.21310  Biso   1.000  F
  F475     1.0000 0.44790  0.64860  0.28690  Biso   1.000  F
  F476     1.0000 0.55210  0.64860  0.21310  Biso   1.000  F
  F477     1.0000 0.05210  0.85140  0.71310  Biso   1.000  F
  F478     1.0000 0.94790  0.85140  0.78690  Biso   1.000  F
  F479     1.0000 0.55210  0.35140  0.71310  Biso   1.000  F
  F480     1.0000 0.44790  0.35140  0.78690  Biso   1.000  F
  F481     1.0000 0.93610  0.63560  0.39030  Biso   1.000  F
  F482     1.0000 0.06390  0.63560  0.10970  Biso   1.000  F
  F483     1.0000 0.43610  0.13560  0.39030  Biso   1.000  F
  F484     1.0000 0.56390  0.13560  0.10970  Biso   1.000  F
  F485     1.0000 0.06390  0.36440  0.60970  Biso   1.000  F
  F486     1.0000 0.93610  0.36440  0.89030  Biso   1.000  F
  F487     1.0000 0.56390  0.86440  0.60970  Biso   1.000  F
  F488     1.0000 0.43610  0.86440  0.89030  Biso   1.000  F
  F489     1.0000 0.94810  0.78340  0.41520  Biso   1.000  F
  F490     1.0000 0.05190  0.78340  0.08480  Biso   1.000  F
  F491     1.0000 0.44810  0.28340  0.41520  Biso   1.000  F
  F492     1.0000 0.55190  0.28340  0.08480  Biso   1.000  F
  F493     1.0000 0.05190  0.21660  0.58480  Biso   1.000  F
  F494     1.0000 0.94810  0.21660  0.91520  Biso   1.000  F
  F495     1.0000 0.55190  0.71660  0.58480  Biso   1.000  F
  F496     1.0000 0.44810  0.71660  0.91520  Biso   1.000  F
  F497     1.0000 0.93230  0.72670  0.31500  Biso   1.000  F
  F498     1.0000 0.06770  0.72670  0.18500  Biso   1.000  F
  F499     1.0000 0.43230  0.22670  0.31500  Biso   1.000  F
  F500     1.0000 0.56770  0.22670  0.18500  Biso   1.000  F
  F501     1.0000 0.06770  0.27330  0.68500  Biso   1.000  F
  F502     1.0000 0.93230  0.27330  0.81500  Biso   1.000  F
  F503     1.0000 0.56770  0.77330  0.68500  Biso   1.000  F
  F504     1.0000 0.43230  0.77330  0.81500  Biso   1.000  F
  F505     1.0000 0.99160  0.45970  0.18730  Biso   1.000  F
  F506     1.0000 0.00840  0.45970  0.31270  Biso   1.000  F
  F507     1.0000 0.49160  0.95970  0.18730  Biso   1.000  F
  F508     1.0000 0.50840  0.95970  0.31270  Biso   1.000  F
  F509     1.0000 0.00840  0.54030  0.81270  Biso   1.000  F
  F510     1.0000 0.99160  0.54030  0.68730  Biso   1.000  F
  F511     1.0000 0.50840  0.04030  0.81270  Biso   1.000  F
  F512     1.0000 0.49160  0.04030  0.68730  Biso   1.000  F
  F513     1.0000 0.99610  0.48200  0.06490  Biso   1.000  F
  F514     1.0000 0.00390  0.48200  0.43510  Biso   1.000  F
  F515     1.0000 0.49610  0.98200  0.06490  Biso   1.000  F
  F516     1.0000 0.50390  0.98200  0.43510  Biso   1.000  F
  F517     1.0000 0.00390  0.51800  0.93510  Biso   1.000  F
  F518     1.0000 0.99610  0.51800  0.56490  Biso   1.000  F
  F519     1.0000 0.50390  0.01800  0.93510  Biso   1.000  F
  F520     1.0000 0.49610  0.01800  0.56490  Biso   1.000  F
  F521     1.0000 0.96660  0.51470  0.11690  Biso   1.000  F
  F522     1.0000 0.03340  0.51470  0.38310  Biso   1.000  F
  F523     1.0000 0.46660  0.01470  0.11690  Biso   1.000  F
  F524     1.0000 0.53340  0.01470  0.38310  Biso   1.000  F
  F525     1.0000 0.03340  0.48530  0.88310  Biso   1.000  F
  F526     1.0000 0.96660  0.48530  0.61690  Biso   1.000  F
  F527     1.0000 0.53340  0.98530  0.88310  Biso   1.000  F
  F528     1.0000 0.46660  0.98530  0.61690  Biso   1.000  F
  F529     1.0000 0.84870  0.29030  0.76040  Biso   1.000  F
  F530     1.0000 0.15130  0.29030  0.73960  Biso   1.000  F
  F531     1.0000 0.34870  0.79030  0.76040  Biso   1.000  F
  F532     1.0000 0.65130  0.79030  0.73960  Biso   1.000  F
  F533     1.0000 0.15130  0.70970  0.23960  Biso   1.000  F
  F534     1.0000 0.84870  0.70970  0.26040  Biso   1.000  F
  F535     1.0000 0.65130  0.20970  0.23960  Biso   1.000  F
  F536     1.0000 0.34870  0.20970  0.26040  Biso   1.000  F
  F537     1.0000 0.87710  0.26330  0.83360  Biso   1.000  F
  F538     1.0000 0.12290  0.26330  0.66640  Biso   1.000  F
  F539     1.0000 0.37710  0.76330  0.83360  Biso   1.000  F
  F540     1.0000 0.62290  0.76330  0.66640  Biso   1.000  F
  F541     1.0000 0.12290  0.73670  0.16640  Biso   1.000  F
  F542     1.0000 0.87710  0.73670  0.33360  Biso   1.000  F
  F543     1.0000 0.62290  0.23670  0.16640  Biso   1.000  F
  F544     1.0000 0.37710  0.23670  0.33360  Biso   1.000  F
  F545     1.0000 0.85240  0.33080  0.86970  Biso   1.000  F
  F546     1.0000 0.14760  0.33080  0.63030  Biso   1.000  F
  F547     1.0000 0.35240  0.83080  0.86970  Biso   1.000  F
  F548     1.0000 0.64760  0.83080  0.63030  Biso   1.000  F
  F549     1.0000 0.14760  0.66920  0.13030  Biso   1.000  F
  F550     1.0000 0.85240  0.66920  0.36970  Biso   1.000  F
  F551     1.0000 0.64760  0.16920  0.13030  Biso   1.000  F
  F552     1.0000 0.35240  0.16920  0.36970  Biso   1.000  F
  F553     1.0000 0.84450  0.72230  0.00110  Biso   1.000  F
  F554     1.0000 0.15550  0.72230  0.49890  Biso   1.000  F
  F555     1.0000 0.34450  0.22230  0.00110  Biso   1.000  F
  F556     1.0000 0.65550  0.22230  0.49890  Biso   1.000  F
  F557     1.0000 0.15550  0.27770  0.99890  Biso   1.000  F
  F558     1.0000 0.84450  0.27770  0.50110  Biso   1.000  F
  F559     1.0000 0.65550  0.77770  0.99890  Biso   1.000  F
  F560     1.0000 0.34450  0.77770  0.50110  Biso   1.000  F
  F561     1.0000 0.85180  0.77450  0.10700  Biso   1.000  F
  F562     1.0000 0.14820  0.77450  0.39300  Biso   1.000  F
  F563     1.0000 0.35180  0.27450  0.10700  Biso   1.000  F
  F564     1.0000 0.64820  0.27450  0.39300  Biso   1.000  F
  F565     1.0000 0.14820  0.22550  0.89300  Biso   1.000  F
  F566     1.0000 0.85180  0.22550  0.60700  Biso   1.000  F
  F567     1.0000 0.64820  0.72550  0.89300  Biso   1.000  F
  F568     1.0000 0.35180  0.72550  0.60700  Biso   1.000  F
  F569     1.0000 0.82050  0.78990  0.04160  Biso   1.000  F
  F570     1.0000 0.17950  0.78990  0.45840  Biso   1.000  F
  F571     1.0000 0.32050  0.28990  0.04160  Biso   1.000  F
  F572     1.0000 0.67950  0.28990  0.45840  Biso   1.000  F
  F573     1.0000 0.17950  0.21010  0.95840  Biso   1.000  F
  F574     1.0000 0.82050  0.21010  0.54160  Biso   1.000  F
  F575     1.0000 0.67950  0.71010  0.95840  Biso   1.000  F
  F576     1.0000 0.32050  0.71010  0.54160  Biso   1.000  F
