data_image0
_cell_length_a       32.9455
_cell_length_b       11.4448
_cell_length_c       23.316
_cell_angle_alpha    90
_cell_angle_beta     119.746
_cell_angle_gamma    90

_symmetry_space_group_name_H-M    "P 1"
_symmetry_int_tables_number       1

loop_
  _symmetry_equiv_pos_as_xyz
  'x, y, z'

loop_
  _atom_site_label
  _atom_site_occupancy
  _atom_site_fract_x
  _atom_site_fract_y
  _atom_site_fract_z
  _atom_site_thermal_displace_type
  _atom_site_B_iso_or_equiv
  _atom_site_type_symbol
  Cu1      1.0000 0.89391  0.50136  0.50675  Biso   1.000  Cu
  Cu2      1.0000 0.10609  0.50136  0.99325  Biso   1.000  Cu
  Cu3      1.0000 0.39391  0.00136  0.50675  Biso   1.000  Cu
  Cu4      1.0000 0.60609  0.00136  0.99325  Biso   1.000  Cu
  Cu5      1.0000 0.10609  0.49864  0.49325  Biso   1.000  Cu
  Cu6      1.0000 0.89391  0.49864  0.00675  Biso   1.000  Cu
  Cu7      1.0000 0.60609  0.99864  0.49325  Biso   1.000  Cu
  Cu8      1.0000 0.39391  0.99864  0.00675  Biso   1.000  Cu
  Cu9      1.0000 0.00000  0.81348  0.25000  Biso   1.000  Cu
  Cu10     1.0000 0.50000  0.31348  0.25000  Biso   1.000  Cu
  Cu11     1.0000 0.00000  0.18652  0.75000  Biso   1.000  Cu
  Cu12     1.0000 0.50000  0.68652  0.75000  Biso   1.000  Cu
  O1       1.0000 0.93549  0.61290  0.47050  Biso   1.000  O
  O2       1.0000 0.06451  0.61290  0.02950  Biso   1.000  O
  O3       1.0000 0.43549  0.11290  0.47050  Biso   1.000  O
  O4       1.0000 0.56451  0.11290  0.02950  Biso   1.000  O
  O5       1.0000 0.06451  0.38710  0.52950  Biso   1.000  O
  O6       1.0000 0.93549  0.38710  0.97050  Biso   1.000  O
  O7       1.0000 0.56451  0.88710  0.52950  Biso   1.000  O
  O8       1.0000 0.43549  0.88710  0.97050  Biso   1.000  O
  O9       1.0000 0.84010  0.54100  0.42250  Biso   1.000  O
  O10      1.0000 0.15990  0.54100  0.07750  Biso   1.000  O
  O11      1.0000 0.34010  0.04100  0.42250  Biso   1.000  O
  O12      1.0000 0.65990  0.04100  0.07750  Biso   1.000  O
  O13      1.0000 0.15990  0.45900  0.57750  Biso   1.000  O
  O14      1.0000 0.84010  0.45900  0.92250  Biso   1.000  O
  O15      1.0000 0.65990  0.95900  0.57750  Biso   1.000  O
  O16      1.0000 0.34010  0.95900  0.92250  Biso   1.000  O
  O17      1.0000 0.84555  0.44120  0.54150  Biso   1.000  O
  O18      1.0000 0.15445  0.44120  0.95850  Biso   1.000  O
  O19      1.0000 0.34555  0.94120  0.54150  Biso   1.000  O
  O20      1.0000 0.65445  0.94120  0.95850  Biso   1.000  O
  O21      1.0000 0.15445  0.55880  0.45850  Biso   1.000  O
  O22      1.0000 0.84555  0.55880  0.04150  Biso   1.000  O
  O23      1.0000 0.65445  0.05880  0.45850  Biso   1.000  O
  O24      1.0000 0.34555  0.05880  0.04150  Biso   1.000  O
  O25      1.0000 0.89389  0.65330  0.54920  Biso   1.000  O
  O26      1.0000 0.10611  0.65330  0.95080  Biso   1.000  O
  O27      1.0000 0.39389  0.15330  0.54920  Biso   1.000  O
  O28      1.0000 0.60611  0.15330  0.95080  Biso   1.000  O
  O29      1.0000 0.10611  0.34670  0.45080  Biso   1.000  O
  O30      1.0000 0.89389  0.34670  0.04920  Biso   1.000  O
  O31      1.0000 0.60611  0.84670  0.45080  Biso   1.000  O
  O32      1.0000 0.39389  0.84670  0.04920  Biso   1.000  O
  O33      1.0000 0.06730  0.81060  0.28980  Biso   1.000  O
  O34      1.0000 0.93270  0.81060  0.21020  Biso   1.000  O
  O35      1.0000 0.56730  0.31060  0.28980  Biso   1.000  O
  O36      1.0000 0.43270  0.31060  0.21020  Biso   1.000  O
  O37      1.0000 0.93270  0.18940  0.71020  Biso   1.000  O
  O38      1.0000 0.06730  0.18940  0.78980  Biso   1.000  O
  O39      1.0000 0.43270  0.68940  0.71020  Biso   1.000  O
  O40      1.0000 0.56730  0.68940  0.78980  Biso   1.000  O
  O41      1.0000 0.99620  0.94730  0.18650  Biso   1.000  O
  O42      1.0000 0.00380  0.94730  0.31350  Biso   1.000  O
  O43      1.0000 0.49620  0.44730  0.18650  Biso   1.000  O
  O44      1.0000 0.50380  0.44730  0.31350  Biso   1.000  O
  O45      1.0000 0.00380  0.05270  0.81350  Biso   1.000  O
  O46      1.0000 0.99620  0.05270  0.68650  Biso   1.000  O
  O47      1.0000 0.50380  0.55270  0.81350  Biso   1.000  O
  O48      1.0000 0.49620  0.55270  0.68650  Biso   1.000  O
  O49      1.0000 0.90128  0.34840  0.47243  Biso   1.000  O
  O50      1.0000 0.09872  0.34840  0.02757  Biso   1.000  O
  O51      1.0000 0.40128  0.84840  0.47243  Biso   1.000  O
  O52      1.0000 0.59872  0.84840  0.02757  Biso   1.000  O
  O53      1.0000 0.09872  0.65160  0.52757  Biso   1.000  O
  O54      1.0000 0.90128  0.65160  0.97243  Biso   1.000  O
  O55      1.0000 0.59872  0.15160  0.52757  Biso   1.000  O
  O56      1.0000 0.40128  0.15160  0.97243  Biso   1.000  O
  N1       1.0000 0.87155  0.30580  0.41540  Biso   1.000  N
  N2       1.0000 0.12845  0.30580  0.08460  Biso   1.000  N
  N3       1.0000 0.37155  0.80580  0.41540  Biso   1.000  N
  N4       1.0000 0.62845  0.80580  0.08460  Biso   1.000  N
  N5       1.0000 0.12845  0.69420  0.58460  Biso   1.000  N
  N6       1.0000 0.87155  0.69420  0.91540  Biso   1.000  N
  N7       1.0000 0.62845  0.19420  0.58460  Biso   1.000  N
  N8       1.0000 0.37155  0.19420  0.91540  Biso   1.000  N
  N9       1.0000 0.04653  0.54340  0.41030  Biso   1.000  N
  N10      1.0000 0.95347  0.54340  0.08970  Biso   1.000  N
  N11      1.0000 0.54653  0.04340  0.41030  Biso   1.000  N
  N12      1.0000 0.45347  0.04340  0.08970  Biso   1.000  N
  N13      1.0000 0.95347  0.45660  0.58970  Biso   1.000  N
  N14      1.0000 0.04653  0.45660  0.91030  Biso   1.000  N
  N15      1.0000 0.45347  0.95660  0.58970  Biso   1.000  N
  N16      1.0000 0.54653  0.95660  0.91030  Biso   1.000  N
  N17      1.0000 0.00509  0.66490  0.31770  Biso   1.000  N
  N18      1.0000 0.99491  0.66490  0.18230  Biso   1.000  N
  N19      1.0000 0.50509  0.16490  0.31770  Biso   1.000  N
  N20      1.0000 0.49491  0.16490  0.18230  Biso   1.000  N
  N21      1.0000 0.99491  0.33510  0.68230  Biso   1.000  N
  N22      1.0000 0.00509  0.33510  0.81770  Biso   1.000  N
  N23      1.0000 0.49491  0.83510  0.68230  Biso   1.000  N
  N24      1.0000 0.50509  0.83510  0.81770  Biso   1.000  N
  C1       1.0000 0.94830  0.78660  0.43070  Biso   1.000  C
  C2       1.0000 0.05170  0.78660  0.06930  Biso   1.000  C
  C3       1.0000 0.44830  0.28660  0.43070  Biso   1.000  C
  C4       1.0000 0.55170  0.28660  0.06930  Biso   1.000  C
  C5       1.0000 0.05170  0.21340  0.56930  Biso   1.000  C
  C6       1.0000 0.94830  0.21340  0.93070  Biso   1.000  C
  C7       1.0000 0.55170  0.71340  0.56930  Biso   1.000  C
  C8       1.0000 0.44830  0.71340  0.93070  Biso   1.000  C
  C9       1.0000 0.91660  0.69550  0.43420  Biso   1.000  C
  C10      1.0000 0.08340  0.69550  0.06580  Biso   1.000  C
  C11      1.0000 0.41660  0.19550  0.43420  Biso   1.000  C
  C12      1.0000 0.58340  0.19550  0.06580  Biso   1.000  C
  C13      1.0000 0.08340  0.30450  0.56580  Biso   1.000  C
  C14      1.0000 0.91660  0.30450  0.93420  Biso   1.000  C
  C15      1.0000 0.58340  0.80450  0.56580  Biso   1.000  C
  C16      1.0000 0.41660  0.80450  0.93420  Biso   1.000  C
  C17      1.0000 0.86930  0.70940  0.39120  Biso   1.000  C
  C18      1.0000 0.13070  0.70940  0.10880  Biso   1.000  C
  C19      1.0000 0.36930  0.20940  0.39120  Biso   1.000  C
  C20      1.0000 0.63070  0.20940  0.10880  Biso   1.000  C
  C21      1.0000 0.13070  0.29060  0.60880  Biso   1.000  C
  C22      1.0000 0.86930  0.29060  0.89120  Biso   1.000  C
  C23      1.0000 0.63070  0.79060  0.60880  Biso   1.000  C
  C24      1.0000 0.36930  0.79060  0.89120  Biso   1.000  C
  H1       1.0000 0.85970  0.77180  0.36180  Biso   1.000  H
  H2       1.0000 0.14030  0.77180  0.13820  Biso   1.000  H
  H3       1.0000 0.35970  0.27180  0.36180  Biso   1.000  H
  H4       1.0000 0.64030  0.27180  0.13820  Biso   1.000  H
  H5       1.0000 0.14030  0.22820  0.63820  Biso   1.000  H
  H6       1.0000 0.85970  0.22820  0.86180  Biso   1.000  H
  H7       1.0000 0.64030  0.72820  0.63820  Biso   1.000  H
  H8       1.0000 0.35970  0.72820  0.86180  Biso   1.000  H
  C25      1.0000 0.83500  0.63550  0.38920  Biso   1.000  C
  C26      1.0000 0.16500  0.63550  0.11080  Biso   1.000  C
  C27      1.0000 0.33500  0.13550  0.38920  Biso   1.000  C
  C28      1.0000 0.66500  0.13550  0.11080  Biso   1.000  C
  C29      1.0000 0.16500  0.36450  0.61080  Biso   1.000  C
  C30      1.0000 0.83500  0.36450  0.88920  Biso   1.000  C
  C31      1.0000 0.66500  0.86450  0.61080  Biso   1.000  C
  C32      1.0000 0.33500  0.86450  0.88920  Biso   1.000  C
  C33      1.0000 0.77880  0.65200  0.33880  Biso   1.000  C
  C34      1.0000 0.22120  0.65200  0.16120  Biso   1.000  C
  C35      1.0000 0.27880  0.15200  0.33880  Biso   1.000  C
  C36      1.0000 0.72120  0.15200  0.16120  Biso   1.000  C
  C37      1.0000 0.22120  0.34800  0.66120  Biso   1.000  C
  C38      1.0000 0.77880  0.34800  0.83880  Biso   1.000  C
  C39      1.0000 0.72120  0.84800  0.66120  Biso   1.000  C
  C40      1.0000 0.27880  0.84800  0.83880  Biso   1.000  C
  C41      1.0000 0.77850  0.45630  0.55060  Biso   1.000  C
  C42      1.0000 0.22150  0.45630  0.94940  Biso   1.000  C
  C43      1.0000 0.27850  0.95630  0.55060  Biso   1.000  C
  C44      1.0000 0.72150  0.95630  0.94940  Biso   1.000  C
  C45      1.0000 0.22150  0.54370  0.44940  Biso   1.000  C
  C46      1.0000 0.77850  0.54370  0.05060  Biso   1.000  C
  C47      1.0000 0.72150  0.04370  0.44940  Biso   1.000  C
  C48      1.0000 0.27850  0.04370  0.05060  Biso   1.000  C
  C49      1.0000 0.82030  0.51090  0.54800  Biso   1.000  C
  C50      1.0000 0.17970  0.51090  0.95200  Biso   1.000  C
  C51      1.0000 0.32030  0.01090  0.54800  Biso   1.000  C
  C52      1.0000 0.67970  0.01090  0.95200  Biso   1.000  C
  C53      1.0000 0.17970  0.48910  0.45200  Biso   1.000  C
  C54      1.0000 0.82030  0.48910  0.04800  Biso   1.000  C
  C55      1.0000 0.67970  0.98910  0.45200  Biso   1.000  C
  C56      1.0000 0.32030  0.98910  0.04800  Biso   1.000  C
  C57      1.0000 0.82550  0.63240  0.55830  Biso   1.000  C
  C58      1.0000 0.17450  0.63240  0.94170  Biso   1.000  C
  C59      1.0000 0.32550  0.13240  0.55830  Biso   1.000  C
  C60      1.0000 0.67450  0.13240  0.94170  Biso   1.000  C
  C61      1.0000 0.17450  0.36760  0.44170  Biso   1.000  C
  C62      1.0000 0.82550  0.36760  0.05830  Biso   1.000  C
  C63      1.0000 0.67450  0.86760  0.44170  Biso   1.000  C
  C64      1.0000 0.32550  0.86760  0.05830  Biso   1.000  C
  H9       1.0000 0.80370  0.67350  0.56460  Biso   1.000  H
  H10      1.0000 0.19630  0.67350  0.93540  Biso   1.000  H
  H11      1.0000 0.30370  0.17350  0.56460  Biso   1.000  H
  H12      1.0000 0.69630  0.17350  0.93540  Biso   1.000  H
  H13      1.0000 0.19630  0.32650  0.43540  Biso   1.000  H
  H14      1.0000 0.80370  0.32650  0.06460  Biso   1.000  H
  H15      1.0000 0.69630  0.82650  0.43540  Biso   1.000  H
  H16      1.0000 0.30370  0.82650  0.06460  Biso   1.000  H
  C65      1.0000 0.86330  0.69370  0.55940  Biso   1.000  C
  C66      1.0000 0.13670  0.69370  0.94060  Biso   1.000  C
  C67      1.0000 0.36330  0.19370  0.55940  Biso   1.000  C
  C68      1.0000 0.63670  0.19370  0.94060  Biso   1.000  C
  C69      1.0000 0.13670  0.30630  0.44060  Biso   1.000  C
  C70      1.0000 0.86330  0.30630  0.05940  Biso   1.000  C
  C71      1.0000 0.63670  0.80630  0.44060  Biso   1.000  C
  C72      1.0000 0.36330  0.80630  0.05940  Biso   1.000  C
  C73      1.0000 0.86780  0.82340  0.57720  Biso   1.000  C
  C74      1.0000 0.13220  0.82340  0.92280  Biso   1.000  C
  C75      1.0000 0.36780  0.32340  0.57720  Biso   1.000  C
  C76      1.0000 0.63220  0.32340  0.92280  Biso   1.000  C
  C77      1.0000 0.13220  0.17660  0.42280  Biso   1.000  C
  C78      1.0000 0.86780  0.17660  0.07720  Biso   1.000  C
  C79      1.0000 0.63220  0.67660  0.42280  Biso   1.000  C
  C80      1.0000 0.36780  0.67660  0.07720  Biso   1.000  C
  C81      1.0000 0.14360  0.85880  0.32220  Biso   1.000  C
  C82      1.0000 0.85640  0.85880  0.17780  Biso   1.000  C
  C83      1.0000 0.64360  0.35880  0.32220  Biso   1.000  C
  C84      1.0000 0.35640  0.35880  0.17780  Biso   1.000  C
  C85      1.0000 0.85640  0.14120  0.67780  Biso   1.000  C
  C86      1.0000 0.14360  0.14120  0.82220  Biso   1.000  C
  C87      1.0000 0.35640  0.64120  0.67780  Biso   1.000  C
  C88      1.0000 0.64360  0.64120  0.82220  Biso   1.000  C
  C89      1.0000 0.09180  0.88750  0.28160  Biso   1.000  C
  C90      1.0000 0.90820  0.88750  0.21840  Biso   1.000  C
  C91      1.0000 0.59180  0.38750  0.28160  Biso   1.000  C
  C92      1.0000 0.40820  0.38750  0.21840  Biso   1.000  C
  C93      1.0000 0.90820  0.11250  0.71840  Biso   1.000  C
  C94      1.0000 0.09180  0.11250  0.78160  Biso   1.000  C
  C95      1.0000 0.40820  0.61250  0.71840  Biso   1.000  C
  C96      1.0000 0.59180  0.61250  0.78160  Biso   1.000  C
  C97      1.0000 0.07800  0.97970  0.24050  Biso   1.000  C
  C98      1.0000 0.92200  0.97970  0.25950  Biso   1.000  C
  C99      1.0000 0.57800  0.47970  0.24050  Biso   1.000  C
  C100     1.0000 0.42200  0.47970  0.25950  Biso   1.000  C
  C101     1.0000 0.92200  0.02030  0.75950  Biso   1.000  C
  C102     1.0000 0.07800  0.02030  0.74050  Biso   1.000  C
  C103     1.0000 0.42200  0.52030  0.75950  Biso   1.000  C
  C104     1.0000 0.57800  0.52030  0.74050  Biso   1.000  C
  H17      1.0000 0.10060  0.03010  0.24200  Biso   1.000  H
  H18      1.0000 0.89940  0.03010  0.25800  Biso   1.000  H
  H19      1.0000 0.60060  0.53010  0.24200  Biso   1.000  H
  H20      1.0000 0.39940  0.53010  0.25800  Biso   1.000  H
  H21      1.0000 0.89940  0.96990  0.75800  Biso   1.000  H
  H22      1.0000 0.10060  0.96990  0.74200  Biso   1.000  H
  H23      1.0000 0.39940  0.46990  0.75800  Biso   1.000  H
  H24      1.0000 0.60060  0.46990  0.74200  Biso   1.000  H
  C105     1.0000 0.03070  0.00330  0.19520  Biso   1.000  C
  C106     1.0000 0.96930  0.00330  0.30480  Biso   1.000  C
  C107     1.0000 0.53070  0.50330  0.19520  Biso   1.000  C
  C108     1.0000 0.46930  0.50330  0.30480  Biso   1.000  C
  C109     1.0000 0.96930  0.99670  0.80480  Biso   1.000  C
  C110     1.0000 0.03070  0.99670  0.69520  Biso   1.000  C
  C111     1.0000 0.46930  0.49670  0.80480  Biso   1.000  C
  C112     1.0000 0.53070  0.49670  0.69520  Biso   1.000  C
  C113     1.0000 0.02070  0.10630  0.14780  Biso   1.000  C
  C114     1.0000 0.97930  0.10630  0.35220  Biso   1.000  C
  C115     1.0000 0.52070  0.60630  0.14780  Biso   1.000  C
  C116     1.0000 0.47930  0.60630  0.35220  Biso   1.000  C
  C117     1.0000 0.97930  0.89370  0.85220  Biso   1.000  C
  C118     1.0000 0.02070  0.89370  0.64780  Biso   1.000  C
  C119     1.0000 0.47930  0.39370  0.85220  Biso   1.000  C
  C120     1.0000 0.52070  0.39370  0.64780  Biso   1.000  C
  C121     1.0000 0.00768  0.48110  0.39210  Biso   1.000  C
  C122     1.0000 0.99232  0.48110  0.10790  Biso   1.000  C
  C123     1.0000 0.50768  0.98110  0.39210  Biso   1.000  C
  C124     1.0000 0.49232  0.98110  0.10790  Biso   1.000  C
  C125     1.0000 0.99232  0.51890  0.60790  Biso   1.000  C
  C126     1.0000 0.00768  0.51890  0.89210  Biso   1.000  C
  C127     1.0000 0.49232  0.01890  0.60790  Biso   1.000  C
  C128     1.0000 0.50768  0.01890  0.89210  Biso   1.000  C
  H25      1.0000 0.00920  0.41610  0.41710  Biso   1.000  H
  H26      1.0000 0.99080  0.41610  0.08290  Biso   1.000  H
  H27      1.0000 0.50920  0.91610  0.41710  Biso   1.000  H
  H28      1.0000 0.49080  0.91610  0.08290  Biso   1.000  H
  H29      1.0000 0.99080  0.58390  0.58290  Biso   1.000  H
  H30      1.0000 0.00920  0.58390  0.91710  Biso   1.000  H
  H31      1.0000 0.49080  0.08390  0.58290  Biso   1.000  H
  H32      1.0000 0.50920  0.08390  0.91710  Biso   1.000  H
  C129     1.0000 0.04346  0.63380  0.37220  Biso   1.000  C
  C130     1.0000 0.95654  0.63380  0.12780  Biso   1.000  C
  C131     1.0000 0.54346  0.13380  0.37220  Biso   1.000  C
  C132     1.0000 0.45654  0.13380  0.12780  Biso   1.000  C
  C133     1.0000 0.95654  0.36620  0.62780  Biso   1.000  C
  C134     1.0000 0.04346  0.36620  0.87220  Biso   1.000  C
  C135     1.0000 0.45654  0.86620  0.62780  Biso   1.000  C
  C136     1.0000 0.54346  0.86620  0.87220  Biso   1.000  C
  H33      1.0000 0.07030  0.67800  0.38490  Biso   1.000  H
  H34      1.0000 0.92970  0.67800  0.11510  Biso   1.000  H
  H35      1.0000 0.57030  0.17800  0.38490  Biso   1.000  H
  H36      1.0000 0.42970  0.17800  0.11510  Biso   1.000  H
  H37      1.0000 0.92970  0.32200  0.61510  Biso   1.000  H
  H38      1.0000 0.07030  0.32200  0.88490  Biso   1.000  H
  H39      1.0000 0.42970  0.82200  0.61510  Biso   1.000  H
  H40      1.0000 0.57030  0.82200  0.88490  Biso   1.000  H
  C137     1.0000 0.96650  0.60410  0.30180  Biso   1.000  C
  C138     1.0000 0.03350  0.60410  0.19820  Biso   1.000  C
  C139     1.0000 0.46650  0.10410  0.30180  Biso   1.000  C
  C140     1.0000 0.53350  0.10410  0.19820  Biso   1.000  C
  C141     1.0000 0.03350  0.39590  0.69820  Biso   1.000  C
  C142     1.0000 0.96650  0.39590  0.80180  Biso   1.000  C
  C143     1.0000 0.53350  0.89590  0.69820  Biso   1.000  C
  C144     1.0000 0.46650  0.89590  0.80180  Biso   1.000  C
  H41      1.0000 0.93880  0.62620  0.26440  Biso   1.000  H
  H42      1.0000 0.06120  0.62620  0.23560  Biso   1.000  H
  H43      1.0000 0.43880  0.12620  0.26440  Biso   1.000  H
  H44      1.0000 0.56120  0.12620  0.23560  Biso   1.000  H
  H45      1.0000 0.06120  0.37380  0.73560  Biso   1.000  H
  H46      1.0000 0.93880  0.37380  0.76440  Biso   1.000  H
  H47      1.0000 0.56120  0.87380  0.73560  Biso   1.000  H
  H48      1.0000 0.43880  0.87380  0.76440  Biso   1.000  H
  C145     1.0000 0.96556  0.50960  0.33800  Biso   1.000  C
  C146     1.0000 0.03444  0.50960  0.16200  Biso   1.000  C
  C147     1.0000 0.46556  0.00960  0.33800  Biso   1.000  C
  C148     1.0000 0.53444  0.00960  0.16200  Biso   1.000  C
  C149     1.0000 0.03444  0.49040  0.66200  Biso   1.000  C
  C150     1.0000 0.96556  0.49040  0.83800  Biso   1.000  C
  C151     1.0000 0.53444  0.99040  0.66200  Biso   1.000  C
  C152     1.0000 0.46556  0.99040  0.83800  Biso   1.000  C
  C153     1.0000 0.92170  0.44790  0.32230  Biso   1.000  C
  C154     1.0000 0.07830  0.44790  0.17770  Biso   1.000  C
  C155     1.0000 0.42170  0.94790  0.32230  Biso   1.000  C
  C156     1.0000 0.57830  0.94790  0.17770  Biso   1.000  C
  C157     1.0000 0.07830  0.55210  0.67770  Biso   1.000  C
  C158     1.0000 0.92170  0.55210  0.82230  Biso   1.000  C
  C159     1.0000 0.57830  0.05210  0.67770  Biso   1.000  C
  C160     1.0000 0.42170  0.05210  0.82230  Biso   1.000  C
  C161     1.0000 0.91629  0.40400  0.37350  Biso   1.000  C
  C162     1.0000 0.08371  0.40400  0.12650  Biso   1.000  C
  C163     1.0000 0.41629  0.90400  0.37350  Biso   1.000  C
  C164     1.0000 0.58371  0.90400  0.12650  Biso   1.000  C
  C165     1.0000 0.08371  0.59600  0.62650  Biso   1.000  C
  C166     1.0000 0.91629  0.59600  0.87350  Biso   1.000  C
  C167     1.0000 0.58371  0.09600  0.62650  Biso   1.000  C
  C168     1.0000 0.41629  0.09600  0.87350  Biso   1.000  C
  H49      1.0000 0.94040  0.41280  0.41690  Biso   1.000  H
  H50      1.0000 0.05960  0.41280  0.08310  Biso   1.000  H
  H51      1.0000 0.44040  0.91280  0.41690  Biso   1.000  H
  H52      1.0000 0.55960  0.91280  0.08310  Biso   1.000  H
  H53      1.0000 0.05960  0.58720  0.58310  Biso   1.000  H
  H54      1.0000 0.94040  0.58720  0.91690  Biso   1.000  H
  H55      1.0000 0.55960  0.08720  0.58310  Biso   1.000  H
  H56      1.0000 0.44040  0.08720  0.91690  Biso   1.000  H
  C169     1.0000 0.87510  0.34640  0.36100  Biso   1.000  C
  C170     1.0000 0.12490  0.34640  0.13900  Biso   1.000  C
  C171     1.0000 0.37510  0.84640  0.36100  Biso   1.000  C
  C172     1.0000 0.62490  0.84640  0.13900  Biso   1.000  C
  C173     1.0000 0.12490  0.65360  0.63900  Biso   1.000  C
  C174     1.0000 0.87510  0.65360  0.86100  Biso   1.000  C
  C175     1.0000 0.62490  0.15360  0.63900  Biso   1.000  C
  C176     1.0000 0.37510  0.15360  0.86100  Biso   1.000  C
  C177     1.0000 0.83890  0.33730  0.29620  Biso   1.000  C
  C178     1.0000 0.16110  0.33730  0.20380  Biso   1.000  C
  C179     1.0000 0.33890  0.83730  0.29620  Biso   1.000  C
  C180     1.0000 0.66110  0.83730  0.20380  Biso   1.000  C
  C181     1.0000 0.16110  0.66270  0.70380  Biso   1.000  C
  C182     1.0000 0.83890  0.66270  0.79620  Biso   1.000  C
  C183     1.0000 0.66110  0.16270  0.70380  Biso   1.000  C
  C184     1.0000 0.33890  0.16270  0.79620  Biso   1.000  C
  H57      1.0000 0.81070  0.30350  0.28710  Biso   1.000  H
  H58      1.0000 0.18930  0.30350  0.21290  Biso   1.000  H
  H59      1.0000 0.31070  0.80350  0.28710  Biso   1.000  H
  H60      1.0000 0.68930  0.80350  0.21290  Biso   1.000  H
  H61      1.0000 0.18930  0.69650  0.71290  Biso   1.000  H
  H62      1.0000 0.81070  0.69650  0.78710  Biso   1.000  H
  H63      1.0000 0.68930  0.19650  0.71290  Biso   1.000  H
  H64      1.0000 0.31070  0.19650  0.78710  Biso   1.000  H
  C185     1.0000 0.84500  0.37830  0.24550  Biso   1.000  C
  C186     1.0000 0.15500  0.37830  0.25450  Biso   1.000  C
  C187     1.0000 0.34500  0.87830  0.24550  Biso   1.000  C
  C188     1.0000 0.65500  0.87830  0.25450  Biso   1.000  C
  C189     1.0000 0.15500  0.62170  0.75450  Biso   1.000  C
  C190     1.0000 0.84500  0.62170  0.74550  Biso   1.000  C
  C191     1.0000 0.65500  0.12170  0.75450  Biso   1.000  C
  C192     1.0000 0.34500  0.12170  0.74550  Biso   1.000  C
  H65      1.0000 0.82110  0.36900  0.20210  Biso   1.000  H
  H66      1.0000 0.17890  0.36900  0.29790  Biso   1.000  H
  H67      1.0000 0.32110  0.86900  0.20210  Biso   1.000  H
  H68      1.0000 0.67890  0.86900  0.29790  Biso   1.000  H
  H69      1.0000 0.17890  0.63100  0.79790  Biso   1.000  H
  H70      1.0000 0.82110  0.63100  0.70210  Biso   1.000  H
  H71      1.0000 0.67890  0.13100  0.79790  Biso   1.000  H
  H72      1.0000 0.32110  0.13100  0.70210  Biso   1.000  H
  C193     1.0000 0.88590  0.43310  0.25810  Biso   1.000  C
  C194     1.0000 0.11410  0.43310  0.24190  Biso   1.000  C
  C195     1.0000 0.38590  0.93310  0.25810  Biso   1.000  C
  C196     1.0000 0.61410  0.93310  0.24190  Biso   1.000  C
  C197     1.0000 0.11410  0.56690  0.74190  Biso   1.000  C
  C198     1.0000 0.88590  0.56690  0.75810  Biso   1.000  C
  C199     1.0000 0.61410  0.06690  0.74190  Biso   1.000  C
  C200     1.0000 0.38590  0.06690  0.75810  Biso   1.000  C
  H73      1.0000 0.88940  0.46010  0.22320  Biso   1.000  H
  H74      1.0000 0.11060  0.46010  0.27680  Biso   1.000  H
  H75      1.0000 0.38940  0.96010  0.22320  Biso   1.000  H
  H76      1.0000 0.61060  0.96010  0.27680  Biso   1.000  H
  H77      1.0000 0.11060  0.53990  0.77680  Biso   1.000  H
  H78      1.0000 0.88940  0.53990  0.72320  Biso   1.000  H
  H79      1.0000 0.61060  0.03990  0.77680  Biso   1.000  H
  H80      1.0000 0.38940  0.03990  0.72320  Biso   1.000  H
  C201     1.0000 0.83810  0.21290  0.41370  Biso   1.000  C
  C202     1.0000 0.16190  0.21290  0.08630  Biso   1.000  C
  C203     1.0000 0.33810  0.71290  0.41370  Biso   1.000  C
  C204     1.0000 0.66190  0.71290  0.08630  Biso   1.000  C
  C205     1.0000 0.16190  0.78710  0.58630  Biso   1.000  C
  C206     1.0000 0.83810  0.78710  0.91370  Biso   1.000  C
  C207     1.0000 0.66190  0.28710  0.58630  Biso   1.000  C
  C208     1.0000 0.33810  0.28710  0.91370  Biso   1.000  C
  C209     1.0000 0.85530  0.17500  0.48360  Biso   1.000  C
  C210     1.0000 0.14470  0.17500  0.01640  Biso   1.000  C
  C211     1.0000 0.35530  0.67500  0.48360  Biso   1.000  C
  C212     1.0000 0.64470  0.67500  0.01640  Biso   1.000  C
  C213     1.0000 0.14470  0.82500  0.51640  Biso   1.000  C
  C214     1.0000 0.85530  0.82500  0.98360  Biso   1.000  C
  C215     1.0000 0.64470  0.32500  0.51640  Biso   1.000  C
  C216     1.0000 0.35530  0.32500  0.98360  Biso   1.000  C
  H81      1.0000 0.88580  0.14060  0.50110  Biso   1.000  H
  H82      1.0000 0.11420  0.14060  0.99890  Biso   1.000  H
  H83      1.0000 0.38580  0.64060  0.50110  Biso   1.000  H
  H84      1.0000 0.61420  0.64060  0.99890  Biso   1.000  H
  H85      1.0000 0.11420  0.85940  0.49890  Biso   1.000  H
  H86      1.0000 0.88580  0.85940  0.00110  Biso   1.000  H
  H87      1.0000 0.61420  0.35940  0.49890  Biso   1.000  H
  H88      1.0000 0.38580  0.35940  0.00110  Biso   1.000  H
  H89      1.0000 0.83410  0.11850  0.48460  Biso   1.000  H
  H90      1.0000 0.16590  0.11850  0.01540  Biso   1.000  H
  H91      1.0000 0.33410  0.61850  0.48460  Biso   1.000  H
  H92      1.0000 0.66590  0.61850  0.01540  Biso   1.000  H
  H93      1.0000 0.16590  0.88150  0.51540  Biso   1.000  H
  H94      1.0000 0.83410  0.88150  0.98460  Biso   1.000  H
  H95      1.0000 0.66590  0.38150  0.51540  Biso   1.000  H
  H96      1.0000 0.33410  0.38150  0.98460  Biso   1.000  H
  H97      1.0000 0.85710  0.24150  0.50980  Biso   1.000  H
  H98      1.0000 0.14290  0.24150  0.99020  Biso   1.000  H
  H99      1.0000 0.35710  0.74150  0.50980  Biso   1.000  H
  H100     1.0000 0.64290  0.74150  0.99020  Biso   1.000  H
  H101     1.0000 0.14290  0.75850  0.49020  Biso   1.000  H
  H102     1.0000 0.85710  0.75850  0.00980  Biso   1.000  H
  H103     1.0000 0.64290  0.25850  0.49020  Biso   1.000  H
  H104     1.0000 0.35710  0.25850  0.00980  Biso   1.000  H
  C217     1.0000 0.78970  0.26560  0.38480  Biso   1.000  C
  C218     1.0000 0.21030  0.26560  0.11520  Biso   1.000  C
  C219     1.0000 0.28970  0.76560  0.38480  Biso   1.000  C
  C220     1.0000 0.71030  0.76560  0.11520  Biso   1.000  C
  C221     1.0000 0.21030  0.73440  0.61520  Biso   1.000  C
  C222     1.0000 0.78970  0.73440  0.88480  Biso   1.000  C
  C223     1.0000 0.71030  0.23440  0.61520  Biso   1.000  C
  C224     1.0000 0.28970  0.23440  0.88480  Biso   1.000  C
  H105     1.0000 0.77900  0.28920  0.34000  Biso   1.000  H
  H106     1.0000 0.22100  0.28920  0.16000  Biso   1.000  H
  H107     1.0000 0.27900  0.78920  0.34000  Biso   1.000  H
  H108     1.0000 0.72100  0.78920  0.16000  Biso   1.000  H
  H109     1.0000 0.22100  0.71080  0.66000  Biso   1.000  H
  H110     1.0000 0.77900  0.71080  0.84000  Biso   1.000  H
  H111     1.0000 0.72100  0.21080  0.66000  Biso   1.000  H
  H112     1.0000 0.27900  0.21080  0.84000  Biso   1.000  H
  H113     1.0000 0.79080  0.33240  0.41050  Biso   1.000  H
  H114     1.0000 0.20920  0.33240  0.08950  Biso   1.000  H
  H115     1.0000 0.29080  0.83240  0.41050  Biso   1.000  H
  H116     1.0000 0.70920  0.83240  0.08950  Biso   1.000  H
  H117     1.0000 0.20920  0.66760  0.58950  Biso   1.000  H
  H118     1.0000 0.79080  0.66760  0.91050  Biso   1.000  H
  H119     1.0000 0.70920  0.16760  0.58950  Biso   1.000  H
  H120     1.0000 0.29080  0.16760  0.91050  Biso   1.000  H
  H121     1.0000 0.76860  0.20870  0.38560  Biso   1.000  H
  H122     1.0000 0.23140  0.20870  0.11440  Biso   1.000  H
  H123     1.0000 0.26860  0.70870  0.38560  Biso   1.000  H
  H124     1.0000 0.73140  0.70870  0.11440  Biso   1.000  H
  H125     1.0000 0.23140  0.79130  0.61440  Biso   1.000  H
  H126     1.0000 0.76860  0.79130  0.88560  Biso   1.000  H
  H127     1.0000 0.73140  0.29130  0.61440  Biso   1.000  H
  H128     1.0000 0.26860  0.29130  0.88560  Biso   1.000  H
  C225     1.0000 0.83910  0.11040  0.37220  Biso   1.000  C
  C226     1.0000 0.16090  0.11040  0.12780  Biso   1.000  C
  C227     1.0000 0.33910  0.61040  0.37220  Biso   1.000  C
  C228     1.0000 0.66090  0.61040  0.12780  Biso   1.000  C
  C229     1.0000 0.16090  0.88960  0.62780  Biso   1.000  C
  C230     1.0000 0.83910  0.88960  0.87220  Biso   1.000  C
  C231     1.0000 0.66090  0.38960  0.62780  Biso   1.000  C
  C232     1.0000 0.33910  0.38960  0.87220  Biso   1.000  C
  H129     1.0000 0.82800  0.13610  0.32760  Biso   1.000  H
  H130     1.0000 0.17200  0.13610  0.17240  Biso   1.000  H
  H131     1.0000 0.32800  0.63610  0.32760  Biso   1.000  H
  H132     1.0000 0.67200  0.63610  0.17240  Biso   1.000  H
  H133     1.0000 0.17200  0.86390  0.67240  Biso   1.000  H
  H134     1.0000 0.82800  0.86390  0.82760  Biso   1.000  H
  H135     1.0000 0.67200  0.36390  0.67240  Biso   1.000  H
  H136     1.0000 0.32800  0.36390  0.82760  Biso   1.000  H
  H137     1.0000 0.81950  0.04870  0.37240  Biso   1.000  H
  H138     1.0000 0.18050  0.04870  0.12760  Biso   1.000  H
  H139     1.0000 0.31950  0.54870  0.37240  Biso   1.000  H
  H140     1.0000 0.68050  0.54870  0.12760  Biso   1.000  H
  H141     1.0000 0.18050  0.95130  0.62760  Biso   1.000  H
  H142     1.0000 0.81950  0.95130  0.87240  Biso   1.000  H
  H143     1.0000 0.68050  0.45130  0.62760  Biso   1.000  H
  H144     1.0000 0.31950  0.45130  0.87240  Biso   1.000  H
  H145     1.0000 0.87060  0.08230  0.39050  Biso   1.000  H
  H146     1.0000 0.12940  0.08230  0.10950  Biso   1.000  H
  H147     1.0000 0.37060  0.58230  0.39050  Biso   1.000  H
  H148     1.0000 0.62940  0.58230  0.10950  Biso   1.000  H
  H149     1.0000 0.12940  0.91770  0.60950  Biso   1.000  H
  H150     1.0000 0.87060  0.91770  0.89050  Biso   1.000  H
  H151     1.0000 0.62940  0.41770  0.60950  Biso   1.000  H
  H152     1.0000 0.37060  0.41770  0.89050  Biso   1.000  H
  F1       1.0000 0.99360  0.78520  0.48550  Biso   1.000  F
  F2       1.0000 0.00640  0.78520  0.01450  Biso   1.000  F
  F3       1.0000 0.49360  0.28520  0.48550  Biso   1.000  F
  F4       1.0000 0.50640  0.28520  0.01450  Biso   1.000  F
  F5       1.0000 0.00640  0.21480  0.51450  Biso   1.000  F
  F6       1.0000 0.99360  0.21480  0.98550  Biso   1.000  F
  F7       1.0000 0.50640  0.71480  0.51450  Biso   1.000  F
  F8       1.0000 0.49360  0.71480  0.98550  Biso   1.000  F
  F9       1.0000 0.93060  0.89400  0.42260  Biso   1.000  F
  F10      1.0000 0.06940  0.89400  0.07740  Biso   1.000  F
  F11      1.0000 0.43060  0.39400  0.42260  Biso   1.000  F
  F12      1.0000 0.56940  0.39400  0.07740  Biso   1.000  F
  F13      1.0000 0.06940  0.10600  0.57740  Biso   1.000  F
  F14      1.0000 0.93060  0.10600  0.92260  Biso   1.000  F
  F15      1.0000 0.56940  0.60600  0.57740  Biso   1.000  F
  F16      1.0000 0.43060  0.60600  0.92260  Biso   1.000  F
  F17      1.0000 0.96030  0.77860  0.38880  Biso   1.000  F
  F18      1.0000 0.03970  0.77860  0.11120  Biso   1.000  F
  F19      1.0000 0.46030  0.27860  0.38880  Biso   1.000  F
  F20      1.0000 0.53970  0.27860  0.11120  Biso   1.000  F
  F21      1.0000 0.03970  0.22140  0.61120  Biso   1.000  F
  F22      1.0000 0.96030  0.22140  0.88880  Biso   1.000  F
  F23      1.0000 0.53970  0.72140  0.61120  Biso   1.000  F
  F24      1.0000 0.46030  0.72140  0.88880  Biso   1.000  F
  F25      1.0000 0.76150  0.55840  0.30300  Biso   1.000  F
  F26      1.0000 0.23850  0.55840  0.19700  Biso   1.000  F
  F27      1.0000 0.26150  0.05840  0.30300  Biso   1.000  F
  F28      1.0000 0.73850  0.05840  0.19700  Biso   1.000  F
  F29      1.0000 0.23850  0.44160  0.69700  Biso   1.000  F
  F30      1.0000 0.76150  0.44160  0.80300  Biso   1.000  F
  F31      1.0000 0.73850  0.94160  0.69700  Biso   1.000  F
  F32      1.0000 0.26150  0.94160  0.80300  Biso   1.000  F
  F33      1.0000 0.77850  0.74030  0.29600  Biso   1.000  F
  F34      1.0000 0.22150  0.74030  0.20400  Biso   1.000  F
  F35      1.0000 0.27850  0.24030  0.29600  Biso   1.000  F
  F36      1.0000 0.72150  0.24030  0.20400  Biso   1.000  F
  F37      1.0000 0.22150  0.25970  0.70400  Biso   1.000  F
  F38      1.0000 0.77850  0.25970  0.79600  Biso   1.000  F
  F39      1.0000 0.72150  0.75970  0.70400  Biso   1.000  F
  F40      1.0000 0.27850  0.75970  0.79600  Biso   1.000  F
  F41      1.0000 0.76140  0.69620  0.37370  Biso   1.000  F
  F42      1.0000 0.23860  0.69620  0.12630  Biso   1.000  F
  F43      1.0000 0.26140  0.19620  0.37370  Biso   1.000  F
  F44      1.0000 0.73860  0.19620  0.12630  Biso   1.000  F
  F45      1.0000 0.23860  0.30380  0.62630  Biso   1.000  F
  F46      1.0000 0.76140  0.30380  0.87370  Biso   1.000  F
  F47      1.0000 0.73860  0.80380  0.62630  Biso   1.000  F
  F48      1.0000 0.26140  0.80380  0.87370  Biso   1.000  F
  F49      1.0000 0.75660  0.38770  0.50930  Biso   1.000  F
  F50      1.0000 0.24340  0.38770  0.99070  Biso   1.000  F
  F51      1.0000 0.25660  0.88770  0.50930  Biso   1.000  F
  F52      1.0000 0.74340  0.88770  0.99070  Biso   1.000  F
  F53      1.0000 0.24340  0.61230  0.49070  Biso   1.000  F
  F54      1.0000 0.75660  0.61230  0.00930  Biso   1.000  F
  F55      1.0000 0.74340  0.11230  0.49070  Biso   1.000  F
  F56      1.0000 0.25660  0.11230  0.00930  Biso   1.000  F
  F57      1.0000 0.79430  0.42360  0.61290  Biso   1.000  F
  F58      1.0000 0.20570  0.42360  0.88710  Biso   1.000  F
  F59      1.0000 0.29430  0.92360  0.61290  Biso   1.000  F
  F60      1.0000 0.70570  0.92360  0.88710  Biso   1.000  F
  F61      1.0000 0.20570  0.57640  0.38710  Biso   1.000  F
  F62      1.0000 0.79430  0.57640  0.11290  Biso   1.000  F
  F63      1.0000 0.70570  0.07640  0.38710  Biso   1.000  F
  F64      1.0000 0.29430  0.07640  0.11290  Biso   1.000  F
  F65      1.0000 0.74870  0.53820  0.54790  Biso   1.000  F
  F66      1.0000 0.25130  0.53820  0.95210  Biso   1.000  F
  F67      1.0000 0.24870  0.03820  0.54790  Biso   1.000  F
  F68      1.0000 0.75130  0.03820  0.95210  Biso   1.000  F
  F69      1.0000 0.25130  0.46180  0.45210  Biso   1.000  F
  F70      1.0000 0.74870  0.46180  0.04790  Biso   1.000  F
  F71      1.0000 0.75130  0.96180  0.45210  Biso   1.000  F
  F72      1.0000 0.24870  0.96180  0.04790  Biso   1.000  F
  F73      1.0000 0.88080  0.88500  0.54340  Biso   1.000  F
  F74      1.0000 0.11920  0.88500  0.95660  Biso   1.000  F
  F75      1.0000 0.38080  0.38500  0.54340  Biso   1.000  F
  F76      1.0000 0.61920  0.38500  0.95660  Biso   1.000  F
  F77      1.0000 0.11920  0.11500  0.45660  Biso   1.000  F
  F78      1.0000 0.88080  0.11500  0.04340  Biso   1.000  F
  F79      1.0000 0.61920  0.61500  0.45660  Biso   1.000  F
  F80      1.0000 0.38080  0.61500  0.04340  Biso   1.000  F
  F81      1.0000 0.90870  0.82410  0.64500  Biso   1.000  F
  F82      1.0000 0.09130  0.82410  0.85500  Biso   1.000  F
  F83      1.0000 0.40870  0.32410  0.64500  Biso   1.000  F
  F84      1.0000 0.59130  0.32410  0.85500  Biso   1.000  F
  F85      1.0000 0.09130  0.17590  0.35500  Biso   1.000  F
  F86      1.0000 0.90870  0.17590  0.14500  Biso   1.000  F
  F87      1.0000 0.59130  0.67590  0.35500  Biso   1.000  F
  F88      1.0000 0.40870  0.67590  0.14500  Biso   1.000  F
  F89      1.0000 0.82850  0.86920  0.56140  Biso   1.000  F
  F90      1.0000 0.17150  0.86920  0.93860  Biso   1.000  F
  F91      1.0000 0.32850  0.36920  0.56140  Biso   1.000  F
  F92      1.0000 0.67150  0.36920  0.93860  Biso   1.000  F
  F93      1.0000 0.17150  0.13080  0.43860  Biso   1.000  F
  F94      1.0000 0.82850  0.13080  0.06140  Biso   1.000  F
  F95      1.0000 0.67150  0.63080  0.43860  Biso   1.000  F
  F96      1.0000 0.32850  0.63080  0.06140  Biso   1.000  F
  F97      1.0000 0.15430  0.85780  0.38950  Biso   1.000  F
  F98      1.0000 0.84570  0.85780  0.11050  Biso   1.000  F
  F99      1.0000 0.65430  0.35780  0.38950  Biso   1.000  F
  F100     1.0000 0.34570  0.35780  0.11050  Biso   1.000  F
  F101     1.0000 0.84570  0.14220  0.61050  Biso   1.000  F
  F102     1.0000 0.15430  0.14220  0.88950  Biso   1.000  F
  F103     1.0000 0.34570  0.64220  0.61050  Biso   1.000  F
  F104     1.0000 0.65430  0.64220  0.88950  Biso   1.000  F
  F105     1.0000 0.15220  0.75770  0.29680  Biso   1.000  F
  F106     1.0000 0.84780  0.75770  0.20320  Biso   1.000  F
  F107     1.0000 0.65220  0.25770  0.29680  Biso   1.000  F
  F108     1.0000 0.34780  0.25770  0.20320  Biso   1.000  F
  F109     1.0000 0.84780  0.24230  0.70320  Biso   1.000  F
  F110     1.0000 0.15220  0.24230  0.79680  Biso   1.000  F
  F111     1.0000 0.34780  0.74230  0.70320  Biso   1.000  F
  F112     1.0000 0.65220  0.74230  0.79680  Biso   1.000  F
  F113     1.0000 0.17290  0.94100  0.33380  Biso   1.000  F
  F114     1.0000 0.82710  0.94100  0.16620  Biso   1.000  F
  F115     1.0000 0.67290  0.44100  0.33380  Biso   1.000  F
  F116     1.0000 0.32710  0.44100  0.16620  Biso   1.000  F
  F117     1.0000 0.82710  0.05900  0.66620  Biso   1.000  F
  F118     1.0000 0.17290  0.05900  0.83380  Biso   1.000  F
  F119     1.0000 0.32710  0.55900  0.66620  Biso   1.000  F
  F120     1.0000 0.67290  0.55900  0.83380  Biso   1.000  F
  F121     1.0000 0.16350  0.98000  0.31110  Biso   1.000  F
  F122     1.0000 0.83650  0.98000  0.18890  Biso   1.000  F
  F123     1.0000 0.66350  0.48000  0.31110  Biso   1.000  F
  F124     1.0000 0.33650  0.48000  0.18890  Biso   1.000  F
  F125     1.0000 0.83650  0.02000  0.68890  Biso   1.000  F
  F126     1.0000 0.16350  0.02000  0.81110  Biso   1.000  F
  F127     1.0000 0.33650  0.52000  0.68890  Biso   1.000  F
  F128     1.0000 0.66350  0.52000  0.81110  Biso   1.000  F
  F129     1.0000 0.15860  0.81300  0.29010  Biso   1.000  F
  F130     1.0000 0.84140  0.81300  0.20990  Biso   1.000  F
  F131     1.0000 0.65860  0.31300  0.29010  Biso   1.000  F
  F132     1.0000 0.34140  0.31300  0.20990  Biso   1.000  F
  F133     1.0000 0.84140  0.18700  0.70990  Biso   1.000  F
  F134     1.0000 0.15860  0.18700  0.79010  Biso   1.000  F
  F135     1.0000 0.34140  0.68700  0.70990  Biso   1.000  F
  F136     1.0000 0.65860  0.68700  0.79010  Biso   1.000  F
  F137     1.0000 0.16010  0.87200  0.37430  Biso   1.000  F
  F138     1.0000 0.83990  0.87200  0.12570  Biso   1.000  F
  F139     1.0000 0.66010  0.37200  0.37430  Biso   1.000  F
  F140     1.0000 0.33990  0.37200  0.12570  Biso   1.000  F
  F141     1.0000 0.83990  0.12800  0.62570  Biso   1.000  F
  F142     1.0000 0.16010  0.12800  0.87430  Biso   1.000  F
  F143     1.0000 0.33990  0.62800  0.62570  Biso   1.000  F
  F144     1.0000 0.66010  0.62800  0.87430  Biso   1.000  F
  F145     1.0000 0.17150  0.90810  0.30430  Biso   1.000  F
  F146     1.0000 0.82850  0.90810  0.19570  Biso   1.000  F
  F147     1.0000 0.67150  0.40810  0.30430  Biso   1.000  F
  F148     1.0000 0.32850  0.40810  0.19570  Biso   1.000  F
  F149     1.0000 0.82850  0.09190  0.69570  Biso   1.000  F
  F150     1.0000 0.17150  0.09190  0.80430  Biso   1.000  F
  F151     1.0000 0.32850  0.59190  0.69570  Biso   1.000  F
  F152     1.0000 0.67150  0.59190  0.80430  Biso   1.000  F
  F153     1.0000 0.16050  0.80200  0.38300  Biso   1.000  F
  F154     1.0000 0.83950  0.80200  0.11700  Biso   1.000  F
  F155     1.0000 0.66050  0.30200  0.38300  Biso   1.000  F
  F156     1.0000 0.33950  0.30200  0.11700  Biso   1.000  F
  F157     1.0000 0.83950  0.19800  0.61700  Biso   1.000  F
  F158     1.0000 0.16050  0.19800  0.88300  Biso   1.000  F
  F159     1.0000 0.33950  0.69800  0.61700  Biso   1.000  F
  F160     1.0000 0.66050  0.69800  0.88300  Biso   1.000  F
  F161     1.0000 0.15250  0.73600  0.32310  Biso   1.000  F
  F162     1.0000 0.84750  0.73600  0.17690  Biso   1.000  F
  F163     1.0000 0.65250  0.23600  0.32310  Biso   1.000  F
  F164     1.0000 0.34750  0.23600  0.17690  Biso   1.000  F
  F165     1.0000 0.84750  0.26400  0.67690  Biso   1.000  F
  F166     1.0000 0.15250  0.26400  0.82310  Biso   1.000  F
  F167     1.0000 0.34750  0.76400  0.67690  Biso   1.000  F
  F168     1.0000 0.65250  0.76400  0.82310  Biso   1.000  F
  F169     1.0000 0.05930  0.15470  0.15400  Biso   1.000  F
  F170     1.0000 0.94070  0.15470  0.34600  Biso   1.000  F
  F171     1.0000 0.55930  0.65470  0.15400  Biso   1.000  F
  F172     1.0000 0.44070  0.65470  0.34600  Biso   1.000  F
  F173     1.0000 0.94070  0.84530  0.84600  Biso   1.000  F
  F174     1.0000 0.05930  0.84530  0.65400  Biso   1.000  F
  F175     1.0000 0.44070  0.34530  0.84600  Biso   1.000  F
  F176     1.0000 0.55930  0.34530  0.65400  Biso   1.000  F
  F177     1.0000 0.98540  0.06150  0.08490  Biso   1.000  F
  F178     1.0000 0.01460  0.06150  0.41510  Biso   1.000  F
  F179     1.0000 0.48540  0.56150  0.08490  Biso   1.000  F
  F180     1.0000 0.51460  0.56150  0.41510  Biso   1.000  F
  F181     1.0000 0.01460  0.93850  0.91510  Biso   1.000  F
  F182     1.0000 0.98540  0.93850  0.58490  Biso   1.000  F
  F183     1.0000 0.51460  0.43850  0.91510  Biso   1.000  F
  F184     1.0000 0.48540  0.43850  0.58490  Biso   1.000  F
  F185     1.0000 0.99980  0.18640  0.15770  Biso   1.000  F
  F186     1.0000 0.00020  0.18640  0.34230  Biso   1.000  F
  F187     1.0000 0.49980  0.68640  0.15770  Biso   1.000  F
  F188     1.0000 0.50020  0.68640  0.34230  Biso   1.000  F
  F189     1.0000 0.00020  0.81360  0.84230  Biso   1.000  F
  F190     1.0000 0.99980  0.81360  0.65770  Biso   1.000  F
  F191     1.0000 0.50020  0.31360  0.84230  Biso   1.000  F
  F192     1.0000 0.49980  0.31360  0.65770  Biso   1.000  F
  F193     1.0000 0.98990  0.24990  0.94840  Biso   1.000  F
  F194     1.0000 0.01010  0.24990  0.55160  Biso   1.000  F
  F195     1.0000 0.48990  0.74990  0.94840  Biso   1.000  F
  F196     1.0000 0.51010  0.74990  0.55160  Biso   1.000  F
  F197     1.0000 0.01010  0.75010  0.05160  Biso   1.000  F
  F198     1.0000 0.98990  0.75010  0.44840  Biso   1.000  F
  F199     1.0000 0.51010  0.25010  0.05160  Biso   1.000  F
  F200     1.0000 0.48990  0.25010  0.44840  Biso   1.000  F
  F201     1.0000 0.84280  0.12200  0.01290  Biso   1.000  F
  F202     1.0000 0.15720  0.12200  0.48710  Biso   1.000  F
  F203     1.0000 0.34280  0.62200  0.01290  Biso   1.000  F
  F204     1.0000 0.65720  0.62200  0.48710  Biso   1.000  F
  F205     1.0000 0.15720  0.87800  0.98710  Biso   1.000  F
  F206     1.0000 0.84280  0.87800  0.51290  Biso   1.000  F
  F207     1.0000 0.65720  0.37800  0.98710  Biso   1.000  F
  F208     1.0000 0.34280  0.37800  0.51290  Biso   1.000  F
  F209     1.0000 0.84180  0.14480  0.10560  Biso   1.000  F
  F210     1.0000 0.15820  0.14480  0.39440  Biso   1.000  F
  F211     1.0000 0.34180  0.64480  0.10560  Biso   1.000  F
  F212     1.0000 0.65820  0.64480  0.39440  Biso   1.000  F
  F213     1.0000 0.15820  0.85520  0.89440  Biso   1.000  F
  F214     1.0000 0.84180  0.85520  0.60560  Biso   1.000  F
  F215     1.0000 0.65820  0.35520  0.89440  Biso   1.000  F
  F216     1.0000 0.34180  0.35520  0.60560  Biso   1.000  F
  F217     1.0000 0.89960  0.13100  0.10530  Biso   1.000  F
  F218     1.0000 0.10040  0.13100  0.39470  Biso   1.000  F
  F219     1.0000 0.39960  0.63100  0.10530  Biso   1.000  F
  F220     1.0000 0.60040  0.63100  0.39470  Biso   1.000  F
  F221     1.0000 0.10040  0.86900  0.89470  Biso   1.000  F
  F222     1.0000 0.89960  0.86900  0.60530  Biso   1.000  F
  F223     1.0000 0.60040  0.36900  0.89470  Biso   1.000  F
  F224     1.0000 0.39960  0.36900  0.60530  Biso   1.000  F
  F225     1.0000 0.97650  0.20900  0.30920  Biso   1.000  F
  F226     1.0000 0.02350  0.20900  0.19080  Biso   1.000  F
  F227     1.0000 0.47650  0.70900  0.30920  Biso   1.000  F
  F228     1.0000 0.52350  0.70900  0.19080  Biso   1.000  F
  F229     1.0000 0.02350  0.79100  0.69080  Biso   1.000  F
  F230     1.0000 0.97650  0.79100  0.80920  Biso   1.000  F
  F231     1.0000 0.52350  0.29100  0.69080  Biso   1.000  F
  F232     1.0000 0.47650  0.29100  0.80920  Biso   1.000  F
  F233     1.0000 0.98330  0.12700  0.10720  Biso   1.000  F
  F234     1.0000 0.01670  0.12700  0.39280  Biso   1.000  F
  F235     1.0000 0.48330  0.62700  0.10720  Biso   1.000  F
  F236     1.0000 0.51670  0.62700  0.39280  Biso   1.000  F
  F237     1.0000 0.01670  0.87300  0.89280  Biso   1.000  F
  F238     1.0000 0.98330  0.87300  0.60720  Biso   1.000  F
  F239     1.0000 0.51670  0.37300  0.89280  Biso   1.000  F
  F240     1.0000 0.48330  0.37300  0.60720  Biso   1.000  F
  F241     1.0000 0.95270  0.11580  0.37910  Biso   1.000  F
  F242     1.0000 0.04730  0.11580  0.12090  Biso   1.000  F
  F243     1.0000 0.45270  0.61580  0.37910  Biso   1.000  F
  F244     1.0000 0.54730  0.61580  0.12090  Biso   1.000  F
  F245     1.0000 0.04730  0.88420  0.62090  Biso   1.000  F
  F246     1.0000 0.95270  0.88420  0.87910  Biso   1.000  F
  F247     1.0000 0.54730  0.38420  0.62090  Biso   1.000  F
  F248     1.0000 0.45270  0.38420  0.87910  Biso   1.000  F
  F249     1.0000 0.94660  0.11490  0.95740  Biso   1.000  F
  F250     1.0000 0.05340  0.11490  0.54260  Biso   1.000  F
  F251     1.0000 0.44660  0.61490  0.95740  Biso   1.000  F
  F252     1.0000 0.55340  0.61490  0.54260  Biso   1.000  F
  F253     1.0000 0.05340  0.88510  0.04260  Biso   1.000  F
  F254     1.0000 0.94660  0.88510  0.45740  Biso   1.000  F
  F255     1.0000 0.55340  0.38510  0.04260  Biso   1.000  F
  F256     1.0000 0.44660  0.38510  0.45740  Biso   1.000  F
  F257     1.0000 0.93490  0.19940  0.86430  Biso   1.000  F
  F258     1.0000 0.06510  0.19940  0.63570  Biso   1.000  F
  F259     1.0000 0.43490  0.69940  0.86430  Biso   1.000  F
  F260     1.0000 0.56510  0.69940  0.63570  Biso   1.000  F
  F261     1.0000 0.06510  0.80060  0.13570  Biso   1.000  F
  F262     1.0000 0.93490  0.80060  0.36430  Biso   1.000  F
  F263     1.0000 0.56510  0.30060  0.13570  Biso   1.000  F
  F264     1.0000 0.43490  0.30060  0.36430  Biso   1.000  F
  F265     1.0000 0.77370  0.23400  0.83360  Biso   1.000  F
  F266     1.0000 0.22630  0.23400  0.66640  Biso   1.000  F
  F267     1.0000 0.27370  0.73400  0.83360  Biso   1.000  F
  F268     1.0000 0.72630  0.73400  0.66640  Biso   1.000  F
  F269     1.0000 0.22630  0.76600  0.16640  Biso   1.000  F
  F270     1.0000 0.77370  0.76600  0.33360  Biso   1.000  F
  F271     1.0000 0.72630  0.26600  0.16640  Biso   1.000  F
  F272     1.0000 0.27370  0.26600  0.33360  Biso   1.000  F
  F273     1.0000 0.75330  0.38200  0.84780  Biso   1.000  F
  F274     1.0000 0.24670  0.38200  0.65220  Biso   1.000  F
  F275     1.0000 0.25330  0.88200  0.84780  Biso   1.000  F
  F276     1.0000 0.74670  0.88200  0.65220  Biso   1.000  F
  F277     1.0000 0.24670  0.61800  0.15220  Biso   1.000  F
  F278     1.0000 0.75330  0.61800  0.34780  Biso   1.000  F
  F279     1.0000 0.74670  0.11800  0.15220  Biso   1.000  F
  F280     1.0000 0.25330  0.11800  0.34780  Biso   1.000  F
  F281     1.0000 0.77540  0.37100  0.78620  Biso   1.000  F
  F282     1.0000 0.22460  0.37100  0.71380  Biso   1.000  F
  F283     1.0000 0.27540  0.87100  0.78620  Biso   1.000  F
  F284     1.0000 0.72460  0.87100  0.71380  Biso   1.000  F
  F285     1.0000 0.22460  0.62900  0.21380  Biso   1.000  F
  F286     1.0000 0.77540  0.62900  0.28620  Biso   1.000  F
  F287     1.0000 0.72460  0.12900  0.21380  Biso   1.000  F
  F288     1.0000 0.27540  0.12900  0.28620  Biso   1.000  F
  F289     1.0000 0.74020  0.51960  0.98770  Biso   1.000  F
  F290     1.0000 0.25980  0.51960  0.51230  Biso   1.000  F
  F291     1.0000 0.24020  0.01960  0.98770  Biso   1.000  F
  F292     1.0000 0.75980  0.01960  0.51230  Biso   1.000  F
  F293     1.0000 0.25980  0.48040  0.01230  Biso   1.000  F
  F294     1.0000 0.74020  0.48040  0.48770  Biso   1.000  F
  F295     1.0000 0.75980  0.98040  0.01230  Biso   1.000  F
  F296     1.0000 0.24020  0.98040  0.48770  Biso   1.000  F
  F297     1.0000 0.77560  0.66190  0.04400  Biso   1.000  F
  F298     1.0000 0.22440  0.66190  0.45600  Biso   1.000  F
  F299     1.0000 0.27560  0.16190  0.04400  Biso   1.000  F
  F300     1.0000 0.72440  0.16190  0.45600  Biso   1.000  F
  F301     1.0000 0.22440  0.33810  0.95600  Biso   1.000  F
  F302     1.0000 0.77560  0.33810  0.54400  Biso   1.000  F
  F303     1.0000 0.72440  0.83810  0.95600  Biso   1.000  F
  F304     1.0000 0.27560  0.83810  0.54400  Biso   1.000  F
  F305     1.0000 0.76580  0.50410  0.08700  Biso   1.000  F
  F306     1.0000 0.23420  0.50410  0.41300  Biso   1.000  F
  F307     1.0000 0.26580  0.00410  0.08700  Biso   1.000  F
  F308     1.0000 0.73420  0.00410  0.41300  Biso   1.000  F
  F309     1.0000 0.23420  0.49590  0.91300  Biso   1.000  F
  F310     1.0000 0.76580  0.49590  0.58700  Biso   1.000  F
  F311     1.0000 0.73420  0.99590  0.91300  Biso   1.000  F
  F312     1.0000 0.26580  0.99590  0.58700  Biso   1.000  F
