data_image0
_cell_length_a       19.6467
_cell_length_b       17.4396
_cell_length_c       22.7491
_cell_angle_alpha    90
_cell_angle_beta     90
_cell_angle_gamma    90

_symmetry_space_group_name_H-M    "P 1"
_symmetry_int_tables_number       1

loop_
  _symmetry_equiv_pos_as_xyz
  'x, y, z'

loop_
  _atom_site_label
  _atom_site_occupancy
  _atom_site_fract_x
  _atom_site_fract_y
  _atom_site_fract_z
  _atom_site_thermal_displace_type
  _atom_site_B_iso_or_equiv
  _atom_site_type_symbol
  Cu1      1.0000 0.10023  0.15600  0.22906  Biso   1.000  Cu
  Cu2      1.0000 0.39977  0.84400  0.72906  Biso   1.000  Cu
  Cu3      1.0000 0.89977  0.65600  0.27094  Biso   1.000  Cu
  Cu4      1.0000 0.60023  0.34400  0.77094  Biso   1.000  Cu
  Cu5      1.0000 0.89977  0.84400  0.77094  Biso   1.000  Cu
  Cu6      1.0000 0.60023  0.15600  0.27094  Biso   1.000  Cu
  Cu7      1.0000 0.10023  0.34400  0.72906  Biso   1.000  Cu
  Cu8      1.0000 0.39977  0.65600  0.22906  Biso   1.000  Cu
  Cu9      1.0000 0.50000  0.00000  0.50000  Biso   1.000  Cu
  Cu10     1.0000 0.00000  0.00000  0.00000  Biso   1.000  Cu
  Cu11     1.0000 0.50000  0.50000  0.00000  Biso   1.000  Cu
  Cu12     1.0000 0.00000  0.50000  0.50000  Biso   1.000  Cu
  O1       1.0000 0.02780  0.22130  0.27380  Biso   1.000  O
  O2       1.0000 0.47220  0.77870  0.77380  Biso   1.000  O
  O3       1.0000 0.97220  0.72130  0.22620  Biso   1.000  O
  O4       1.0000 0.52780  0.27870  0.72620  Biso   1.000  O
  O5       1.0000 0.97220  0.77870  0.72620  Biso   1.000  O
  O6       1.0000 0.52780  0.22130  0.22620  Biso   1.000  O
  O7       1.0000 0.02780  0.27870  0.77380  Biso   1.000  O
  O8       1.0000 0.47220  0.72130  0.27380  Biso   1.000  O
  O9       1.0000 0.10740  0.24460  0.17090  Biso   1.000  O
  O10      1.0000 0.39260  0.75540  0.67090  Biso   1.000  O
  O11      1.0000 0.89260  0.74460  0.32910  Biso   1.000  O
  O12      1.0000 0.60740  0.25540  0.82910  Biso   1.000  O
  O13      1.0000 0.89260  0.75540  0.82910  Biso   1.000  O
  O14      1.0000 0.60740  0.24460  0.32910  Biso   1.000  O
  O15      1.0000 0.10740  0.25540  0.67090  Biso   1.000  O
  O16      1.0000 0.39260  0.74460  0.17090  Biso   1.000  O
  O17      1.0000 0.18010  0.19610  0.27520  Biso   1.000  O
  O18      1.0000 0.31990  0.80390  0.77520  Biso   1.000  O
  O19      1.0000 0.81990  0.69610  0.22480  Biso   1.000  O
  O20      1.0000 0.68010  0.30390  0.72480  Biso   1.000  O
  O21      1.0000 0.81990  0.80390  0.72480  Biso   1.000  O
  O22      1.0000 0.68010  0.19610  0.22480  Biso   1.000  O
  O23      1.0000 0.18010  0.30390  0.77520  Biso   1.000  O
  O24      1.0000 0.31990  0.69610  0.27520  Biso   1.000  O
  O25      1.0000 0.08970  0.07140  0.29210  Biso   1.000  O
  O26      1.0000 0.41030  0.92860  0.79210  Biso   1.000  O
  O27      1.0000 0.91030  0.57140  0.20790  Biso   1.000  O
  O28      1.0000 0.58970  0.42860  0.70790  Biso   1.000  O
  O29      1.0000 0.91030  0.92860  0.70790  Biso   1.000  O
  O30      1.0000 0.58970  0.07140  0.20790  Biso   1.000  O
  O31      1.0000 0.08970  0.42860  0.79210  Biso   1.000  O
  O32      1.0000 0.41030  0.57140  0.29210  Biso   1.000  O
  O33      1.0000 0.52950  0.10530  0.51660  Biso   1.000  O
  O34      1.0000 0.97050  0.89470  0.01660  Biso   1.000  O
  O35      1.0000 0.47050  0.60530  0.98340  Biso   1.000  O
  O36      1.0000 0.02950  0.39470  0.48340  Biso   1.000  O
  O37      1.0000 0.47050  0.89470  0.48340  Biso   1.000  O
  O38      1.0000 0.02950  0.10530  0.98340  Biso   1.000  O
  O39      1.0000 0.52950  0.39470  0.01660  Biso   1.000  O
  O40      1.0000 0.97050  0.60530  0.51660  Biso   1.000  O
  O41      1.0000 0.40580  0.02430  0.51789  Biso   1.000  O
  O42      1.0000 0.09420  0.97570  0.01789  Biso   1.000  O
  O43      1.0000 0.59420  0.52430  0.98211  Biso   1.000  O
  O44      1.0000 0.90580  0.47570  0.48211  Biso   1.000  O
  O45      1.0000 0.59420  0.97570  0.48211  Biso   1.000  O
  O46      1.0000 0.90580  0.02430  0.98211  Biso   1.000  O
  O47      1.0000 0.40580  0.47570  0.01789  Biso   1.000  O
  O48      1.0000 0.09420  0.52430  0.51789  Biso   1.000  O
  O49      1.0000 0.16417  0.09230  0.17112  Biso   1.000  O
  O50      1.0000 0.33583  0.90770  0.67112  Biso   1.000  O
  O51      1.0000 0.83583  0.59230  0.32888  Biso   1.000  O
  O52      1.0000 0.66417  0.40770  0.82888  Biso   1.000  O
  O53      1.0000 0.83583  0.90770  0.82888  Biso   1.000  O
  O54      1.0000 0.66417  0.09230  0.32888  Biso   1.000  O
  O55      1.0000 0.16417  0.40770  0.67112  Biso   1.000  O
  O56      1.0000 0.33583  0.59230  0.17112  Biso   1.000  O
  N1       1.0000 0.52080  0.09860  0.31600  Biso   1.000  N
  N2       1.0000 0.97920  0.90140  0.81600  Biso   1.000  N
  N3       1.0000 0.47920  0.59860  0.18400  Biso   1.000  N
  N4       1.0000 0.02080  0.40140  0.68400  Biso   1.000  N
  N5       1.0000 0.47920  0.90140  0.68400  Biso   1.000  N
  N6       1.0000 0.02080  0.09860  0.18400  Biso   1.000  N
  N7       1.0000 0.52080  0.40140  0.81600  Biso   1.000  N
  N8       1.0000 0.97920  0.59860  0.31600  Biso   1.000  N
  N9       1.0000 0.48030  0.03890  0.40178  Biso   1.000  N
  N10      1.0000 0.01970  0.96110  0.90178  Biso   1.000  N
  N11      1.0000 0.51970  0.53890  0.09822  Biso   1.000  N
  N12      1.0000 0.98030  0.46110  0.59822  Biso   1.000  N
  N13      1.0000 0.51970  0.96110  0.59822  Biso   1.000  N
  N14      1.0000 0.98030  0.03890  0.09822  Biso   1.000  N
  N15      1.0000 0.48030  0.46110  0.90178  Biso   1.000  N
  N16      1.0000 0.01970  0.53890  0.40178  Biso   1.000  N
  N17      1.0000 0.22970  0.09330  0.17180  Biso   1.000  N
  N18      1.0000 0.27030  0.90670  0.67180  Biso   1.000  N
  N19      1.0000 0.77030  0.59330  0.32820  Biso   1.000  N
  N20      1.0000 0.72970  0.40670  0.82820  Biso   1.000  N
  N21      1.0000 0.77030  0.90670  0.82820  Biso   1.000  N
  N22      1.0000 0.72970  0.09330  0.32820  Biso   1.000  N
  N23      1.0000 0.22970  0.40670  0.67180  Biso   1.000  N
  N24      1.0000 0.27030  0.59330  0.17180  Biso   1.000  N
  C1       1.0000 0.95900  0.32710  0.30480  Biso   1.000  C
  C2       1.0000 0.54100  0.67290  0.80480  Biso   1.000  C
  C3       1.0000 0.04100  0.82710  0.19520  Biso   1.000  C
  C4       1.0000 0.45900  0.17290  0.69520  Biso   1.000  C
  C5       1.0000 0.04100  0.67290  0.69520  Biso   1.000  C
  C6       1.0000 0.45900  0.32710  0.19520  Biso   1.000  C
  C7       1.0000 0.95900  0.17290  0.80480  Biso   1.000  C
  C8       1.0000 0.54100  0.82710  0.30480  Biso   1.000  C
  F1       1.0000 0.89720  0.32570  0.27500  Biso   1.000  F
  F2       1.0000 0.60280  0.67430  0.77500  Biso   1.000  F
  F3       1.0000 0.10280  0.82570  0.22500  Biso   1.000  F
  F4       1.0000 0.39720  0.17430  0.72500  Biso   1.000  F
  F5       1.0000 0.10280  0.67430  0.72500  Biso   1.000  F
  F6       1.0000 0.39720  0.32570  0.22500  Biso   1.000  F
  F7       1.0000 0.89720  0.17430  0.77500  Biso   1.000  F
  F8       1.0000 0.60280  0.82570  0.27500  Biso   1.000  F
  F9       1.0000 0.94880  0.27870  0.34690  Biso   1.000  F
  F10      1.0000 0.55120  0.72130  0.84690  Biso   1.000  F
  F11      1.0000 0.05120  0.77870  0.15310  Biso   1.000  F
  F12      1.0000 0.44880  0.22130  0.65310  Biso   1.000  F
  F13      1.0000 0.05120  0.72130  0.65310  Biso   1.000  F
  F14      1.0000 0.44880  0.27870  0.15310  Biso   1.000  F
  F15      1.0000 0.94880  0.22130  0.84690  Biso   1.000  F
  F16      1.0000 0.55120  0.77870  0.34690  Biso   1.000  F
  F17      1.0000 0.96620  0.39440  0.31960  Biso   1.000  F
  F18      1.0000 0.53380  0.60560  0.81960  Biso   1.000  F
  F19      1.0000 0.03380  0.89440  0.18040  Biso   1.000  F
  F20      1.0000 0.46620  0.10560  0.68040  Biso   1.000  F
  F21      1.0000 0.03380  0.60560  0.68040  Biso   1.000  F
  F22      1.0000 0.46620  0.39440  0.18040  Biso   1.000  F
  F23      1.0000 0.96620  0.10560  0.81960  Biso   1.000  F
  F24      1.0000 0.53380  0.89440  0.31960  Biso   1.000  F
  C9       1.0000 0.01410  0.28830  0.26270  Biso   1.000  C
  C10      1.0000 0.48590  0.71170  0.76270  Biso   1.000  C
  C11      1.0000 0.98590  0.78830  0.23730  Biso   1.000  C
  C12      1.0000 0.51410  0.21170  0.73730  Biso   1.000  C
  C13      1.0000 0.98590  0.71170  0.73730  Biso   1.000  C
  C14      1.0000 0.51410  0.28830  0.23730  Biso   1.000  C
  C15      1.0000 0.01410  0.21170  0.76270  Biso   1.000  C
  C16      1.0000 0.48590  0.78830  0.26270  Biso   1.000  C
  C17      1.0000 0.03750  0.33420  0.21900  Biso   1.000  C
  C18      1.0000 0.46250  0.66580  0.71900  Biso   1.000  C
  C19      1.0000 0.96250  0.83420  0.28100  Biso   1.000  C
  C20      1.0000 0.53750  0.16580  0.78100  Biso   1.000  C
  C21      1.0000 0.96250  0.66580  0.78100  Biso   1.000  C
  C22      1.0000 0.53750  0.33420  0.28100  Biso   1.000  C
  C23      1.0000 0.03750  0.16580  0.71900  Biso   1.000  C
  C24      1.0000 0.46250  0.83420  0.21900  Biso   1.000  C
  H1       1.0000 0.02250  0.38470  0.21720  Biso   1.000  H
  H2       1.0000 0.47750  0.61530  0.71720  Biso   1.000  H
  H3       1.0000 0.97750  0.88470  0.28280  Biso   1.000  H
  H4       1.0000 0.52250  0.11530  0.78280  Biso   1.000  H
  H5       1.0000 0.97750  0.61530  0.78280  Biso   1.000  H
  H6       1.0000 0.52250  0.38470  0.28280  Biso   1.000  H
  H7       1.0000 0.02250  0.11530  0.71720  Biso   1.000  H
  H8       1.0000 0.47750  0.88470  0.21720  Biso   1.000  H
  C25      1.0000 0.08230  0.30890  0.17760  Biso   1.000  C
  C26      1.0000 0.41770  0.69110  0.67760  Biso   1.000  C
  C27      1.0000 0.91770  0.80890  0.32240  Biso   1.000  C
  C28      1.0000 0.58230  0.19110  0.82240  Biso   1.000  C
  C29      1.0000 0.91770  0.69110  0.82240  Biso   1.000  C
  C30      1.0000 0.58230  0.30890  0.32240  Biso   1.000  C
  C31      1.0000 0.08230  0.19110  0.67760  Biso   1.000  C
  C32      1.0000 0.41770  0.80890  0.17760  Biso   1.000  C
  C33      1.0000 0.10600  0.36800  0.13350  Biso   1.000  C
  C34      1.0000 0.39400  0.63200  0.63350  Biso   1.000  C
  C35      1.0000 0.89400  0.86800  0.36650  Biso   1.000  C
  C36      1.0000 0.60600  0.13200  0.86650  Biso   1.000  C
  C37      1.0000 0.89400  0.63200  0.86650  Biso   1.000  C
  C38      1.0000 0.60600  0.36800  0.36650  Biso   1.000  C
  C39      1.0000 0.10600  0.13200  0.63350  Biso   1.000  C
  C40      1.0000 0.39400  0.86800  0.13350  Biso   1.000  C
  F25      1.0000 0.11210  0.35180  0.08040  Biso   1.000  F
  F26      1.0000 0.38790  0.64820  0.58040  Biso   1.000  F
  F27      1.0000 0.88790  0.85180  0.41960  Biso   1.000  F
  F28      1.0000 0.61210  0.14820  0.91960  Biso   1.000  F
  F29      1.0000 0.88790  0.64820  0.91960  Biso   1.000  F
  F30      1.0000 0.61210  0.35180  0.41960  Biso   1.000  F
  F31      1.0000 0.11210  0.14820  0.58040  Biso   1.000  F
  F32      1.0000 0.38790  0.85180  0.08040  Biso   1.000  F
  F33      1.0000 0.17470  0.38290  0.14850  Biso   1.000  F
  F34      1.0000 0.32530  0.61710  0.64850  Biso   1.000  F
  F35      1.0000 0.82530  0.88290  0.35150  Biso   1.000  F
  F36      1.0000 0.67470  0.11710  0.85150  Biso   1.000  F
  F37      1.0000 0.82530  0.61710  0.85150  Biso   1.000  F
  F38      1.0000 0.67470  0.38290  0.35150  Biso   1.000  F
  F39      1.0000 0.17470  0.11710  0.64850  Biso   1.000  F
  F40      1.0000 0.32530  0.88290  0.14850  Biso   1.000  F
  F41      1.0000 0.08270  0.43720  0.14230  Biso   1.000  F
  F42      1.0000 0.41730  0.56280  0.64230  Biso   1.000  F
  F43      1.0000 0.91730  0.93720  0.35770  Biso   1.000  F
  F44      1.0000 0.58270  0.06280  0.85770  Biso   1.000  F
  F45      1.0000 0.91730  0.56280  0.85770  Biso   1.000  F
  F46      1.0000 0.58270  0.43720  0.35770  Biso   1.000  F
  F47      1.0000 0.08270  0.06280  0.64230  Biso   1.000  F
  F48      1.0000 0.41730  0.93720  0.14230  Biso   1.000  F
  C41      1.0000 0.25850  0.21810  0.34950  Biso   1.000  C
  C42      1.0000 0.24150  0.78190  0.84950  Biso   1.000  C
  C43      1.0000 0.74150  0.71810  0.15050  Biso   1.000  C
  C44      1.0000 0.75850  0.28190  0.65050  Biso   1.000  C
  C45      1.0000 0.74150  0.78190  0.65050  Biso   1.000  C
  C46      1.0000 0.75850  0.21810  0.15050  Biso   1.000  C
  C47      1.0000 0.25850  0.28190  0.84950  Biso   1.000  C
  C48      1.0000 0.24150  0.71810  0.34950  Biso   1.000  C
  C49      1.0000 0.19990  0.17290  0.32340  Biso   1.000  C
  C50      1.0000 0.30010  0.82710  0.82340  Biso   1.000  C
  C51      1.0000 0.80010  0.67290  0.17660  Biso   1.000  C
  C52      1.0000 0.69990  0.32710  0.67660  Biso   1.000  C
  C53      1.0000 0.80010  0.82710  0.67660  Biso   1.000  C
  C54      1.0000 0.69990  0.17290  0.17660  Biso   1.000  C
  C55      1.0000 0.19990  0.32710  0.82340  Biso   1.000  C
  C56      1.0000 0.30010  0.67290  0.32340  Biso   1.000  C
  C57      1.0000 0.17570  0.11370  0.35660  Biso   1.000  C
  C58      1.0000 0.32430  0.88630  0.85660  Biso   1.000  C
  C59      1.0000 0.82430  0.61370  0.14340  Biso   1.000  C
  C60      1.0000 0.67570  0.38630  0.64340  Biso   1.000  C
  C61      1.0000 0.82430  0.88630  0.64340  Biso   1.000  C
  C62      1.0000 0.67570  0.11370  0.14340  Biso   1.000  C
  C63      1.0000 0.17570  0.38630  0.85660  Biso   1.000  C
  C64      1.0000 0.32430  0.61370  0.35660  Biso   1.000  C
  H9       1.0000 0.19590  0.10370  0.39280  Biso   1.000  H
  H10      1.0000 0.30410  0.89630  0.89280  Biso   1.000  H
  H11      1.0000 0.80410  0.60370  0.10720  Biso   1.000  H
  H12      1.0000 0.69590  0.39630  0.60720  Biso   1.000  H
  H13      1.0000 0.80410  0.89630  0.60720  Biso   1.000  H
  H14      1.0000 0.69590  0.10370  0.10720  Biso   1.000  H
  H15      1.0000 0.19590  0.39630  0.89280  Biso   1.000  H
  H16      1.0000 0.30410  0.60370  0.39280  Biso   1.000  H
  C65      1.0000 0.12260  0.06860  0.33840  Biso   1.000  C
  C66      1.0000 0.37740  0.93140  0.83840  Biso   1.000  C
  C67      1.0000 0.87740  0.56860  0.16160  Biso   1.000  C
  C68      1.0000 0.62260  0.43140  0.66160  Biso   1.000  C
  C69      1.0000 0.87740  0.93140  0.66160  Biso   1.000  C
  C70      1.0000 0.62260  0.06860  0.16160  Biso   1.000  C
  C71      1.0000 0.12260  0.43140  0.83840  Biso   1.000  C
  C72      1.0000 0.37740  0.56860  0.33840  Biso   1.000  C
  C73      1.0000 0.09110  0.01600  0.38060  Biso   1.000  C
  C74      1.0000 0.40890  0.98400  0.88060  Biso   1.000  C
  C75      1.0000 0.90890  0.51600  0.11940  Biso   1.000  C
  C76      1.0000 0.59110  0.48400  0.61940  Biso   1.000  C
  C77      1.0000 0.90890  0.98400  0.61940  Biso   1.000  C
  C78      1.0000 0.59110  0.01600  0.11940  Biso   1.000  C
  C79      1.0000 0.09110  0.48400  0.88060  Biso   1.000  C
  C80      1.0000 0.40890  0.51600  0.38060  Biso   1.000  C
  F49      1.0000 0.11550  0.01600  0.43460  Biso   1.000  F
  F50      1.0000 0.38450  0.98400  0.93460  Biso   1.000  F
  F51      1.0000 0.88450  0.51600  0.06540  Biso   1.000  F
  F52      1.0000 0.61550  0.48400  0.56540  Biso   1.000  F
  F53      1.0000 0.88450  0.98400  0.56540  Biso   1.000  F
  F54      1.0000 0.61550  0.01600  0.06540  Biso   1.000  F
  F55      1.0000 0.11550  0.48400  0.93460  Biso   1.000  F
  F56      1.0000 0.38450  0.51600  0.43460  Biso   1.000  F
  F57      1.0000 0.08620  0.94310  0.36870  Biso   1.000  F
  F58      1.0000 0.41380  0.05690  0.86870  Biso   1.000  F
  F59      1.0000 0.91380  0.44310  0.13130  Biso   1.000  F
  F60      1.0000 0.58620  0.55690  0.63130  Biso   1.000  F
  F61      1.0000 0.91380  0.05690  0.63130  Biso   1.000  F
  F62      1.0000 0.58620  0.94310  0.13130  Biso   1.000  F
  F63      1.0000 0.08620  0.55690  0.86870  Biso   1.000  F
  F64      1.0000 0.41380  0.44310  0.36870  Biso   1.000  F
  F65      1.0000 0.02690  0.03490  0.38880  Biso   1.000  F
  F66      1.0000 0.47310  0.96510  0.88880  Biso   1.000  F
  F67      1.0000 0.97310  0.53490  0.11120  Biso   1.000  F
  F68      1.0000 0.52690  0.46510  0.61120  Biso   1.000  F
  F69      1.0000 0.97310  0.96510  0.61120  Biso   1.000  F
  F70      1.0000 0.52690  0.03490  0.11120  Biso   1.000  F
  F71      1.0000 0.02690  0.46510  0.88880  Biso   1.000  F
  F72      1.0000 0.47310  0.53490  0.38880  Biso   1.000  F
  C81      1.0000 0.53920  0.22910  0.54210  Biso   1.000  C
  C82      1.0000 0.96080  0.77090  0.04210  Biso   1.000  C
  C83      1.0000 0.46080  0.72910  0.95790  Biso   1.000  C
  C84      1.0000 0.03920  0.27090  0.45790  Biso   1.000  C
  C85      1.0000 0.46080  0.77090  0.45790  Biso   1.000  C
  C86      1.0000 0.03920  0.22910  0.95790  Biso   1.000  C
  C87      1.0000 0.53920  0.27090  0.04210  Biso   1.000  C
  C88      1.0000 0.96080  0.72910  0.54210  Biso   1.000  C
  F73      1.0000 0.50890  0.29220  0.54820  Biso   1.000  F
  F74      1.0000 0.99110  0.70780  0.04820  Biso   1.000  F
  F75      1.0000 0.49110  0.79220  0.95180  Biso   1.000  F
  F76      1.0000 0.00890  0.20780  0.45180  Biso   1.000  F
  F77      1.0000 0.49110  0.70780  0.45180  Biso   1.000  F
  F78      1.0000 0.00890  0.29220  0.95180  Biso   1.000  F
  F79      1.0000 0.50890  0.20780  0.04820  Biso   1.000  F
  F80      1.0000 0.99110  0.79220  0.54820  Biso   1.000  F
  F81      1.0000 0.58340  0.23740  0.50170  Biso   1.000  F
  F82      1.0000 0.91660  0.76260  0.00170  Biso   1.000  F
  F83      1.0000 0.41660  0.73740  0.99830  Biso   1.000  F
  F84      1.0000 0.08340  0.26260  0.49830  Biso   1.000  F
  F85      1.0000 0.41660  0.76260  0.49830  Biso   1.000  F
  F86      1.0000 0.08340  0.23740  0.99830  Biso   1.000  F
  F87      1.0000 0.58340  0.26260  0.00170  Biso   1.000  F
  F88      1.0000 0.91660  0.73740  0.50170  Biso   1.000  F
  F89      1.0000 0.57160  0.22220  0.59050  Biso   1.000  F
  F90      1.0000 0.92840  0.77780  0.09050  Biso   1.000  F
  F91      1.0000 0.42840  0.72220  0.90950  Biso   1.000  F
  F92      1.0000 0.07160  0.27780  0.40950  Biso   1.000  F
  F93      1.0000 0.42840  0.77780  0.40950  Biso   1.000  F
  F94      1.0000 0.07160  0.22220  0.90950  Biso   1.000  F
  F95      1.0000 0.57160  0.27780  0.09050  Biso   1.000  F
  F96      1.0000 0.92840  0.72220  0.59050  Biso   1.000  F
  C89      1.0000 0.48890  0.16010  0.51960  Biso   1.000  C
  C90      1.0000 0.01110  0.83990  0.01960  Biso   1.000  C
  C91      1.0000 0.51110  0.66010  0.98040  Biso   1.000  C
  C92      1.0000 0.98890  0.33990  0.48040  Biso   1.000  C
  C93      1.0000 0.51110  0.83990  0.48040  Biso   1.000  C
  C94      1.0000 0.98890  0.16010  0.98040  Biso   1.000  C
  C95      1.0000 0.48890  0.33990  0.01960  Biso   1.000  C
  C96      1.0000 0.01110  0.66010  0.51960  Biso   1.000  C
  C97      1.0000 0.41760  0.15720  0.51950  Biso   1.000  C
  C98      1.0000 0.08240  0.84280  0.01950  Biso   1.000  C
  C99      1.0000 0.58240  0.65720  0.98050  Biso   1.000  C
  C100     1.0000 0.91760  0.34280  0.48050  Biso   1.000  C
  C101     1.0000 0.58240  0.84280  0.48050  Biso   1.000  C
  C102     1.0000 0.91760  0.15720  0.98050  Biso   1.000  C
  C103     1.0000 0.41760  0.34280  0.01950  Biso   1.000  C
  C104     1.0000 0.08240  0.65720  0.51950  Biso   1.000  C
  H17      1.0000 0.39340  0.20300  0.51840  Biso   1.000  H
  H18      1.0000 0.10660  0.79700  0.01840  Biso   1.000  H
  H19      1.0000 0.60660  0.70300  0.98160  Biso   1.000  H
  H20      1.0000 0.89340  0.29700  0.48160  Biso   1.000  H
  H21      1.0000 0.60660  0.79700  0.48160  Biso   1.000  H
  H22      1.0000 0.89340  0.20300  0.98160  Biso   1.000  H
  H23      1.0000 0.39340  0.29700  0.01840  Biso   1.000  H
  H24      1.0000 0.10660  0.70300  0.51840  Biso   1.000  H
  C105     1.0000 0.38260  0.09040  0.52080  Biso   1.000  C
  C106     1.0000 0.11740  0.90960  0.02080  Biso   1.000  C
  C107     1.0000 0.61740  0.59040  0.97920  Biso   1.000  C
  C108     1.0000 0.88260  0.40960  0.47920  Biso   1.000  C
  C109     1.0000 0.61740  0.90960  0.47920  Biso   1.000  C
  C110     1.0000 0.88260  0.09040  0.97920  Biso   1.000  C
  C111     1.0000 0.38260  0.40960  0.02080  Biso   1.000  C
  C112     1.0000 0.11740  0.59040  0.52080  Biso   1.000  C
  C113     1.0000 0.30520  0.09080  0.52680  Biso   1.000  C
  C114     1.0000 0.19480  0.90920  0.02680  Biso   1.000  C
  C115     1.0000 0.69480  0.59080  0.97320  Biso   1.000  C
  C116     1.0000 0.80520  0.40920  0.47320  Biso   1.000  C
  C117     1.0000 0.69480  0.90920  0.47320  Biso   1.000  C
  C118     1.0000 0.80520  0.09080  0.97320  Biso   1.000  C
  C119     1.0000 0.30520  0.40920  0.02680  Biso   1.000  C
  C120     1.0000 0.19480  0.59080  0.52680  Biso   1.000  C
  C121     1.0000 0.46420  0.07790  0.28780  Biso   1.000  C
  C122     1.0000 0.03580  0.92210  0.78780  Biso   1.000  C
  C123     1.0000 0.53580  0.57790  0.21220  Biso   1.000  C
  C124     1.0000 0.96420  0.42210  0.71220  Biso   1.000  C
  C125     1.0000 0.53580  0.92210  0.71220  Biso   1.000  C
  C126     1.0000 0.96420  0.07790  0.21220  Biso   1.000  C
  C127     1.0000 0.46420  0.42210  0.78780  Biso   1.000  C
  C128     1.0000 0.03580  0.57790  0.28780  Biso   1.000  C
  H25      1.0000 0.45980  0.09080  0.24830  Biso   1.000  H
  H26      1.0000 0.04020  0.90920  0.74830  Biso   1.000  H
  H27      1.0000 0.54020  0.59080  0.25170  Biso   1.000  H
  H28      1.0000 0.95980  0.40920  0.75170  Biso   1.000  H
  H29      1.0000 0.54020  0.90920  0.75170  Biso   1.000  H
  H30      1.0000 0.95980  0.09080  0.25170  Biso   1.000  H
  H31      1.0000 0.45980  0.40920  0.74830  Biso   1.000  H
  H32      1.0000 0.04020  0.59080  0.24830  Biso   1.000  H
  C129     1.0000 0.52570  0.07820  0.37180  Biso   1.000  C
  C130     1.0000 0.97430  0.92180  0.87180  Biso   1.000  C
  C131     1.0000 0.47430  0.57820  0.12820  Biso   1.000  C
  C132     1.0000 0.02570  0.42180  0.62820  Biso   1.000  C
  C133     1.0000 0.47430  0.92180  0.62820  Biso   1.000  C
  C134     1.0000 0.02570  0.07820  0.12820  Biso   1.000  C
  C135     1.0000 0.52570  0.42180  0.87180  Biso   1.000  C
  C136     1.0000 0.97430  0.57820  0.37180  Biso   1.000  C
  H33      1.0000 0.56490  0.09290  0.39170  Biso   1.000  H
  H34      1.0000 0.93510  0.90710  0.89170  Biso   1.000  H
  H35      1.0000 0.43510  0.59290  0.10830  Biso   1.000  H
  H36      1.0000 0.06490  0.40710  0.60830  Biso   1.000  H
  H37      1.0000 0.43510  0.90710  0.60830  Biso   1.000  H
  H38      1.0000 0.06490  0.09290  0.10830  Biso   1.000  H
  H39      1.0000 0.56490  0.40710  0.89170  Biso   1.000  H
  H40      1.0000 0.93510  0.59290  0.39170  Biso   1.000  H
  C137     1.0000 0.42350  0.01970  0.37300  Biso   1.000  C
  C138     1.0000 0.07650  0.98030  0.87300  Biso   1.000  C
  C139     1.0000 0.57650  0.51970  0.12700  Biso   1.000  C
  C140     1.0000 0.92350  0.48030  0.62700  Biso   1.000  C
  C141     1.0000 0.57650  0.98030  0.62700  Biso   1.000  C
  C142     1.0000 0.92350  0.01970  0.12700  Biso   1.000  C
  C143     1.0000 0.42350  0.48030  0.87300  Biso   1.000  C
  C144     1.0000 0.07650  0.51970  0.37300  Biso   1.000  C
  H41      1.0000 0.39000  0.99260  0.39300  Biso   1.000  H
  H42      1.0000 0.11000  0.00740  0.89300  Biso   1.000  H
  H43      1.0000 0.61000  0.49260  0.10700  Biso   1.000  H
  H44      1.0000 0.89000  0.50740  0.60700  Biso   1.000  H
  H45      1.0000 0.61000  0.00740  0.60700  Biso   1.000  H
  H46      1.0000 0.89000  0.99260  0.10700  Biso   1.000  H
  H47      1.0000 0.39000  0.50740  0.89300  Biso   1.000  H
  H48      1.0000 0.11000  0.49260  0.39300  Biso   1.000  H
  C145     1.0000 0.41260  0.03880  0.31420  Biso   1.000  C
  C146     1.0000 0.08740  0.96120  0.81420  Biso   1.000  C
  C147     1.0000 0.58740  0.53880  0.18580  Biso   1.000  C
  C148     1.0000 0.91260  0.46120  0.68580  Biso   1.000  C
  C149     1.0000 0.58740  0.96120  0.68580  Biso   1.000  C
  C150     1.0000 0.91260  0.03880  0.18580  Biso   1.000  C
  C151     1.0000 0.41260  0.46120  0.81420  Biso   1.000  C
  C152     1.0000 0.08740  0.53880  0.31420  Biso   1.000  C
  C153     1.0000 0.34870  0.01700  0.28350  Biso   1.000  C
  C154     1.0000 0.15130  0.98300  0.78350  Biso   1.000  C
  C155     1.0000 0.65130  0.51700  0.21650  Biso   1.000  C
  C156     1.0000 0.84870  0.48300  0.71650  Biso   1.000  C
  C157     1.0000 0.65130  0.98300  0.71650  Biso   1.000  C
  C158     1.0000 0.84870  0.01700  0.21650  Biso   1.000  C
  C159     1.0000 0.34870  0.48300  0.78350  Biso   1.000  C
  C160     1.0000 0.15130  0.51700  0.28350  Biso   1.000  C
  C161     1.0000 0.32140  0.06500  0.24180  Biso   1.000  C
  C162     1.0000 0.17860  0.93500  0.74180  Biso   1.000  C
  C163     1.0000 0.67860  0.56500  0.25820  Biso   1.000  C
  C164     1.0000 0.82140  0.43500  0.75820  Biso   1.000  C
  C165     1.0000 0.67860  0.93500  0.75820  Biso   1.000  C
  C166     1.0000 0.82140  0.06500  0.25820  Biso   1.000  C
  C167     1.0000 0.32140  0.43500  0.74180  Biso   1.000  C
  C168     1.0000 0.17860  0.56500  0.24180  Biso   1.000  C
  H49      1.0000 0.34330  0.11070  0.23260  Biso   1.000  H
  H50      1.0000 0.15670  0.88930  0.73260  Biso   1.000  H
  H51      1.0000 0.65670  0.61070  0.26740  Biso   1.000  H
  H52      1.0000 0.84330  0.38930  0.76740  Biso   1.000  H
  H53      1.0000 0.65670  0.88930  0.76740  Biso   1.000  H
  H54      1.0000 0.84330  0.11070  0.26740  Biso   1.000  H
  H55      1.0000 0.34330  0.38930  0.73260  Biso   1.000  H
  H56      1.0000 0.15670  0.61070  0.23260  Biso   1.000  H
  C169     1.0000 0.26090  0.04550  0.21320  Biso   1.000  C
  C170     1.0000 0.23910  0.95450  0.71320  Biso   1.000  C
  C171     1.0000 0.73910  0.54550  0.28680  Biso   1.000  C
  C172     1.0000 0.76090  0.45450  0.78680  Biso   1.000  C
  C173     1.0000 0.73910  0.95450  0.78680  Biso   1.000  C
  C174     1.0000 0.76090  0.04550  0.28680  Biso   1.000  C
  C175     1.0000 0.26090  0.45450  0.71320  Biso   1.000  C
  C176     1.0000 0.23910  0.54550  0.21320  Biso   1.000  C
  C177     1.0000 0.22780  0.97840  0.22770  Biso   1.000  C
  C178     1.0000 0.27220  0.02160  0.72770  Biso   1.000  C
  C179     1.0000 0.77220  0.47840  0.27230  Biso   1.000  C
  C180     1.0000 0.72780  0.52160  0.77230  Biso   1.000  C
  C181     1.0000 0.77220  0.02160  0.77230  Biso   1.000  C
  C182     1.0000 0.72780  0.97840  0.27230  Biso   1.000  C
  C183     1.0000 0.22780  0.52160  0.72770  Biso   1.000  C
  C184     1.0000 0.27220  0.47840  0.22770  Biso   1.000  C
  H57      1.0000 0.18660  0.96600  0.21000  Biso   1.000  H
  H58      1.0000 0.31340  0.03400  0.71000  Biso   1.000  H
  H59      1.0000 0.81340  0.46600  0.29000  Biso   1.000  H
  H60      1.0000 0.68660  0.53400  0.79000  Biso   1.000  H
  H61      1.0000 0.81340  0.03400  0.79000  Biso   1.000  H
  H62      1.0000 0.68660  0.96600  0.29000  Biso   1.000  H
  H63      1.0000 0.18660  0.53400  0.71000  Biso   1.000  H
  H64      1.0000 0.31340  0.46600  0.21000  Biso   1.000  H
  C185     1.0000 0.25600  0.93030  0.26840  Biso   1.000  C
  C186     1.0000 0.24400  0.06970  0.76840  Biso   1.000  C
  C187     1.0000 0.74400  0.43030  0.23160  Biso   1.000  C
  C188     1.0000 0.75600  0.56970  0.73160  Biso   1.000  C
  C189     1.0000 0.74400  0.06970  0.73160  Biso   1.000  C
  C190     1.0000 0.75600  0.93030  0.23160  Biso   1.000  C
  C191     1.0000 0.25600  0.56970  0.76840  Biso   1.000  C
  C192     1.0000 0.24400  0.43030  0.26840  Biso   1.000  C
  H65      1.0000 0.23390  0.88470  0.27750  Biso   1.000  H
  H66      1.0000 0.26610  0.11530  0.77750  Biso   1.000  H
  H67      1.0000 0.76610  0.38470  0.22250  Biso   1.000  H
  H68      1.0000 0.73390  0.61530  0.72250  Biso   1.000  H
  H69      1.0000 0.76610  0.11530  0.72250  Biso   1.000  H
  H70      1.0000 0.73390  0.88470  0.22250  Biso   1.000  H
  H71      1.0000 0.23390  0.61530  0.77750  Biso   1.000  H
  H72      1.0000 0.26610  0.38470  0.27750  Biso   1.000  H
  C193     1.0000 0.31640  0.94800  0.29620  Biso   1.000  C
  C194     1.0000 0.18360  0.05200  0.79620  Biso   1.000  C
  C195     1.0000 0.68360  0.44800  0.20380  Biso   1.000  C
  C196     1.0000 0.81640  0.55200  0.70380  Biso   1.000  C
  C197     1.0000 0.68360  0.05200  0.70380  Biso   1.000  C
  C198     1.0000 0.81640  0.94800  0.20380  Biso   1.000  C
  C199     1.0000 0.31640  0.55200  0.79620  Biso   1.000  C
  C200     1.0000 0.18360  0.44800  0.29620  Biso   1.000  C
  H73      1.0000 0.33530  0.91410  0.32320  Biso   1.000  H
  H74      1.0000 0.16470  0.08590  0.82320  Biso   1.000  H
  H75      1.0000 0.66470  0.41410  0.17680  Biso   1.000  H
  H76      1.0000 0.83530  0.58590  0.67680  Biso   1.000  H
  H77      1.0000 0.66470  0.08590  0.67680  Biso   1.000  H
  H78      1.0000 0.83530  0.91410  0.17680  Biso   1.000  H
  H79      1.0000 0.33530  0.58590  0.82320  Biso   1.000  H
  H80      1.0000 0.16470  0.41410  0.32320  Biso   1.000  H
  C201     1.0000 0.26570  0.14170  0.12600  Biso   1.000  C
  C202     1.0000 0.23430  0.85830  0.62600  Biso   1.000  C
  C203     1.0000 0.73430  0.64170  0.37400  Biso   1.000  C
  C204     1.0000 0.76570  0.35830  0.87400  Biso   1.000  C
  C205     1.0000 0.73430  0.85830  0.87400  Biso   1.000  C
  C206     1.0000 0.76570  0.14170  0.37400  Biso   1.000  C
  C207     1.0000 0.26570  0.35830  0.62600  Biso   1.000  C
  C208     1.0000 0.23430  0.64170  0.12600  Biso   1.000  C
  C209     1.0000 0.21610  0.15020  0.07470  Biso   1.000  C
  C210     1.0000 0.28390  0.84980  0.57470  Biso   1.000  C
  C211     1.0000 0.78390  0.65020  0.42530  Biso   1.000  C
  C212     1.0000 0.71610  0.34980  0.92530  Biso   1.000  C
  C213     1.0000 0.78390  0.84980  0.92530  Biso   1.000  C
  C214     1.0000 0.71610  0.15020  0.42530  Biso   1.000  C
  C215     1.0000 0.21610  0.34980  0.57470  Biso   1.000  C
  C216     1.0000 0.28390  0.65020  0.07470  Biso   1.000  C
  H81      1.0000 0.20460  0.10040  0.05970  Biso   1.000  H
  H82      1.0000 0.29540  0.89960  0.55970  Biso   1.000  H
  H83      1.0000 0.79540  0.60040  0.44030  Biso   1.000  H
  H84      1.0000 0.70460  0.39960  0.94030  Biso   1.000  H
  H85      1.0000 0.79540  0.89960  0.94030  Biso   1.000  H
  H86      1.0000 0.70460  0.10040  0.44030  Biso   1.000  H
  H87      1.0000 0.20460  0.39960  0.55970  Biso   1.000  H
  H88      1.0000 0.29540  0.60040  0.05970  Biso   1.000  H
  H89      1.0000 0.23710  0.18000  0.04410  Biso   1.000  H
  H90      1.0000 0.26290  0.82000  0.54410  Biso   1.000  H
  H91      1.0000 0.76290  0.68000  0.45590  Biso   1.000  H
  H92      1.0000 0.73710  0.32000  0.95590  Biso   1.000  H
  H93      1.0000 0.76290  0.82000  0.95590  Biso   1.000  H
  H94      1.0000 0.73710  0.18000  0.45590  Biso   1.000  H
  H95      1.0000 0.23710  0.32000  0.54410  Biso   1.000  H
  H96      1.0000 0.26290  0.68000  0.04410  Biso   1.000  H
  H97      1.0000 0.17560  0.17570  0.08800  Biso   1.000  H
  H98      1.0000 0.32440  0.82430  0.58800  Biso   1.000  H
  H99      1.0000 0.82440  0.67570  0.41200  Biso   1.000  H
  H100     1.0000 0.67560  0.32430  0.91200  Biso   1.000  H
  H101     1.0000 0.82440  0.82430  0.91200  Biso   1.000  H
  H102     1.0000 0.67560  0.17570  0.41200  Biso   1.000  H
  H103     1.0000 0.17560  0.32430  0.58800  Biso   1.000  H
  H104     1.0000 0.32440  0.67570  0.08800  Biso   1.000  H
  C217     1.0000 0.28080  0.22060  0.15360  Biso   1.000  C
  C218     1.0000 0.21920  0.77940  0.65360  Biso   1.000  C
  C219     1.0000 0.71920  0.72060  0.34640  Biso   1.000  C
  C220     1.0000 0.78080  0.27940  0.84640  Biso   1.000  C
  C221     1.0000 0.71920  0.77940  0.84640  Biso   1.000  C
  C222     1.0000 0.78080  0.22060  0.34640  Biso   1.000  C
  C223     1.0000 0.28080  0.27940  0.65360  Biso   1.000  C
  C224     1.0000 0.21920  0.72060  0.15360  Biso   1.000  C
  H105     1.0000 0.30000  0.25400  0.12440  Biso   1.000  H
  H106     1.0000 0.20000  0.74600  0.62440  Biso   1.000  H
  H107     1.0000 0.70000  0.75400  0.37560  Biso   1.000  H
  H108     1.0000 0.80000  0.24600  0.87560  Biso   1.000  H
  H109     1.0000 0.70000  0.74600  0.87560  Biso   1.000  H
  H110     1.0000 0.80000  0.25400  0.37560  Biso   1.000  H
  H111     1.0000 0.30000  0.24600  0.62440  Biso   1.000  H
  H112     1.0000 0.20000  0.75400  0.12440  Biso   1.000  H
  H113     1.0000 0.31250  0.21450  0.18540  Biso   1.000  H
  H114     1.0000 0.18750  0.78550  0.68540  Biso   1.000  H
  H115     1.0000 0.68750  0.71450  0.31460  Biso   1.000  H
  H116     1.0000 0.81250  0.28550  0.81460  Biso   1.000  H
  H117     1.0000 0.68750  0.78550  0.81460  Biso   1.000  H
  H118     1.0000 0.81250  0.21450  0.31460  Biso   1.000  H
  H119     1.0000 0.31250  0.28550  0.68540  Biso   1.000  H
  H120     1.0000 0.18750  0.71450  0.18540  Biso   1.000  H
  H121     1.0000 0.23930  0.24250  0.16830  Biso   1.000  H
  H122     1.0000 0.26070  0.75750  0.66830  Biso   1.000  H
  H123     1.0000 0.76070  0.74250  0.33170  Biso   1.000  H
  H124     1.0000 0.73930  0.25750  0.83170  Biso   1.000  H
  H125     1.0000 0.76070  0.75750  0.83170  Biso   1.000  H
  H126     1.0000 0.73930  0.24250  0.33170  Biso   1.000  H
  H127     1.0000 0.23930  0.25750  0.66830  Biso   1.000  H
  H128     1.0000 0.26070  0.74250  0.16830  Biso   1.000  H
  C225     1.0000 0.32990  0.09910  0.10570  Biso   1.000  C
  C226     1.0000 0.17010  0.90090  0.60570  Biso   1.000  C
  C227     1.0000 0.67010  0.59910  0.39430  Biso   1.000  C
  C228     1.0000 0.82990  0.40090  0.89430  Biso   1.000  C
  C229     1.0000 0.67010  0.90090  0.89430  Biso   1.000  C
  C230     1.0000 0.82990  0.09910  0.39430  Biso   1.000  C
  C231     1.0000 0.32990  0.40090  0.60570  Biso   1.000  C
  C232     1.0000 0.17010  0.59910  0.10570  Biso   1.000  C
  H129     1.0000 0.31850  0.04710  0.09610  Biso   1.000  H
  H130     1.0000 0.18150  0.95290  0.59610  Biso   1.000  H
  H131     1.0000 0.68150  0.54710  0.40390  Biso   1.000  H
  H132     1.0000 0.81850  0.45290  0.90390  Biso   1.000  H
  H133     1.0000 0.68150  0.95290  0.90390  Biso   1.000  H
  H134     1.0000 0.81850  0.04710  0.40390  Biso   1.000  H
  H135     1.0000 0.31850  0.45290  0.59610  Biso   1.000  H
  H136     1.0000 0.18150  0.54710  0.09610  Biso   1.000  H
  H137     1.0000 0.36310  0.09960  0.13670  Biso   1.000  H
  H138     1.0000 0.13690  0.90040  0.63670  Biso   1.000  H
  H139     1.0000 0.63690  0.59960  0.36330  Biso   1.000  H
  H140     1.0000 0.86310  0.40040  0.86330  Biso   1.000  H
  H141     1.0000 0.63690  0.90040  0.86330  Biso   1.000  H
  H142     1.0000 0.86310  0.09960  0.36330  Biso   1.000  H
  H143     1.0000 0.36310  0.40040  0.63670  Biso   1.000  H
  H144     1.0000 0.13690  0.59960  0.13670  Biso   1.000  H
  H145     1.0000 0.34830  0.12410  0.07160  Biso   1.000  H
  H146     1.0000 0.15170  0.87590  0.57160  Biso   1.000  H
  H147     1.0000 0.65170  0.62410  0.42840  Biso   1.000  H
  H148     1.0000 0.84830  0.37590  0.92840  Biso   1.000  H
  H149     1.0000 0.65170  0.87590  0.92840  Biso   1.000  H
  H150     1.0000 0.84830  0.12410  0.42840  Biso   1.000  H
  H151     1.0000 0.34830  0.37590  0.57160  Biso   1.000  H
  H152     1.0000 0.15170  0.62410  0.07160  Biso   1.000  H
  F97      1.0000 0.23860  0.27990  0.37330  Biso   1.000  F
  F98      1.0000 0.26140  0.72010  0.87330  Biso   1.000  F
  F99      1.0000 0.76140  0.77990  0.12670  Biso   1.000  F
  F100     1.0000 0.73860  0.22010  0.62670  Biso   1.000  F
  F101     1.0000 0.76140  0.72010  0.62670  Biso   1.000  F
  F102     1.0000 0.73860  0.27990  0.12670  Biso   1.000  F
  F103     1.0000 0.23860  0.22010  0.87330  Biso   1.000  F
  F104     1.0000 0.26140  0.77990  0.37330  Biso   1.000  F
  F105     1.0000 0.30220  0.24080  0.30870  Biso   1.000  F
  F106     1.0000 0.19780  0.75920  0.80870  Biso   1.000  F
  F107     1.0000 0.69780  0.74080  0.19130  Biso   1.000  F
  F108     1.0000 0.80220  0.25920  0.69130  Biso   1.000  F
  F109     1.0000 0.69780  0.75920  0.69130  Biso   1.000  F
  F110     1.0000 0.80220  0.24080  0.19130  Biso   1.000  F
  F111     1.0000 0.30220  0.25920  0.80870  Biso   1.000  F
  F112     1.0000 0.19780  0.74080  0.30870  Biso   1.000  F
  F113     1.0000 0.29570  0.18130  0.38650  Biso   1.000  F
  F114     1.0000 0.20430  0.81870  0.88650  Biso   1.000  F
  F115     1.0000 0.70430  0.68130  0.11350  Biso   1.000  F
  F116     1.0000 0.79570  0.31870  0.61350  Biso   1.000  F
  F117     1.0000 0.70430  0.81870  0.61350  Biso   1.000  F
  F118     1.0000 0.79570  0.18130  0.11350  Biso   1.000  F
  F119     1.0000 0.29570  0.31870  0.88650  Biso   1.000  F
  F120     1.0000 0.20430  0.68130  0.38650  Biso   1.000  F
  F121     1.0000 0.27980  0.16250  0.52190  Biso   1.000  F
  F122     1.0000 0.22020  0.83750  0.02190  Biso   1.000  F
  F123     1.0000 0.72020  0.66250  0.97810  Biso   1.000  F
  F124     1.0000 0.77980  0.33750  0.47810  Biso   1.000  F
  F125     1.0000 0.72020  0.83750  0.47810  Biso   1.000  F
  F126     1.0000 0.77980  0.16250  0.97810  Biso   1.000  F
  F127     1.0000 0.27980  0.33750  0.02190  Biso   1.000  F
  F128     1.0000 0.22020  0.66250  0.52190  Biso   1.000  F
  F129     1.0000 0.27660  0.05060  0.48770  Biso   1.000  F
  F130     1.0000 0.22340  0.94940  0.98770  Biso   1.000  F
  F131     1.0000 0.72340  0.55060  0.01230  Biso   1.000  F
  F132     1.0000 0.77660  0.44940  0.51230  Biso   1.000  F
  F133     1.0000 0.72340  0.94940  0.51230  Biso   1.000  F
  F134     1.0000 0.77660  0.05060  0.01230  Biso   1.000  F
  F135     1.0000 0.27660  0.44940  0.98770  Biso   1.000  F
  F136     1.0000 0.22340  0.55060  0.48770  Biso   1.000  F
  F137     1.0000 0.28840  0.06780  0.57900  Biso   1.000  F
  F138     1.0000 0.21160  0.93220  0.07900  Biso   1.000  F
  F139     1.0000 0.71160  0.56780  0.92100  Biso   1.000  F
  F140     1.0000 0.78840  0.43220  0.42100  Biso   1.000  F
  F141     1.0000 0.71160  0.93220  0.42100  Biso   1.000  F
  F142     1.0000 0.78840  0.06780  0.92100  Biso   1.000  F
  F143     1.0000 0.28840  0.43220  0.07900  Biso   1.000  F
  F144     1.0000 0.21160  0.56780  0.57900  Biso   1.000  F
  C233     1.0000 0.61150  0.99850  0.12600  Biso   1.000  C
  C234     1.0000 0.88850  0.00150  0.62600  Biso   1.000  C
  C235     1.0000 0.38850  0.49850  0.37400  Biso   1.000  C
  C236     1.0000 0.11150  0.50150  0.87400  Biso   1.000  C
  C237     1.0000 0.38850  0.00150  0.87400  Biso   1.000  C
  C238     1.0000 0.11150  0.99850  0.37400  Biso   1.000  C
  C239     1.0000 0.61150  0.50150  0.62600  Biso   1.000  C
  C240     1.0000 0.88850  0.49850  0.12600  Biso   1.000  C
  C241     1.0000 0.51030  0.24570  0.50450  Biso   1.000  C
  C242     1.0000 0.98970  0.75430  0.00450  Biso   1.000  C
  C243     1.0000 0.48970  0.74570  0.99550  Biso   1.000  C
  C244     1.0000 0.01030  0.25430  0.49550  Biso   1.000  C
  C245     1.0000 0.48970  0.75430  0.49550  Biso   1.000  C
  C246     1.0000 0.01030  0.24570  0.99550  Biso   1.000  C
  C247     1.0000 0.51030  0.25430  0.00450  Biso   1.000  C
  C248     1.0000 0.98970  0.74570  0.50450  Biso   1.000  C
  F145     1.0000 0.59420  0.94090  0.15830  Biso   1.000  F
  F146     1.0000 0.90580  0.05910  0.65830  Biso   1.000  F
  F147     1.0000 0.40580  0.44090  0.34170  Biso   1.000  F
  F148     1.0000 0.09420  0.55910  0.84170  Biso   1.000  F
  F149     1.0000 0.40580  0.05910  0.84170  Biso   1.000  F
  F150     1.0000 0.09420  0.94090  0.34170  Biso   1.000  F
  F151     1.0000 0.59420  0.55910  0.65830  Biso   1.000  F
  F152     1.0000 0.90580  0.44090  0.15830  Biso   1.000  F
  F153     1.0000 0.56030  0.00360  0.08810  Biso   1.000  F
  F154     1.0000 0.93970  0.99640  0.58810  Biso   1.000  F
  F155     1.0000 0.43970  0.50360  0.41190  Biso   1.000  F
  F156     1.0000 0.06030  0.49640  0.91190  Biso   1.000  F
  F157     1.0000 0.43970  0.99640  0.91190  Biso   1.000  F
  F158     1.0000 0.06030  0.00360  0.41190  Biso   1.000  F
  F159     1.0000 0.56030  0.49640  0.58810  Biso   1.000  F
  F160     1.0000 0.93970  0.50360  0.08810  Biso   1.000  F
  F161     1.0000 0.65840  0.96690  0.09280  Biso   1.000  F
  F162     1.0000 0.84160  0.03310  0.59280  Biso   1.000  F
  F163     1.0000 0.34160  0.46690  0.40720  Biso   1.000  F
  F164     1.0000 0.15840  0.53310  0.90720  Biso   1.000  F
  F165     1.0000 0.34160  0.03310  0.90720  Biso   1.000  F
  F166     1.0000 0.15840  0.96690  0.40720  Biso   1.000  F
  F167     1.0000 0.65840  0.53310  0.59280  Biso   1.000  F
  F168     1.0000 0.84160  0.46690  0.09280  Biso   1.000  F
  F169     1.0000 0.56870  0.25660  0.52540  Biso   1.000  F
  F170     1.0000 0.93130  0.74340  0.02540  Biso   1.000  F
  F171     1.0000 0.43130  0.75660  0.97460  Biso   1.000  F
  F172     1.0000 0.06870  0.24340  0.47460  Biso   1.000  F
  F173     1.0000 0.43130  0.74340  0.47460  Biso   1.000  F
  F174     1.0000 0.06870  0.25660  0.97460  Biso   1.000  F
  F175     1.0000 0.56870  0.24340  0.02540  Biso   1.000  F
  F176     1.0000 0.93130  0.75660  0.52540  Biso   1.000  F
  F177     1.0000 0.47260  0.29590  0.52280  Biso   1.000  F
  F178     1.0000 0.02740  0.70410  0.02280  Biso   1.000  F
  F179     1.0000 0.52740  0.79590  0.97720  Biso   1.000  F
  F180     1.0000 0.97260  0.20410  0.47720  Biso   1.000  F
  F181     1.0000 0.52740  0.70410  0.47720  Biso   1.000  F
  F182     1.0000 0.97260  0.29590  0.97720  Biso   1.000  F
  F183     1.0000 0.47260  0.20410  0.02280  Biso   1.000  F
  F184     1.0000 0.02740  0.79590  0.52280  Biso   1.000  F
  F185     1.0000 0.51540  0.25460  0.44940  Biso   1.000  F
  F186     1.0000 0.98460  0.74540  0.94940  Biso   1.000  F
  F187     1.0000 0.48460  0.75460  0.05060  Biso   1.000  F
  F188     1.0000 0.01540  0.24540  0.55060  Biso   1.000  F
  F189     1.0000 0.48460  0.74540  0.55060  Biso   1.000  F
  F190     1.0000 0.01540  0.25460  0.05060  Biso   1.000  F
  F191     1.0000 0.51540  0.24540  0.94940  Biso   1.000  F
  F192     1.0000 0.98460  0.75460  0.44940  Biso   1.000  F
  F193     1.0000 0.49840  0.63660  0.84410  Biso   1.000  F
  F194     1.0000 0.00160  0.36340  0.34410  Biso   1.000  F
  F195     1.0000 0.50160  0.13660  0.65590  Biso   1.000  F
  F196     1.0000 0.99840  0.86340  0.15590  Biso   1.000  F
  F197     1.0000 0.50160  0.36340  0.15590  Biso   1.000  F
  F198     1.0000 0.99840  0.63660  0.65590  Biso   1.000  F
  F199     1.0000 0.49840  0.86340  0.34410  Biso   1.000  F
  F200     1.0000 0.00160  0.13660  0.84410  Biso   1.000  F
  F201     1.0000 0.42580  0.37780  0.22030  Biso   1.000  F
  F202     1.0000 0.07420  0.62220  0.72030  Biso   1.000  F
  F203     1.0000 0.57420  0.87780  0.27970  Biso   1.000  F
  F204     1.0000 0.92580  0.12220  0.77970  Biso   1.000  F
  F205     1.0000 0.57420  0.62220  0.77970  Biso   1.000  F
  F206     1.0000 0.92580  0.37780  0.27970  Biso   1.000  F
  F207     1.0000 0.42580  0.12220  0.72030  Biso   1.000  F
  F208     1.0000 0.07420  0.87780  0.22030  Biso   1.000  F
  F209     1.0000 0.42940  0.27900  0.16250  Biso   1.000  F
  F210     1.0000 0.07060  0.72100  0.66250  Biso   1.000  F
  F211     1.0000 0.57060  0.77900  0.33750  Biso   1.000  F
  F212     1.0000 0.92940  0.22100  0.83750  Biso   1.000  F
  F213     1.0000 0.57060  0.72100  0.83750  Biso   1.000  F
  F214     1.0000 0.92940  0.27900  0.33750  Biso   1.000  F
  F215     1.0000 0.42940  0.22100  0.66250  Biso   1.000  F
  F216     1.0000 0.07060  0.77900  0.16250  Biso   1.000  F
  F217     1.0000 0.37800  0.56570  0.65080  Biso   1.000  F
  F218     1.0000 0.12200  0.43430  0.15080  Biso   1.000  F
  F219     1.0000 0.62200  0.06570  0.84920  Biso   1.000  F
  F220     1.0000 0.87800  0.93430  0.34920  Biso   1.000  F
  F221     1.0000 0.62200  0.43430  0.34920  Biso   1.000  F
  F222     1.0000 0.87800  0.56570  0.84920  Biso   1.000  F
  F223     1.0000 0.37800  0.93430  0.15080  Biso   1.000  F
  F224     1.0000 0.12200  0.06570  0.65080  Biso   1.000  F
  F225     1.0000 0.44650  0.61860  0.59290  Biso   1.000  F
  F226     1.0000 0.05350  0.38140  0.09290  Biso   1.000  F
  F227     1.0000 0.55350  0.11860  0.90710  Biso   1.000  F
  F228     1.0000 0.94650  0.88140  0.40710  Biso   1.000  F
  F229     1.0000 0.55350  0.38140  0.40710  Biso   1.000  F
  F230     1.0000 0.94650  0.61860  0.90710  Biso   1.000  F
  F231     1.0000 0.44650  0.88140  0.09290  Biso   1.000  F
  F232     1.0000 0.05350  0.11860  0.59290  Biso   1.000  F
  F233     1.0000 0.34820  0.65860  0.59640  Biso   1.000  F
  F234     1.0000 0.15180  0.34140  0.09640  Biso   1.000  F
  F235     1.0000 0.65180  0.15860  0.90360  Biso   1.000  F
  F236     1.0000 0.84820  0.84140  0.40360  Biso   1.000  F
  F237     1.0000 0.65180  0.34140  0.40360  Biso   1.000  F
  F238     1.0000 0.84820  0.65860  0.90360  Biso   1.000  F
  F239     1.0000 0.34820  0.84140  0.09640  Biso   1.000  F
  F240     1.0000 0.15180  0.15860  0.59640  Biso   1.000  F
