data_image0
_cell_length_a       60.8915
_cell_length_b       15.4268
_cell_length_c       17.6013
_cell_angle_alpha    90
_cell_angle_beta     95.3729
_cell_angle_gamma    90

_symmetry_space_group_name_H-M    "P 1"
_symmetry_int_tables_number       1

loop_
  _symmetry_equiv_pos_as_xyz
  'x, y, z'

loop_
  _atom_site_label
  _atom_site_occupancy
  _atom_site_fract_x
  _atom_site_fract_y
  _atom_site_fract_z
  _atom_site_thermal_displace_type
  _atom_site_B_iso_or_equiv
  _atom_site_type_symbol
  Cu1      1.0000 0.15444  0.05445  0.51944  Biso   1.000  Cu
  Cu2      1.0000 0.84556  0.05445  0.98056  Biso   1.000  Cu
  Cu3      1.0000 0.65444  0.55445  0.51944  Biso   1.000  Cu
  Cu4      1.0000 0.34556  0.55445  0.98056  Biso   1.000  Cu
  Cu5      1.0000 0.84556  0.94555  0.48056  Biso   1.000  Cu
  Cu6      1.0000 0.15444  0.94555  0.01944  Biso   1.000  Cu
  Cu7      1.0000 0.34556  0.44555  0.48056  Biso   1.000  Cu
  Cu8      1.0000 0.65444  0.44555  0.01944  Biso   1.000  Cu
  Cu9      1.0000 0.29236  0.19360  0.63636  Biso   1.000  Cu
  Cu10     1.0000 0.70764  0.19360  0.86364  Biso   1.000  Cu
  Cu11     1.0000 0.79236  0.69360  0.63636  Biso   1.000  Cu
  Cu12     1.0000 0.20764  0.69360  0.86364  Biso   1.000  Cu
  Cu13     1.0000 0.70764  0.80640  0.36364  Biso   1.000  Cu
  Cu14     1.0000 0.29236  0.80640  0.13636  Biso   1.000  Cu
  Cu15     1.0000 0.20764  0.30640  0.36364  Biso   1.000  Cu
  Cu16     1.0000 0.79236  0.30640  0.13636  Biso   1.000  Cu
  Cu17     1.0000 0.00000  0.00000  0.50000  Biso   1.000  Cu
  Cu18     1.0000 0.00000  0.00000  0.00000  Biso   1.000  Cu
  Cu19     1.0000 0.50000  0.50000  0.50000  Biso   1.000  Cu
  Cu20     1.0000 0.50000  0.50000  0.00000  Biso   1.000  Cu
  Cu21     1.0000 0.00000  0.73988  0.25000  Biso   1.000  Cu
  Cu22     1.0000 0.50000  0.23988  0.25000  Biso   1.000  Cu
  Cu23     1.0000 0.00000  0.26012  0.75000  Biso   1.000  Cu
  Cu24     1.0000 0.50000  0.76012  0.75000  Biso   1.000  Cu
  O1       1.0000 0.13923  0.09334  0.41967  Biso   1.000  O
  O2       1.0000 0.86077  0.09334  0.08033  Biso   1.000  O
  O3       1.0000 0.63923  0.59334  0.41967  Biso   1.000  O
  O4       1.0000 0.36077  0.59334  0.08033  Biso   1.000  O
  O5       1.0000 0.86077  0.90666  0.58033  Biso   1.000  O
  O6       1.0000 0.13923  0.90666  0.91967  Biso   1.000  O
  O7       1.0000 0.36077  0.40666  0.58033  Biso   1.000  O
  O8       1.0000 0.63923  0.40666  0.91967  Biso   1.000  O
  O9       1.0000 0.29844  0.13941  0.53986  Biso   1.000  O
  O10      1.0000 0.70156  0.13941  0.96014  Biso   1.000  O
  O11      1.0000 0.79844  0.63941  0.53986  Biso   1.000  O
  O12      1.0000 0.20156  0.63941  0.96014  Biso   1.000  O
  O13      1.0000 0.70156  0.86059  0.46014  Biso   1.000  O
  O14      1.0000 0.29844  0.86059  0.03986  Biso   1.000  O
  O15      1.0000 0.20156  0.36059  0.46014  Biso   1.000  O
  O16      1.0000 0.79844  0.36059  0.03986  Biso   1.000  O
  O17      1.0000 0.17047  0.01809  0.61918  Biso   1.000  O
  O18      1.0000 0.82953  0.01809  0.88082  Biso   1.000  O
  O19      1.0000 0.67047  0.51809  0.61918  Biso   1.000  O
  O20      1.0000 0.32953  0.51809  0.88082  Biso   1.000  O
  O21      1.0000 0.82953  0.98191  0.38082  Biso   1.000  O
  O22      1.0000 0.17047  0.98191  0.11918  Biso   1.000  O
  O23      1.0000 0.32953  0.48191  0.38082  Biso   1.000  O
  O24      1.0000 0.67047  0.48191  0.11918  Biso   1.000  O
  O25      1.0000 0.15156  0.18502  0.57360  Biso   1.000  O
  O26      1.0000 0.84844  0.18502  0.92640  Biso   1.000  O
  O27      1.0000 0.65156  0.68502  0.57360  Biso   1.000  O
  O28      1.0000 0.34844  0.68502  0.92640  Biso   1.000  O
  O29      1.0000 0.84844  0.81498  0.42640  Biso   1.000  O
  O30      1.0000 0.15156  0.81498  0.07360  Biso   1.000  O
  O31      1.0000 0.34844  0.31498  0.42640  Biso   1.000  O
  O32      1.0000 0.65156  0.31498  0.07360  Biso   1.000  O
  O33      1.0000 0.16037  0.91961  0.47769  Biso   1.000  O
  O34      1.0000 0.83963  0.91961  0.02231  Biso   1.000  O
  O35      1.0000 0.66037  0.41961  0.47769  Biso   1.000  O
  O36      1.0000 0.33963  0.41961  0.02231  Biso   1.000  O
  O37      1.0000 0.83963  0.08039  0.52231  Biso   1.000  O
  O38      1.0000 0.16037  0.08039  0.97769  Biso   1.000  O
  O39      1.0000 0.33963  0.58039  0.52231  Biso   1.000  O
  O40      1.0000 0.66037  0.58039  0.97769  Biso   1.000  O
  O41      1.0000 0.12703  0.01454  0.55488  Biso   1.000  O
  O42      1.0000 0.87297  0.01454  0.94512  Biso   1.000  O
  O43      1.0000 0.62703  0.51454  0.55488  Biso   1.000  O
  O44      1.0000 0.37297  0.51454  0.94512  Biso   1.000  O
  O45      1.0000 0.87297  0.98546  0.44512  Biso   1.000  O
  O46      1.0000 0.12703  0.98546  0.05488  Biso   1.000  O
  O47      1.0000 0.37297  0.48546  0.44512  Biso   1.000  O
  O48      1.0000 0.62703  0.48546  0.05488  Biso   1.000  O
  O49      1.0000 0.28395  0.25734  0.72723  Biso   1.000  O
  O50      1.0000 0.71605  0.25734  0.77277  Biso   1.000  O
  O51      1.0000 0.78395  0.75734  0.72723  Biso   1.000  O
  O52      1.0000 0.21605  0.75734  0.77277  Biso   1.000  O
  O53      1.0000 0.71605  0.74266  0.27277  Biso   1.000  O
  O54      1.0000 0.28395  0.74266  0.22723  Biso   1.000  O
  O55      1.0000 0.21605  0.24266  0.27277  Biso   1.000  O
  O56      1.0000 0.78395  0.24266  0.22723  Biso   1.000  O
  O57      1.0000 0.32676  0.19635  0.69407  Biso   1.000  O
  O58      1.0000 0.67324  0.19635  0.80593  Biso   1.000  O
  O59      1.0000 0.82676  0.69635  0.69407  Biso   1.000  O
  O60      1.0000 0.17324  0.69635  0.80593  Biso   1.000  O
  O61      1.0000 0.67324  0.80365  0.30593  Biso   1.000  O
  O62      1.0000 0.32676  0.80365  0.19407  Biso   1.000  O
  O63      1.0000 0.17324  0.30365  0.30593  Biso   1.000  O
  O64      1.0000 0.82676  0.30365  0.19407  Biso   1.000  O
  O65      1.0000 0.25385  0.20377  0.60785  Biso   1.000  O
  O66      1.0000 0.74615  0.20377  0.89215  Biso   1.000  O
  O67      1.0000 0.75385  0.70377  0.60785  Biso   1.000  O
  O68      1.0000 0.24615  0.70377  0.89215  Biso   1.000  O
  O69      1.0000 0.74615  0.79623  0.39215  Biso   1.000  O
  O70      1.0000 0.25385  0.79623  0.10785  Biso   1.000  O
  O71      1.0000 0.24615  0.29623  0.39215  Biso   1.000  O
  O72      1.0000 0.75385  0.29623  0.10785  Biso   1.000  O
  O73      1.0000 0.28613  0.08191  0.67986  Biso   1.000  O
  O74      1.0000 0.71387  0.08191  0.82014  Biso   1.000  O
  O75      1.0000 0.78613  0.58191  0.67986  Biso   1.000  O
  O76      1.0000 0.21387  0.58191  0.82014  Biso   1.000  O
  O77      1.0000 0.71387  0.91809  0.32014  Biso   1.000  O
  O78      1.0000 0.28613  0.91809  0.17986  Biso   1.000  O
  O79      1.0000 0.21387  0.41809  0.32014  Biso   1.000  O
  O80      1.0000 0.78613  0.41809  0.17986  Biso   1.000  O
  O81      1.0000 0.01373  0.10827  0.46981  Biso   1.000  O
  O82      1.0000 0.98627  0.10827  0.03019  Biso   1.000  O
  O83      1.0000 0.51373  0.60827  0.46981  Biso   1.000  O
  O84      1.0000 0.48627  0.60827  0.03019  Biso   1.000  O
  O85      1.0000 0.98627  0.89173  0.53019  Biso   1.000  O
  O86      1.0000 0.01373  0.89173  0.96981  Biso   1.000  O
  O87      1.0000 0.48627  0.39173  0.53019  Biso   1.000  O
  O88      1.0000 0.51373  0.39173  0.96981  Biso   1.000  O
  O89      1.0000 0.97386  0.01635  0.40460  Biso   1.000  O
  O90      1.0000 0.02614  0.01635  0.09540  Biso   1.000  O
  O91      1.0000 0.47386  0.51635  0.40460  Biso   1.000  O
  O92      1.0000 0.52614  0.51635  0.09540  Biso   1.000  O
  O93      1.0000 0.02614  0.98365  0.59540  Biso   1.000  O
  O94      1.0000 0.97386  0.98365  0.90460  Biso   1.000  O
  O95      1.0000 0.52614  0.48365  0.59540  Biso   1.000  O
  O96      1.0000 0.47386  0.48365  0.90460  Biso   1.000  O
  O97      1.0000 0.02471  0.74180  0.18914  Biso   1.000  O
  O98      1.0000 0.97529  0.74180  0.31086  Biso   1.000  O
  O99      1.0000 0.52471  0.24180  0.18914  Biso   1.000  O
  O100     1.0000 0.47529  0.24180  0.31086  Biso   1.000  O
  O101     1.0000 0.97529  0.25820  0.81086  Biso   1.000  O
  O102     1.0000 0.02471  0.25820  0.68914  Biso   1.000  O
  O103     1.0000 0.47529  0.75820  0.81086  Biso   1.000  O
  O104     1.0000 0.52471  0.75820  0.68914  Biso   1.000  O
  O105     1.0000 0.98627  0.63690  0.18040  Biso   1.000  O
  O106     1.0000 0.01373  0.63690  0.31960  Biso   1.000  O
  O107     1.0000 0.48627  0.13690  0.18040  Biso   1.000  O
  O108     1.0000 0.51373  0.13690  0.31960  Biso   1.000  O
  O109     1.0000 0.01373  0.36310  0.81960  Biso   1.000  O
  O110     1.0000 0.98627  0.36310  0.68040  Biso   1.000  O
  O111     1.0000 0.51373  0.86310  0.81960  Biso   1.000  O
  O112     1.0000 0.48627  0.86310  0.68040  Biso   1.000  O
  N1       1.0000 0.01847  0.93260  0.42882  Biso   1.000  N
  N2       1.0000 0.98153  0.93260  0.07118  Biso   1.000  N
  N3       1.0000 0.51847  0.43260  0.42882  Biso   1.000  N
  N4       1.0000 0.48153  0.43260  0.07118  Biso   1.000  N
  N5       1.0000 0.98153  0.06740  0.57118  Biso   1.000  N
  N6       1.0000 0.01847  0.06740  0.92882  Biso   1.000  N
  N7       1.0000 0.48153  0.56740  0.57118  Biso   1.000  N
  N8       1.0000 0.51847  0.56740  0.92882  Biso   1.000  N
  N9       1.0000 0.01822  0.83600  0.32543  Biso   1.000  N
  N10      1.0000 0.98178  0.83600  0.17457  Biso   1.000  N
  N11      1.0000 0.51822  0.33600  0.32543  Biso   1.000  N
  N12      1.0000 0.48178  0.33600  0.17457  Biso   1.000  N
  N13      1.0000 0.98178  0.16400  0.67457  Biso   1.000  N
  N14      1.0000 0.01822  0.16400  0.82543  Biso   1.000  N
  N15      1.0000 0.48178  0.66400  0.67457  Biso   1.000  N
  N16      1.0000 0.51822  0.66400  0.82543  Biso   1.000  N
  N17      1.0000 0.11795  0.09610  0.40620  Biso   1.000  N
  N18      1.0000 0.88205  0.09610  0.09380  Biso   1.000  N
  N19      1.0000 0.61795  0.59610  0.40620  Biso   1.000  N
  N20      1.0000 0.38205  0.59610  0.09380  Biso   1.000  N
  N21      1.0000 0.88205  0.90390  0.59380  Biso   1.000  N
  N22      1.0000 0.11795  0.90390  0.90620  Biso   1.000  N
  N23      1.0000 0.38205  0.40390  0.59380  Biso   1.000  N
  N24      1.0000 0.61795  0.40390  0.90620  Biso   1.000  N
  N25      1.0000 0.20371  0.19172  0.41564  Biso   1.000  N
  N26      1.0000 0.79629  0.19172  0.08436  Biso   1.000  N
  N27      1.0000 0.70371  0.69172  0.41564  Biso   1.000  N
  N28      1.0000 0.29629  0.69172  0.08436  Biso   1.000  N
  N29      1.0000 0.79629  0.80828  0.58436  Biso   1.000  N
  N30      1.0000 0.20371  0.80828  0.91564  Biso   1.000  N
  N31      1.0000 0.29629  0.30828  0.58436  Biso   1.000  N
  N32      1.0000 0.70371  0.30828  0.91564  Biso   1.000  N
  N33      1.0000 0.18288  0.08960  0.47778  Biso   1.000  N
  N34      1.0000 0.81712  0.08960  0.02222  Biso   1.000  N
  N35      1.0000 0.68288  0.58960  0.47778  Biso   1.000  N
  N36      1.0000 0.31712  0.58960  0.02222  Biso   1.000  N
  N37      1.0000 0.81712  0.91040  0.52222  Biso   1.000  N
  N38      1.0000 0.18288  0.91040  0.97778  Biso   1.000  N
  N39      1.0000 0.31712  0.41040  0.52222  Biso   1.000  N
  N40      1.0000 0.68288  0.41040  0.97778  Biso   1.000  N
  N41      1.0000 0.30048  0.05637  0.53204  Biso   1.000  N
  N42      1.0000 0.69952  0.05637  0.96796  Biso   1.000  N
  N43      1.0000 0.80048  0.55637  0.53204  Biso   1.000  N
  N44      1.0000 0.19952  0.55637  0.96796  Biso   1.000  N
  N45      1.0000 0.69952  0.94363  0.46796  Biso   1.000  N
  N46      1.0000 0.30048  0.94363  0.03204  Biso   1.000  N
  N47      1.0000 0.19952  0.44363  0.46796  Biso   1.000  N
  N48      1.0000 0.80048  0.44363  0.03204  Biso   1.000  N
  C1       1.0000 0.04031  0.94530  0.42650  Biso   1.000  C
  C2       1.0000 0.95969  0.94530  0.07350  Biso   1.000  C
  C3       1.0000 0.54031  0.44530  0.42650  Biso   1.000  C
  C4       1.0000 0.45969  0.44530  0.07350  Biso   1.000  C
  C5       1.0000 0.95969  0.05470  0.57350  Biso   1.000  C
  C6       1.0000 0.04031  0.05470  0.92650  Biso   1.000  C
  C7       1.0000 0.45969  0.55470  0.57350  Biso   1.000  C
  C8       1.0000 0.54031  0.55470  0.92650  Biso   1.000  C
  H1       1.0000 0.04790  0.98260  0.46310  Biso   1.000  H
  H2       1.0000 0.95210  0.98260  0.03690  Biso   1.000  H
  H3       1.0000 0.54790  0.48260  0.46310  Biso   1.000  H
  H4       1.0000 0.45210  0.48260  0.03690  Biso   1.000  H
  H5       1.0000 0.95210  0.01740  0.53690  Biso   1.000  H
  H6       1.0000 0.04790  0.01740  0.96310  Biso   1.000  H
  H7       1.0000 0.45210  0.51740  0.53690  Biso   1.000  H
  H8       1.0000 0.54790  0.51740  0.96310  Biso   1.000  H
  C9       1.0000 0.00844  0.87750  0.37860  Biso   1.000  C
  C10      1.0000 0.99156  0.87750  0.12140  Biso   1.000  C
  C11      1.0000 0.50844  0.37750  0.37860  Biso   1.000  C
  C12      1.0000 0.49156  0.37750  0.12140  Biso   1.000  C
  C13      1.0000 0.99156  0.12250  0.62140  Biso   1.000  C
  C14      1.0000 0.00844  0.12250  0.87860  Biso   1.000  C
  C15      1.0000 0.49156  0.62250  0.62140  Biso   1.000  C
  C16      1.0000 0.50844  0.62250  0.87860  Biso   1.000  C
  H9       1.0000 0.99310  0.86730  0.38130  Biso   1.000  H
  H10      1.0000 0.00690  0.86730  0.11870  Biso   1.000  H
  H11      1.0000 0.49310  0.36730  0.38130  Biso   1.000  H
  H12      1.0000 0.50690  0.36730  0.11870  Biso   1.000  H
  H13      1.0000 0.00690  0.13270  0.61870  Biso   1.000  H
  H14      1.0000 0.99310  0.13270  0.88130  Biso   1.000  H
  H15      1.0000 0.50690  0.63270  0.61870  Biso   1.000  H
  H16      1.0000 0.49310  0.63270  0.88130  Biso   1.000  H
  C17      1.0000 0.03979  0.85090  0.32210  Biso   1.000  C
  C18      1.0000 0.96021  0.85090  0.17790  Biso   1.000  C
  C19      1.0000 0.53979  0.35090  0.32210  Biso   1.000  C
  C20      1.0000 0.46021  0.35090  0.17790  Biso   1.000  C
  C21      1.0000 0.96021  0.14910  0.67790  Biso   1.000  C
  C22      1.0000 0.03979  0.14910  0.82210  Biso   1.000  C
  C23      1.0000 0.46021  0.64910  0.67790  Biso   1.000  C
  C24      1.0000 0.53979  0.64910  0.82210  Biso   1.000  C
  H17      1.0000 0.04710  0.82280  0.28360  Biso   1.000  H
  H18      1.0000 0.95290  0.82280  0.21640  Biso   1.000  H
  H19      1.0000 0.54710  0.32280  0.28360  Biso   1.000  H
  H20      1.0000 0.45290  0.32280  0.21640  Biso   1.000  H
  H21      1.0000 0.95290  0.17720  0.71640  Biso   1.000  H
  H22      1.0000 0.04710  0.17720  0.78360  Biso   1.000  H
  H23      1.0000 0.45290  0.67720  0.71640  Biso   1.000  H
  H24      1.0000 0.54710  0.67720  0.78360  Biso   1.000  H
  C25      1.0000 0.05194  0.90600  0.37280  Biso   1.000  C
  C26      1.0000 0.94806  0.90600  0.12720  Biso   1.000  C
  C27      1.0000 0.55194  0.40600  0.37280  Biso   1.000  C
  C28      1.0000 0.44806  0.40600  0.12720  Biso   1.000  C
  C29      1.0000 0.94806  0.09400  0.62720  Biso   1.000  C
  C30      1.0000 0.05194  0.09400  0.87280  Biso   1.000  C
  C31      1.0000 0.44806  0.59400  0.62720  Biso   1.000  C
  C32      1.0000 0.55194  0.59400  0.87280  Biso   1.000  C
  C33      1.0000 0.07574  0.92250  0.36560  Biso   1.000  C
  C34      1.0000 0.92426  0.92250  0.13440  Biso   1.000  C
  C35      1.0000 0.57574  0.42250  0.36560  Biso   1.000  C
  C36      1.0000 0.42426  0.42250  0.13440  Biso   1.000  C
  C37      1.0000 0.92426  0.07750  0.63440  Biso   1.000  C
  C38      1.0000 0.07574  0.07750  0.86560  Biso   1.000  C
  C39      1.0000 0.42426  0.57750  0.63440  Biso   1.000  C
  C40      1.0000 0.57574  0.57750  0.86560  Biso   1.000  C
  C41      1.0000 0.08539  0.00070  0.39060  Biso   1.000  C
  C42      1.0000 0.91461  0.00070  0.10940  Biso   1.000  C
  C43      1.0000 0.58539  0.50070  0.39060  Biso   1.000  C
  C44      1.0000 0.41461  0.50070  0.10940  Biso   1.000  C
  C45      1.0000 0.91461  0.99930  0.60940  Biso   1.000  C
  C46      1.0000 0.08539  0.99930  0.89060  Biso   1.000  C
  C47      1.0000 0.41461  0.49930  0.60940  Biso   1.000  C
  C48      1.0000 0.58539  0.49930  0.89060  Biso   1.000  C
  H25      1.0000 0.07690  0.04280  0.41410  Biso   1.000  H
  H26      1.0000 0.92310  0.04280  0.08590  Biso   1.000  H
  H27      1.0000 0.57690  0.54280  0.41410  Biso   1.000  H
  H28      1.0000 0.42310  0.54280  0.08590  Biso   1.000  H
  H29      1.0000 0.92310  0.95720  0.58590  Biso   1.000  H
  H30      1.0000 0.07690  0.95720  0.91410  Biso   1.000  H
  H31      1.0000 0.42310  0.45720  0.58590  Biso   1.000  H
  H32      1.0000 0.57690  0.45720  0.91410  Biso   1.000  H
  C49      1.0000 0.10749  0.01740  0.38130  Biso   1.000  C
  C50      1.0000 0.89251  0.01740  0.11870  Biso   1.000  C
  C51      1.0000 0.60749  0.51740  0.38130  Biso   1.000  C
  C52      1.0000 0.39251  0.51740  0.11870  Biso   1.000  C
  C53      1.0000 0.89251  0.98260  0.61870  Biso   1.000  C
  C54      1.0000 0.10749  0.98260  0.88130  Biso   1.000  C
  C55      1.0000 0.39251  0.48260  0.61870  Biso   1.000  C
  C56      1.0000 0.60749  0.48260  0.88130  Biso   1.000  C
  C57      1.0000 0.12004  0.95570  0.34610  Biso   1.000  C
  C58      1.0000 0.87996  0.95570  0.15390  Biso   1.000  C
  C59      1.0000 0.62004  0.45570  0.34610  Biso   1.000  C
  C60      1.0000 0.37996  0.45570  0.15390  Biso   1.000  C
  C61      1.0000 0.87996  0.04430  0.65390  Biso   1.000  C
  C62      1.0000 0.12004  0.04430  0.84610  Biso   1.000  C
  C63      1.0000 0.37996  0.54430  0.65390  Biso   1.000  C
  C64      1.0000 0.62004  0.54430  0.84610  Biso   1.000  C
  H33      1.0000 0.13510  0.96700  0.33910  Biso   1.000  H
  H34      1.0000 0.86490  0.96700  0.16090  Biso   1.000  H
  H35      1.0000 0.63510  0.46700  0.33910  Biso   1.000  H
  H36      1.0000 0.36490  0.46700  0.16090  Biso   1.000  H
  H37      1.0000 0.86490  0.03300  0.66090  Biso   1.000  H
  H38      1.0000 0.13510  0.03300  0.83910  Biso   1.000  H
  H39      1.0000 0.36490  0.53300  0.66090  Biso   1.000  H
  H40      1.0000 0.63510  0.53300  0.83910  Biso   1.000  H
  C65      1.0000 0.11043  0.87860  0.32190  Biso   1.000  C
  C66      1.0000 0.88957  0.87860  0.17810  Biso   1.000  C
  C67      1.0000 0.61043  0.37860  0.32190  Biso   1.000  C
  C68      1.0000 0.38957  0.37860  0.17810  Biso   1.000  C
  C69      1.0000 0.88957  0.12140  0.67810  Biso   1.000  C
  C70      1.0000 0.11043  0.12140  0.82190  Biso   1.000  C
  C71      1.0000 0.38957  0.62140  0.67810  Biso   1.000  C
  C72      1.0000 0.61043  0.62140  0.82190  Biso   1.000  C
  H41      1.0000 0.11890  0.83680  0.29780  Biso   1.000  H
  H42      1.0000 0.88110  0.83680  0.20220  Biso   1.000  H
  H43      1.0000 0.61890  0.33680  0.29780  Biso   1.000  H
  H44      1.0000 0.38110  0.33680  0.20220  Biso   1.000  H
  H45      1.0000 0.88110  0.16320  0.70220  Biso   1.000  H
  H46      1.0000 0.11890  0.16320  0.79780  Biso   1.000  H
  H47      1.0000 0.38110  0.66320  0.70220  Biso   1.000  H
  H48      1.0000 0.61890  0.66320  0.79780  Biso   1.000  H
  C73      1.0000 0.08864  0.86090  0.33180  Biso   1.000  C
  C74      1.0000 0.91136  0.86090  0.16820  Biso   1.000  C
  C75      1.0000 0.58864  0.36090  0.33180  Biso   1.000  C
  C76      1.0000 0.41136  0.36090  0.16820  Biso   1.000  C
  C77      1.0000 0.91136  0.13910  0.66820  Biso   1.000  C
  C78      1.0000 0.08864  0.13910  0.83180  Biso   1.000  C
  C79      1.0000 0.41136  0.63910  0.66820  Biso   1.000  C
  C80      1.0000 0.58864  0.63910  0.83180  Biso   1.000  C
  H49      1.0000 0.08240  0.80680  0.31570  Biso   1.000  H
  H50      1.0000 0.91760  0.80680  0.18430  Biso   1.000  H
  H51      1.0000 0.58240  0.30680  0.31570  Biso   1.000  H
  H52      1.0000 0.41760  0.30680  0.18430  Biso   1.000  H
  H53      1.0000 0.91760  0.19320  0.68430  Biso   1.000  H
  H54      1.0000 0.08240  0.19320  0.81570  Biso   1.000  H
  H55      1.0000 0.41760  0.69320  0.68430  Biso   1.000  H
  H56      1.0000 0.58240  0.69320  0.81570  Biso   1.000  H
  C81      1.0000 0.10660  0.18300  0.41230  Biso   1.000  C
  C82      1.0000 0.89340  0.18300  0.08770  Biso   1.000  C
  C83      1.0000 0.60660  0.68300  0.41230  Biso   1.000  C
  C84      1.0000 0.39340  0.68300  0.08770  Biso   1.000  C
  C85      1.0000 0.89340  0.81700  0.58770  Biso   1.000  C
  C86      1.0000 0.10660  0.81700  0.91230  Biso   1.000  C
  C87      1.0000 0.39340  0.31700  0.58770  Biso   1.000  C
  C88      1.0000 0.60660  0.31700  0.91230  Biso   1.000  C
  C89      1.0000 0.09044  0.19530  0.34120  Biso   1.000  C
  C90      1.0000 0.90956  0.19530  0.15880  Biso   1.000  C
  C91      1.0000 0.59044  0.69530  0.34120  Biso   1.000  C
  C92      1.0000 0.40956  0.69530  0.15880  Biso   1.000  C
  C93      1.0000 0.90956  0.80470  0.65880  Biso   1.000  C
  C94      1.0000 0.09044  0.80470  0.84120  Biso   1.000  C
  C95      1.0000 0.40956  0.30470  0.65880  Biso   1.000  C
  C96      1.0000 0.59044  0.30470  0.84120  Biso   1.000  C
  H57      1.0000 0.07920  0.14950  0.33910  Biso   1.000  H
  H58      1.0000 0.92080  0.14950  0.16090  Biso   1.000  H
  H59      1.0000 0.57920  0.64950  0.33910  Biso   1.000  H
  H60      1.0000 0.42080  0.64950  0.16090  Biso   1.000  H
  H61      1.0000 0.92080  0.85050  0.66090  Biso   1.000  H
  H62      1.0000 0.07920  0.85050  0.83910  Biso   1.000  H
  H63      1.0000 0.42080  0.35050  0.66090  Biso   1.000  H
  H64      1.0000 0.57920  0.35050  0.83910  Biso   1.000  H
  H65      1.0000 0.09850  0.19220  0.29550  Biso   1.000  H
  H66      1.0000 0.90150  0.19220  0.20450  Biso   1.000  H
  H67      1.0000 0.59850  0.69220  0.29550  Biso   1.000  H
  H68      1.0000 0.40150  0.69220  0.20450  Biso   1.000  H
  H69      1.0000 0.90150  0.80780  0.70450  Biso   1.000  H
  H70      1.0000 0.09850  0.80780  0.79550  Biso   1.000  H
  H71      1.0000 0.40150  0.30780  0.70450  Biso   1.000  H
  H72      1.0000 0.59850  0.30780  0.79550  Biso   1.000  H
  H73      1.0000 0.08330  0.25200  0.34340  Biso   1.000  H
  H74      1.0000 0.91670  0.25200  0.15660  Biso   1.000  H
  H75      1.0000 0.58330  0.75200  0.34340  Biso   1.000  H
  H76      1.0000 0.41670  0.75200  0.15660  Biso   1.000  H
  H77      1.0000 0.91670  0.74800  0.65660  Biso   1.000  H
  H78      1.0000 0.08330  0.74800  0.84340  Biso   1.000  H
  H79      1.0000 0.41670  0.24800  0.65660  Biso   1.000  H
  H80      1.0000 0.58330  0.24800  0.84340  Biso   1.000  H
  C97      1.0000 0.09564  0.18710  0.48700  Biso   1.000  C
  C98      1.0000 0.90436  0.18710  0.01300  Biso   1.000  C
  C99      1.0000 0.59564  0.68710  0.48700  Biso   1.000  C
  C100     1.0000 0.40436  0.68710  0.01300  Biso   1.000  C
  C101     1.0000 0.90436  0.81290  0.51300  Biso   1.000  C
  C102     1.0000 0.09564  0.81290  0.98700  Biso   1.000  C
  C103     1.0000 0.40436  0.31290  0.51300  Biso   1.000  C
  C104     1.0000 0.59564  0.31290  0.98700  Biso   1.000  C
  H81      1.0000 0.08420  0.14240  0.48670  Biso   1.000  H
  H82      1.0000 0.91580  0.14240  0.01330  Biso   1.000  H
  H83      1.0000 0.58420  0.64240  0.48670  Biso   1.000  H
  H84      1.0000 0.41580  0.64240  0.01330  Biso   1.000  H
  H85      1.0000 0.91580  0.85760  0.51330  Biso   1.000  H
  H86      1.0000 0.08420  0.85760  0.98670  Biso   1.000  H
  H87      1.0000 0.41580  0.35760  0.51330  Biso   1.000  H
  H88      1.0000 0.58420  0.35760  0.98670  Biso   1.000  H
  H89      1.0000 0.08900  0.24440  0.49200  Biso   1.000  H
  H90      1.0000 0.91100  0.24440  0.00800  Biso   1.000  H
  H91      1.0000 0.58900  0.74440  0.49200  Biso   1.000  H
  H92      1.0000 0.41100  0.74440  0.00800  Biso   1.000  H
  H93      1.0000 0.91100  0.75560  0.50800  Biso   1.000  H
  H94      1.0000 0.08900  0.75560  0.99200  Biso   1.000  H
  H95      1.0000 0.41100  0.25560  0.50800  Biso   1.000  H
  H96      1.0000 0.58900  0.25560  0.99200  Biso   1.000  H
  H97      1.0000 0.10680  0.17720  0.53010  Biso   1.000  H
  H98      1.0000 0.89320  0.17720  0.96990  Biso   1.000  H
  H99      1.0000 0.60680  0.67720  0.53010  Biso   1.000  H
  H100     1.0000 0.39320  0.67720  0.96990  Biso   1.000  H
  H101     1.0000 0.89320  0.82280  0.46990  Biso   1.000  H
  H102     1.0000 0.10680  0.82280  0.03010  Biso   1.000  H
  H103     1.0000 0.39320  0.32280  0.46990  Biso   1.000  H
  H104     1.0000 0.60680  0.32280  0.03010  Biso   1.000  H
  C105     1.0000 0.12436  0.25300  0.41300  Biso   1.000  C
  C106     1.0000 0.87564  0.25300  0.08700  Biso   1.000  C
  C107     1.0000 0.62436  0.75300  0.41300  Biso   1.000  C
  C108     1.0000 0.37564  0.75300  0.08700  Biso   1.000  C
  C109     1.0000 0.87564  0.74700  0.58700  Biso   1.000  C
  C110     1.0000 0.12436  0.74700  0.91300  Biso   1.000  C
  C111     1.0000 0.37564  0.24700  0.58700  Biso   1.000  C
  C112     1.0000 0.62436  0.24700  0.91300  Biso   1.000  C
  H105     1.0000 0.13140  0.25070  0.36520  Biso   1.000  H
  H106     1.0000 0.86860  0.25070  0.13480  Biso   1.000  H
  H107     1.0000 0.63140  0.75070  0.36520  Biso   1.000  H
  H108     1.0000 0.36860  0.75070  0.13480  Biso   1.000  H
  H109     1.0000 0.86860  0.74930  0.63480  Biso   1.000  H
  H110     1.0000 0.13140  0.74930  0.86520  Biso   1.000  H
  H111     1.0000 0.36860  0.24930  0.63480  Biso   1.000  H
  H112     1.0000 0.63140  0.24930  0.86520  Biso   1.000  H
  H113     1.0000 0.13550  0.24310  0.45610  Biso   1.000  H
  H114     1.0000 0.86450  0.24310  0.04390  Biso   1.000  H
  H115     1.0000 0.63550  0.74310  0.45610  Biso   1.000  H
  H116     1.0000 0.36450  0.74310  0.04390  Biso   1.000  H
  H117     1.0000 0.86450  0.75690  0.54390  Biso   1.000  H
  H118     1.0000 0.13550  0.75690  0.95610  Biso   1.000  H
  H119     1.0000 0.36450  0.25690  0.54390  Biso   1.000  H
  H120     1.0000 0.63550  0.25690  0.95610  Biso   1.000  H
  H121     1.0000 0.11760  0.31010  0.41820  Biso   1.000  H
  H122     1.0000 0.88240  0.31010  0.08180  Biso   1.000  H
  H123     1.0000 0.61760  0.81010  0.41820  Biso   1.000  H
  H124     1.0000 0.38240  0.81010  0.08180  Biso   1.000  H
  H125     1.0000 0.88240  0.68990  0.58180  Biso   1.000  H
  H126     1.0000 0.11760  0.68990  0.91820  Biso   1.000  H
  H127     1.0000 0.38240  0.18990  0.58180  Biso   1.000  H
  H128     1.0000 0.61760  0.18990  0.91820  Biso   1.000  H
  C113     1.0000 0.22133  0.13970  0.42584  Biso   1.000  C
  C114     1.0000 0.77867  0.13970  0.07416  Biso   1.000  C
  C115     1.0000 0.72133  0.63970  0.42584  Biso   1.000  C
  C116     1.0000 0.27867  0.63970  0.07416  Biso   1.000  C
  C117     1.0000 0.77867  0.86030  0.57416  Biso   1.000  C
  C118     1.0000 0.22133  0.86030  0.92584  Biso   1.000  C
  C119     1.0000 0.27867  0.36030  0.57416  Biso   1.000  C
  C120     1.0000 0.72133  0.36030  0.92584  Biso   1.000  C
  H129     1.0000 0.23460  0.15650  0.40520  Biso   1.000  H
  H130     1.0000 0.76540  0.15650  0.09480  Biso   1.000  H
  H131     1.0000 0.73460  0.65650  0.40520  Biso   1.000  H
  H132     1.0000 0.26540  0.65650  0.09480  Biso   1.000  H
  H133     1.0000 0.76540  0.84350  0.59480  Biso   1.000  H
  H134     1.0000 0.23460  0.84350  0.90520  Biso   1.000  H
  H135     1.0000 0.26540  0.34350  0.59480  Biso   1.000  H
  H136     1.0000 0.73460  0.34350  0.90520  Biso   1.000  H
  C121     1.0000 0.18494  0.16480  0.44190  Biso   1.000  C
  C122     1.0000 0.81506  0.16480  0.05810  Biso   1.000  C
  C123     1.0000 0.68494  0.66480  0.44190  Biso   1.000  C
  C124     1.0000 0.31506  0.66480  0.05810  Biso   1.000  C
  C125     1.0000 0.81506  0.83520  0.55810  Biso   1.000  C
  C126     1.0000 0.18494  0.83520  0.94190  Biso   1.000  C
  C127     1.0000 0.31506  0.33520  0.55810  Biso   1.000  C
  C128     1.0000 0.68494  0.33520  0.94190  Biso   1.000  C
  H137     1.0000 0.17240  0.20150  0.43460  Biso   1.000  H
  H138     1.0000 0.82760  0.20150  0.06540  Biso   1.000  H
  H139     1.0000 0.67240  0.70150  0.43460  Biso   1.000  H
  H140     1.0000 0.32760  0.70150  0.06540  Biso   1.000  H
  H141     1.0000 0.82760  0.79850  0.56540  Biso   1.000  H
  H142     1.0000 0.17240  0.79850  0.93460  Biso   1.000  H
  H143     1.0000 0.32760  0.29850  0.56540  Biso   1.000  H
  H144     1.0000 0.67240  0.29850  0.93460  Biso   1.000  H
  C129     1.0000 0.20081  0.03910  0.49065  Biso   1.000  C
  C130     1.0000 0.79919  0.03910  0.00935  Biso   1.000  C
  C131     1.0000 0.70081  0.53910  0.49065  Biso   1.000  C
  C132     1.0000 0.29919  0.53910  0.00935  Biso   1.000  C
  C133     1.0000 0.79919  0.96090  0.50935  Biso   1.000  C
  C134     1.0000 0.20081  0.96090  0.99065  Biso   1.000  C
  C135     1.0000 0.29919  0.46090  0.50935  Biso   1.000  C
  C136     1.0000 0.70081  0.46090  0.99065  Biso   1.000  C
  H145     1.0000 0.19970  0.98620  0.51760  Biso   1.000  H
  H146     1.0000 0.80030  0.98620  0.98240  Biso   1.000  H
  H147     1.0000 0.69970  0.48620  0.51760  Biso   1.000  H
  H148     1.0000 0.30030  0.48620  0.98240  Biso   1.000  H
  H149     1.0000 0.80030  0.01380  0.48240  Biso   1.000  H
  H150     1.0000 0.19970  0.01380  0.01760  Biso   1.000  H
  H151     1.0000 0.30030  0.51380  0.48240  Biso   1.000  H
  H152     1.0000 0.69970  0.51380  0.01760  Biso   1.000  H
  C137     1.0000 0.22093  0.06210  0.46557  Biso   1.000  C
  C138     1.0000 0.77907  0.06210  0.03443  Biso   1.000  C
  C139     1.0000 0.72093  0.56210  0.46557  Biso   1.000  C
  C140     1.0000 0.27907  0.56210  0.03443  Biso   1.000  C
  C141     1.0000 0.77907  0.93790  0.53443  Biso   1.000  C
  C142     1.0000 0.22093  0.93790  0.96557  Biso   1.000  C
  C143     1.0000 0.27907  0.43790  0.53443  Biso   1.000  C
  C144     1.0000 0.72093  0.43790  0.96557  Biso   1.000  C
  C145     1.0000 0.24130  0.01060  0.48307  Biso   1.000  C
  C146     1.0000 0.75870  0.01060  0.01693  Biso   1.000  C
  C147     1.0000 0.74130  0.51060  0.48307  Biso   1.000  C
  C148     1.0000 0.25870  0.51060  0.01693  Biso   1.000  C
  C149     1.0000 0.75870  0.98940  0.51693  Biso   1.000  C
  C150     1.0000 0.24130  0.98940  0.98307  Biso   1.000  C
  C151     1.0000 0.25870  0.48940  0.51693  Biso   1.000  C
  C152     1.0000 0.74130  0.48940  0.98307  Biso   1.000  C
  C153     1.0000 0.26136  0.05410  0.49681  Biso   1.000  C
  C154     1.0000 0.73864  0.05410  0.00319  Biso   1.000  C
  C155     1.0000 0.76136  0.55410  0.49681  Biso   1.000  C
  C156     1.0000 0.23864  0.55410  0.00319  Biso   1.000  C
  C157     1.0000 0.73864  0.94590  0.50319  Biso   1.000  C
  C158     1.0000 0.26136  0.94590  0.99681  Biso   1.000  C
  C159     1.0000 0.23864  0.44590  0.50319  Biso   1.000  C
  C160     1.0000 0.76136  0.44590  0.99681  Biso   1.000  C
  H153     1.0000 0.26180  0.11540  0.49250  Biso   1.000  H
  H154     1.0000 0.73820  0.11540  0.00750  Biso   1.000  H
  H155     1.0000 0.76180  0.61540  0.49250  Biso   1.000  H
  H156     1.0000 0.23820  0.61540  0.00750  Biso   1.000  H
  H157     1.0000 0.73820  0.88460  0.50750  Biso   1.000  H
  H158     1.0000 0.26180  0.88460  0.99250  Biso   1.000  H
  H159     1.0000 0.23820  0.38460  0.50750  Biso   1.000  H
  H160     1.0000 0.76180  0.38460  0.99250  Biso   1.000  H
  C161     1.0000 0.28078  0.00810  0.51680  Biso   1.000  C
  C162     1.0000 0.71922  0.00810  0.98320  Biso   1.000  C
  C163     1.0000 0.78078  0.50810  0.51680  Biso   1.000  C
  C164     1.0000 0.21922  0.50810  0.98320  Biso   1.000  C
  C165     1.0000 0.71922  0.99190  0.48320  Biso   1.000  C
  C166     1.0000 0.28078  0.99190  0.01680  Biso   1.000  C
  C167     1.0000 0.21922  0.49190  0.48320  Biso   1.000  C
  C168     1.0000 0.78078  0.49190  0.01680  Biso   1.000  C
  C169     1.0000 0.28005  0.91770  0.52220  Biso   1.000  C
  C170     1.0000 0.71995  0.91770  0.97780  Biso   1.000  C
  C171     1.0000 0.78005  0.41770  0.52220  Biso   1.000  C
  C172     1.0000 0.21995  0.41770  0.97780  Biso   1.000  C
  C173     1.0000 0.71995  0.08230  0.47780  Biso   1.000  C
  C174     1.0000 0.28005  0.08230  0.02220  Biso   1.000  C
  C175     1.0000 0.21995  0.58230  0.47780  Biso   1.000  C
  C176     1.0000 0.78005  0.58230  0.02220  Biso   1.000  C
  H161     1.0000 0.29310  0.88580  0.53610  Biso   1.000  H
  H162     1.0000 0.70690  0.88580  0.96390  Biso   1.000  H
  H163     1.0000 0.79310  0.38580  0.53610  Biso   1.000  H
  H164     1.0000 0.20690  0.38580  0.96390  Biso   1.000  H
  H165     1.0000 0.70690  0.11420  0.46390  Biso   1.000  H
  H166     1.0000 0.29310  0.11420  0.03610  Biso   1.000  H
  H167     1.0000 0.20690  0.61420  0.46390  Biso   1.000  H
  H168     1.0000 0.79310  0.61420  0.03610  Biso   1.000  H
  C177     1.0000 0.26018  0.87540  0.50740  Biso   1.000  C
  C178     1.0000 0.73982  0.87540  0.99260  Biso   1.000  C
  C179     1.0000 0.76018  0.37540  0.50740  Biso   1.000  C
  C180     1.0000 0.23982  0.37540  0.99260  Biso   1.000  C
  C181     1.0000 0.73982  0.12460  0.49260  Biso   1.000  C
  C182     1.0000 0.26018  0.12460  0.00740  Biso   1.000  C
  C183     1.0000 0.23982  0.62460  0.49260  Biso   1.000  C
  C184     1.0000 0.76018  0.62460  0.00740  Biso   1.000  C
  H169     1.0000 0.25980  0.81400  0.51080  Biso   1.000  H
  H170     1.0000 0.74020  0.81400  0.98920  Biso   1.000  H
  H171     1.0000 0.75980  0.31400  0.51080  Biso   1.000  H
  H172     1.0000 0.24020  0.31400  0.98920  Biso   1.000  H
  H173     1.0000 0.74020  0.18600  0.48920  Biso   1.000  H
  H174     1.0000 0.25980  0.18600  0.01080  Biso   1.000  H
  H175     1.0000 0.24020  0.68600  0.48920  Biso   1.000  H
  H176     1.0000 0.75980  0.68600  0.01080  Biso   1.000  H
  C185     1.0000 0.24075  0.92060  0.48750  Biso   1.000  C
  C186     1.0000 0.75925  0.92060  0.01250  Biso   1.000  C
  C187     1.0000 0.74075  0.42060  0.48750  Biso   1.000  C
  C188     1.0000 0.25925  0.42060  0.01250  Biso   1.000  C
  C189     1.0000 0.75925  0.07940  0.51250  Biso   1.000  C
  C190     1.0000 0.24075  0.07940  0.98750  Biso   1.000  C
  C191     1.0000 0.25925  0.57940  0.51250  Biso   1.000  C
  C192     1.0000 0.74075  0.57940  0.98750  Biso   1.000  C
  H177     1.0000 0.22720  0.89030  0.47700  Biso   1.000  H
  H178     1.0000 0.77280  0.89030  0.02300  Biso   1.000  H
  H179     1.0000 0.72720  0.39030  0.47700  Biso   1.000  H
  H180     1.0000 0.27280  0.39030  0.02300  Biso   1.000  H
  H181     1.0000 0.77280  0.10970  0.52300  Biso   1.000  H
  H182     1.0000 0.22720  0.10970  0.97700  Biso   1.000  H
  H183     1.0000 0.27280  0.60970  0.52300  Biso   1.000  H
  H184     1.0000 0.72720  0.60970  0.97700  Biso   1.000  H
  C193     1.0000 0.32374  0.01910  0.53590  Biso   1.000  C
  C194     1.0000 0.67626  0.01910  0.96410  Biso   1.000  C
  C195     1.0000 0.82374  0.51910  0.53590  Biso   1.000  C
  C196     1.0000 0.17626  0.51910  0.96410  Biso   1.000  C
  C197     1.0000 0.67626  0.98090  0.46410  Biso   1.000  C
  C198     1.0000 0.32374  0.98090  0.03590  Biso   1.000  C
  C199     1.0000 0.17626  0.48090  0.46410  Biso   1.000  C
  C200     1.0000 0.82374  0.48090  0.03590  Biso   1.000  C
  C201     1.0000 0.32586  0.96720  0.46280  Biso   1.000  C
  C202     1.0000 0.67414  0.96720  0.03720  Biso   1.000  C
  C203     1.0000 0.82586  0.46720  0.46280  Biso   1.000  C
  C204     1.0000 0.17414  0.46720  0.03720  Biso   1.000  C
  C205     1.0000 0.67414  0.03280  0.53720  Biso   1.000  C
  C206     1.0000 0.32586  0.03280  0.96280  Biso   1.000  C
  C207     1.0000 0.17414  0.53280  0.53720  Biso   1.000  C
  C208     1.0000 0.82586  0.53280  0.96280  Biso   1.000  C
  H185     1.0000 0.31590  0.91730  0.46120  Biso   1.000  H
  H186     1.0000 0.68410  0.91730  0.03880  Biso   1.000  H
  H187     1.0000 0.81590  0.41730  0.46120  Biso   1.000  H
  H188     1.0000 0.18410  0.41730  0.03880  Biso   1.000  H
  H189     1.0000 0.68410  0.08270  0.53880  Biso   1.000  H
  H190     1.0000 0.31590  0.08270  0.96120  Biso   1.000  H
  H191     1.0000 0.18410  0.58270  0.53880  Biso   1.000  H
  H192     1.0000 0.81590  0.58270  0.96120  Biso   1.000  H
  H193     1.0000 0.32200  0.00430  0.41830  Biso   1.000  H
  H194     1.0000 0.67800  0.00430  0.08170  Biso   1.000  H
  H195     1.0000 0.82200  0.50430  0.41830  Biso   1.000  H
  H196     1.0000 0.17800  0.50430  0.08170  Biso   1.000  H
  H197     1.0000 0.67800  0.99570  0.58170  Biso   1.000  H
  H198     1.0000 0.32200  0.99570  0.91830  Biso   1.000  H
  H199     1.0000 0.17800  0.49570  0.58170  Biso   1.000  H
  H200     1.0000 0.82200  0.49570  0.91830  Biso   1.000  H
  H201     1.0000 0.34110  0.94680  0.46200  Biso   1.000  H
  H202     1.0000 0.65890  0.94680  0.03800  Biso   1.000  H
  H203     1.0000 0.84110  0.44680  0.46200  Biso   1.000  H
  H204     1.0000 0.15890  0.44680  0.03800  Biso   1.000  H
  H205     1.0000 0.65890  0.05320  0.53800  Biso   1.000  H
  H206     1.0000 0.34110  0.05320  0.96200  Biso   1.000  H
  H207     1.0000 0.15890  0.55320  0.53800  Biso   1.000  H
  H208     1.0000 0.84110  0.55320  0.96200  Biso   1.000  H
  C209     1.0000 0.33964  0.09550  0.53720  Biso   1.000  C
  C210     1.0000 0.66036  0.09550  0.96280  Biso   1.000  C
  C211     1.0000 0.83964  0.59550  0.53720  Biso   1.000  C
  C212     1.0000 0.16036  0.59550  0.96280  Biso   1.000  C
  C213     1.0000 0.66036  0.90450  0.46280  Biso   1.000  C
  C214     1.0000 0.33964  0.90450  0.03720  Biso   1.000  C
  C215     1.0000 0.16036  0.40450  0.46280  Biso   1.000  C
  C216     1.0000 0.83964  0.40450  0.03720  Biso   1.000  C
  H209     1.0000 0.33670  0.12920  0.49010  Biso   1.000  H
  H210     1.0000 0.66330  0.12920  0.00990  Biso   1.000  H
  H211     1.0000 0.83670  0.62920  0.49010  Biso   1.000  H
  H212     1.0000 0.16330  0.62920  0.00990  Biso   1.000  H
  H213     1.0000 0.66330  0.87080  0.50990  Biso   1.000  H
  H214     1.0000 0.33670  0.87080  0.99010  Biso   1.000  H
  H215     1.0000 0.16330  0.37080  0.50990  Biso   1.000  H
  H216     1.0000 0.83670  0.37080  0.99010  Biso   1.000  H
  H217     1.0000 0.33760  0.13250  0.58120  Biso   1.000  H
  H218     1.0000 0.66240  0.13250  0.91880  Biso   1.000  H
  H219     1.0000 0.83760  0.63250  0.58120  Biso   1.000  H
  H220     1.0000 0.16240  0.63250  0.91880  Biso   1.000  H
  H221     1.0000 0.66240  0.86750  0.41880  Biso   1.000  H
  H222     1.0000 0.33760  0.86750  0.08120  Biso   1.000  H
  H223     1.0000 0.16240  0.36750  0.41880  Biso   1.000  H
  H224     1.0000 0.83760  0.36750  0.08120  Biso   1.000  H
  H225     1.0000 0.35480  0.07390  0.54100  Biso   1.000  H
  H226     1.0000 0.64520  0.07390  0.95900  Biso   1.000  H
  H227     1.0000 0.85480  0.57390  0.54100  Biso   1.000  H
  H228     1.0000 0.14520  0.57390  0.95900  Biso   1.000  H
  H229     1.0000 0.64520  0.92610  0.45900  Biso   1.000  H
  H230     1.0000 0.35480  0.92610  0.04100  Biso   1.000  H
  H231     1.0000 0.14520  0.42610  0.45900  Biso   1.000  H
  H232     1.0000 0.85480  0.42610  0.04100  Biso   1.000  H
  C217     1.0000 0.32841  0.96770  0.60970  Biso   1.000  C
  C218     1.0000 0.67159  0.96770  0.89030  Biso   1.000  C
  C219     1.0000 0.82841  0.46770  0.60970  Biso   1.000  C
  C220     1.0000 0.17159  0.46770  0.89030  Biso   1.000  C
  C221     1.0000 0.67159  0.03230  0.39030  Biso   1.000  C
  C222     1.0000 0.32841  0.03230  0.10970  Biso   1.000  C
  C223     1.0000 0.17159  0.53230  0.39030  Biso   1.000  C
  C224     1.0000 0.82841  0.53230  0.10970  Biso   1.000  C
  H233     1.0000 0.31790  0.91960  0.61030  Biso   1.000  H
  H234     1.0000 0.68210  0.91960  0.88970  Biso   1.000  H
  H235     1.0000 0.81790  0.41960  0.61030  Biso   1.000  H
  H236     1.0000 0.18210  0.41960  0.88970  Biso   1.000  H
  H237     1.0000 0.68210  0.08040  0.38970  Biso   1.000  H
  H238     1.0000 0.31790  0.08040  0.11030  Biso   1.000  H
  H239     1.0000 0.18210  0.58040  0.38970  Biso   1.000  H
  H240     1.0000 0.81790  0.58040  0.11030  Biso   1.000  H
  H241     1.0000 0.34350  0.94460  0.61260  Biso   1.000  H
  H242     1.0000 0.65650  0.94460  0.88740  Biso   1.000  H
  H243     1.0000 0.84350  0.44460  0.61260  Biso   1.000  H
  H244     1.0000 0.15650  0.44460  0.88740  Biso   1.000  H
  H245     1.0000 0.65650  0.05540  0.38740  Biso   1.000  H
  H246     1.0000 0.34350  0.05540  0.11260  Biso   1.000  H
  H247     1.0000 0.15650  0.55540  0.38740  Biso   1.000  H
  H248     1.0000 0.84350  0.55540  0.11260  Biso   1.000  H
  H249     1.0000 0.32690  0.00570  0.65340  Biso   1.000  H
  H250     1.0000 0.67310  0.00570  0.84660  Biso   1.000  H
  H251     1.0000 0.82690  0.50570  0.65340  Biso   1.000  H
  H252     1.0000 0.17310  0.50570  0.84660  Biso   1.000  H
  H253     1.0000 0.67310  0.99430  0.34660  Biso   1.000  H
  H254     1.0000 0.32690  0.99430  0.15340  Biso   1.000  H
  H255     1.0000 0.17310  0.49430  0.34660  Biso   1.000  H
  H256     1.0000 0.82690  0.49430  0.15340  Biso   1.000  H
  C225     1.0000 0.17826  0.99620  0.74960  Biso   1.000  C
  C226     1.0000 0.82174  0.99620  0.75040  Biso   1.000  C
  C227     1.0000 0.67826  0.49620  0.74960  Biso   1.000  C
  C228     1.0000 0.32174  0.49620  0.75040  Biso   1.000  C
  C229     1.0000 0.82174  0.00380  0.25040  Biso   1.000  C
  C230     1.0000 0.17826  0.00380  0.24960  Biso   1.000  C
  C231     1.0000 0.32174  0.50380  0.25040  Biso   1.000  C
  C232     1.0000 0.67826  0.50380  0.24960  Biso   1.000  C
  C233     1.0000 0.16900  0.05320  0.68350  Biso   1.000  C
  C234     1.0000 0.83100  0.05320  0.81650  Biso   1.000  C
  C235     1.0000 0.66900  0.55320  0.68350  Biso   1.000  C
  C236     1.0000 0.33100  0.55320  0.81650  Biso   1.000  C
  C237     1.0000 0.83100  0.94680  0.31650  Biso   1.000  C
  C238     1.0000 0.16900  0.94680  0.18350  Biso   1.000  C
  C239     1.0000 0.33100  0.44680  0.31650  Biso   1.000  C
  C240     1.0000 0.66900  0.44680  0.18350  Biso   1.000  C
  C241     1.0000 0.16061  0.13400  0.70030  Biso   1.000  C
  C242     1.0000 0.83939  0.13400  0.79970  Biso   1.000  C
  C243     1.0000 0.66061  0.63400  0.70030  Biso   1.000  C
  C244     1.0000 0.33939  0.63400  0.79970  Biso   1.000  C
  C245     1.0000 0.83939  0.86600  0.29970  Biso   1.000  C
  C246     1.0000 0.16061  0.86600  0.20030  Biso   1.000  C
  C247     1.0000 0.33939  0.36600  0.29970  Biso   1.000  C
  C248     1.0000 0.66061  0.36600  0.20030  Biso   1.000  C
  H257     1.0000 0.15990  0.14900  0.75240  Biso   1.000  H
  H258     1.0000 0.84010  0.14900  0.74760  Biso   1.000  H
  H259     1.0000 0.65990  0.64900  0.75240  Biso   1.000  H
  H260     1.0000 0.34010  0.64900  0.74760  Biso   1.000  H
  H261     1.0000 0.84010  0.85100  0.24760  Biso   1.000  H
  H262     1.0000 0.15990  0.85100  0.25240  Biso   1.000  H
  H263     1.0000 0.34010  0.35100  0.24760  Biso   1.000  H
  H264     1.0000 0.65990  0.35100  0.25240  Biso   1.000  H
  C249     1.0000 0.15318  0.19440  0.64390  Biso   1.000  C
  C250     1.0000 0.84682  0.19440  0.85610  Biso   1.000  C
  C251     1.0000 0.65318  0.69440  0.64390  Biso   1.000  C
  C252     1.0000 0.34682  0.69440  0.85610  Biso   1.000  C
  C253     1.0000 0.84682  0.80560  0.35610  Biso   1.000  C
  C254     1.0000 0.15318  0.80560  0.14390  Biso   1.000  C
  C255     1.0000 0.34682  0.30560  0.35610  Biso   1.000  C
  C256     1.0000 0.65318  0.30560  0.14390  Biso   1.000  C
  C257     1.0000 0.14697  0.28440  0.67050  Biso   1.000  C
  C258     1.0000 0.85303  0.28440  0.82950  Biso   1.000  C
  C259     1.0000 0.64697  0.78440  0.67050  Biso   1.000  C
  C260     1.0000 0.35303  0.78440  0.82950  Biso   1.000  C
  C261     1.0000 0.85303  0.71560  0.32950  Biso   1.000  C
  C262     1.0000 0.14697  0.71560  0.17050  Biso   1.000  C
  C263     1.0000 0.35303  0.21560  0.32950  Biso   1.000  C
  C264     1.0000 0.64697  0.21560  0.17050  Biso   1.000  C
  C265     1.0000 0.15374  0.77280  0.45440  Biso   1.000  C
  C266     1.0000 0.84626  0.77280  0.04560  Biso   1.000  C
  C267     1.0000 0.65374  0.27280  0.45440  Biso   1.000  C
  C268     1.0000 0.34626  0.27280  0.04560  Biso   1.000  C
  C269     1.0000 0.84626  0.22720  0.54560  Biso   1.000  C
  C270     1.0000 0.15374  0.22720  0.95440  Biso   1.000  C
  C271     1.0000 0.34626  0.72720  0.54560  Biso   1.000  C
  C272     1.0000 0.65374  0.72720  0.95440  Biso   1.000  C
  C273     1.0000 0.14775  0.85980  0.48980  Biso   1.000  C
  C274     1.0000 0.85225  0.85980  0.01020  Biso   1.000  C
  C275     1.0000 0.64775  0.35980  0.48980  Biso   1.000  C
  C276     1.0000 0.35225  0.35980  0.01020  Biso   1.000  C
  C277     1.0000 0.85225  0.14020  0.51020  Biso   1.000  C
  C278     1.0000 0.14775  0.14020  0.98980  Biso   1.000  C
  C279     1.0000 0.35225  0.64020  0.51020  Biso   1.000  C
  C280     1.0000 0.64775  0.64020  0.98980  Biso   1.000  C
  C281     1.0000 0.12888  0.86160  0.53110  Biso   1.000  C
  C282     1.0000 0.87112  0.86160  0.96890  Biso   1.000  C
  C283     1.0000 0.62888  0.36160  0.53110  Biso   1.000  C
  C284     1.0000 0.37112  0.36160  0.96890  Biso   1.000  C
  C285     1.0000 0.87112  0.13840  0.46890  Biso   1.000  C
  C286     1.0000 0.12888  0.13840  0.03110  Biso   1.000  C
  C287     1.0000 0.37112  0.63840  0.46890  Biso   1.000  C
  C288     1.0000 0.62888  0.63840  0.03110  Biso   1.000  C
  H265     1.0000 0.12160  0.80850  0.53940  Biso   1.000  H
  H266     1.0000 0.87840  0.80850  0.96060  Biso   1.000  H
  H267     1.0000 0.62160  0.30850  0.53940  Biso   1.000  H
  H268     1.0000 0.37840  0.30850  0.96060  Biso   1.000  H
  H269     1.0000 0.87840  0.19150  0.46060  Biso   1.000  H
  H270     1.0000 0.12160  0.19150  0.03940  Biso   1.000  H
  H271     1.0000 0.37840  0.69150  0.46060  Biso   1.000  H
  H272     1.0000 0.62160  0.69150  0.03940  Biso   1.000  H
  C289     1.0000 0.12062  0.93680  0.55970  Biso   1.000  C
  C290     1.0000 0.87938  0.93680  0.94030  Biso   1.000  C
  C291     1.0000 0.62062  0.43680  0.55970  Biso   1.000  C
  C292     1.0000 0.37938  0.43680  0.94030  Biso   1.000  C
  C293     1.0000 0.87938  0.06320  0.44030  Biso   1.000  C
  C294     1.0000 0.12062  0.06320  0.05970  Biso   1.000  C
  C295     1.0000 0.37938  0.56320  0.44030  Biso   1.000  C
  C296     1.0000 0.62062  0.56320  0.05970  Biso   1.000  C
  C297     1.0000 0.10037  0.92980  0.60400  Biso   1.000  C
  C298     1.0000 0.89963  0.92980  0.89600  Biso   1.000  C
  C299     1.0000 0.60037  0.42980  0.60400  Biso   1.000  C
  C300     1.0000 0.39963  0.42980  0.89600  Biso   1.000  C
  C301     1.0000 0.89963  0.07020  0.39600  Biso   1.000  C
  C302     1.0000 0.10037  0.07020  0.10400  Biso   1.000  C
  C303     1.0000 0.39963  0.57020  0.39600  Biso   1.000  C
  C304     1.0000 0.60037  0.57020  0.10400  Biso   1.000  C
  C305     1.0000 0.27976  0.29280  0.85310  Biso   1.000  C
  C306     1.0000 0.72024  0.29280  0.64690  Biso   1.000  C
  C307     1.0000 0.77976  0.79280  0.85310  Biso   1.000  C
  C308     1.0000 0.22024  0.79280  0.64690  Biso   1.000  C
  C309     1.0000 0.72024  0.70720  0.14690  Biso   1.000  C
  C310     1.0000 0.27976  0.70720  0.35310  Biso   1.000  C
  C311     1.0000 0.22024  0.20720  0.14690  Biso   1.000  C
  C312     1.0000 0.77976  0.20720  0.35310  Biso   1.000  C
  C313     1.0000 0.29407  0.25710  0.79360  Biso   1.000  C
  C314     1.0000 0.70593  0.25710  0.70640  Biso   1.000  C
  C315     1.0000 0.79407  0.75710  0.79360  Biso   1.000  C
  C316     1.0000 0.20593  0.75710  0.70640  Biso   1.000  C
  C317     1.0000 0.70593  0.74290  0.20640  Biso   1.000  C
  C318     1.0000 0.29407  0.74290  0.29360  Biso   1.000  C
  C319     1.0000 0.20593  0.24290  0.20640  Biso   1.000  C
  C320     1.0000 0.79407  0.24290  0.29360  Biso   1.000  C
  C321     1.0000 0.31520  0.23000  0.81620  Biso   1.000  C
  C322     1.0000 0.68480  0.23000  0.68380  Biso   1.000  C
  C323     1.0000 0.81520  0.73000  0.81620  Biso   1.000  C
  C324     1.0000 0.18480  0.73000  0.68380  Biso   1.000  C
  C325     1.0000 0.68480  0.77000  0.18380  Biso   1.000  C
  C326     1.0000 0.31520  0.77000  0.31620  Biso   1.000  C
  C327     1.0000 0.18480  0.27000  0.18380  Biso   1.000  C
  C328     1.0000 0.81520  0.27000  0.31620  Biso   1.000  C
  H273     1.0000 0.31990  0.22940  0.86920  Biso   1.000  H
  H274     1.0000 0.68010  0.22940  0.63080  Biso   1.000  H
  H275     1.0000 0.81990  0.72940  0.86920  Biso   1.000  H
  H276     1.0000 0.18010  0.72940  0.63080  Biso   1.000  H
  H277     1.0000 0.68010  0.77060  0.13080  Biso   1.000  H
  H278     1.0000 0.31990  0.77060  0.36920  Biso   1.000  H
  H279     1.0000 0.18010  0.27060  0.13080  Biso   1.000  H
  H280     1.0000 0.81990  0.27060  0.36920  Biso   1.000  H
  C329     1.0000 0.33006  0.20340  0.76480  Biso   1.000  C
  C330     1.0000 0.66994  0.20340  0.73520  Biso   1.000  C
  C331     1.0000 0.83006  0.70340  0.76480  Biso   1.000  C
  C332     1.0000 0.16994  0.70340  0.73520  Biso   1.000  C
  C333     1.0000 0.66994  0.79660  0.23520  Biso   1.000  C
  C334     1.0000 0.33006  0.79660  0.26480  Biso   1.000  C
  C335     1.0000 0.16994  0.29660  0.23520  Biso   1.000  C
  C336     1.0000 0.83006  0.29660  0.26480  Biso   1.000  C
  C337     1.0000 0.35361  0.18210  0.79670  Biso   1.000  C
  C338     1.0000 0.64639  0.18210  0.70330  Biso   1.000  C
  C339     1.0000 0.85361  0.68210  0.79670  Biso   1.000  C
  C340     1.0000 0.14639  0.68210  0.70330  Biso   1.000  C
  C341     1.0000 0.64639  0.81790  0.20330  Biso   1.000  C
  C342     1.0000 0.35361  0.81790  0.29670  Biso   1.000  C
  C343     1.0000 0.14639  0.31790  0.20330  Biso   1.000  C
  C344     1.0000 0.85361  0.31790  0.29670  Biso   1.000  C
  C345     1.0000 0.22010  0.21360  0.66160  Biso   1.000  C
  C346     1.0000 0.77990  0.21360  0.83840  Biso   1.000  C
  C347     1.0000 0.72010  0.71360  0.66160  Biso   1.000  C
  C348     1.0000 0.27990  0.71360  0.83840  Biso   1.000  C
  C349     1.0000 0.77990  0.78640  0.33840  Biso   1.000  C
  C350     1.0000 0.22010  0.78640  0.16160  Biso   1.000  C
  C351     1.0000 0.27990  0.28640  0.33840  Biso   1.000  C
  C352     1.0000 0.72010  0.28640  0.16160  Biso   1.000  C
  C353     1.0000 0.24275  0.17130  0.65640  Biso   1.000  C
  C354     1.0000 0.75725  0.17130  0.84360  Biso   1.000  C
  C355     1.0000 0.74275  0.67130  0.65640  Biso   1.000  C
  C356     1.0000 0.25725  0.67130  0.84360  Biso   1.000  C
  C357     1.0000 0.75725  0.82870  0.34360  Biso   1.000  C
  C358     1.0000 0.24275  0.82870  0.15640  Biso   1.000  C
  C359     1.0000 0.25725  0.32870  0.34360  Biso   1.000  C
  C360     1.0000 0.74275  0.32870  0.15640  Biso   1.000  C
  C361     1.0000 0.24827  0.09970  0.70430  Biso   1.000  C
  C362     1.0000 0.75173  0.09970  0.79570  Biso   1.000  C
  C363     1.0000 0.74827  0.59970  0.70430  Biso   1.000  C
  C364     1.0000 0.25173  0.59970  0.79570  Biso   1.000  C
  C365     1.0000 0.75173  0.90030  0.29570  Biso   1.000  C
  C366     1.0000 0.24827  0.90030  0.20430  Biso   1.000  C
  C367     1.0000 0.25173  0.40030  0.29570  Biso   1.000  C
  C368     1.0000 0.74827  0.40030  0.20430  Biso   1.000  C
  H281     1.0000 0.23730  0.07720  0.73390  Biso   1.000  H
  H282     1.0000 0.76270  0.07720  0.76610  Biso   1.000  H
  H283     1.0000 0.73730  0.57720  0.73390  Biso   1.000  H
  H284     1.0000 0.26270  0.57720  0.76610  Biso   1.000  H
  H285     1.0000 0.76270  0.92280  0.26610  Biso   1.000  H
  H286     1.0000 0.23730  0.92280  0.23390  Biso   1.000  H
  H287     1.0000 0.26270  0.42280  0.26610  Biso   1.000  H
  H288     1.0000 0.73730  0.42280  0.23390  Biso   1.000  H
  C369     1.0000 0.26867  0.06060  0.71030  Biso   1.000  C
  C370     1.0000 0.73133  0.06060  0.78970  Biso   1.000  C
  C371     1.0000 0.76867  0.56060  0.71030  Biso   1.000  C
  C372     1.0000 0.23133  0.56060  0.78970  Biso   1.000  C
  C373     1.0000 0.73133  0.93940  0.28970  Biso   1.000  C
  C374     1.0000 0.26867  0.93940  0.21030  Biso   1.000  C
  C375     1.0000 0.23133  0.43940  0.28970  Biso   1.000  C
  C376     1.0000 0.76867  0.43940  0.21030  Biso   1.000  C
  C377     1.0000 0.27228  0.98030  0.76030  Biso   1.000  C
  C378     1.0000 0.72772  0.98030  0.73970  Biso   1.000  C
  C379     1.0000 0.77228  0.48030  0.76030  Biso   1.000  C
  C380     1.0000 0.22772  0.48030  0.73970  Biso   1.000  C
  C381     1.0000 0.72772  0.01970  0.23970  Biso   1.000  C
  C382     1.0000 0.27228  0.01970  0.26030  Biso   1.000  C
  C383     1.0000 0.22772  0.51970  0.23970  Biso   1.000  C
  C384     1.0000 0.77228  0.51970  0.26030  Biso   1.000  C
  C385     1.0000 0.02304  0.23120  0.40460  Biso   1.000  C
  C386     1.0000 0.97696  0.23120  0.09540  Biso   1.000  C
  C387     1.0000 0.52304  0.73120  0.40460  Biso   1.000  C
  C388     1.0000 0.47696  0.73120  0.09540  Biso   1.000  C
  C389     1.0000 0.97696  0.76880  0.59540  Biso   1.000  C
  C390     1.0000 0.02304  0.76880  0.90460  Biso   1.000  C
  C391     1.0000 0.47696  0.26880  0.59540  Biso   1.000  C
  C392     1.0000 0.52304  0.26880  0.90460  Biso   1.000  C
  C393     1.0000 0.00799  0.15390  0.41150  Biso   1.000  C
  C394     1.0000 0.99201  0.15390  0.08850  Biso   1.000  C
  C395     1.0000 0.50799  0.65390  0.41150  Biso   1.000  C
  C396     1.0000 0.49201  0.65390  0.08850  Biso   1.000  C
  C397     1.0000 0.99201  0.84610  0.58850  Biso   1.000  C
  C398     1.0000 0.00799  0.84610  0.91150  Biso   1.000  C
  C399     1.0000 0.49201  0.34610  0.58850  Biso   1.000  C
  C400     1.0000 0.50799  0.34610  0.91150  Biso   1.000  C
  C401     1.0000 0.99040  0.14240  0.35670  Biso   1.000  C
  C402     1.0000 0.00960  0.14240  0.14330  Biso   1.000  C
  C403     1.0000 0.49040  0.64240  0.35670  Biso   1.000  C
  C404     1.0000 0.50960  0.64240  0.14330  Biso   1.000  C
  C405     1.0000 0.00960  0.85760  0.64330  Biso   1.000  C
  C406     1.0000 0.99040  0.85760  0.85670  Biso   1.000  C
  C407     1.0000 0.50960  0.35760  0.64330  Biso   1.000  C
  C408     1.0000 0.49040  0.35760  0.85670  Biso   1.000  C
  H289     1.0000 0.98870  0.18270  0.31580  Biso   1.000  H
  H290     1.0000 0.01130  0.18270  0.18420  Biso   1.000  H
  H291     1.0000 0.48870  0.68270  0.31580  Biso   1.000  H
  H292     1.0000 0.51130  0.68270  0.18420  Biso   1.000  H
  H293     1.0000 0.01130  0.81730  0.68420  Biso   1.000  H
  H294     1.0000 0.98870  0.81730  0.81580  Biso   1.000  H
  H295     1.0000 0.51130  0.31730  0.68420  Biso   1.000  H
  H296     1.0000 0.48870  0.31730  0.81580  Biso   1.000  H
  C409     1.0000 0.97497  0.07520  0.35760  Biso   1.000  C
  C410     1.0000 0.02503  0.07520  0.14240  Biso   1.000  C
  C411     1.0000 0.47497  0.57520  0.35760  Biso   1.000  C
  C412     1.0000 0.52503  0.57520  0.14240  Biso   1.000  C
  C413     1.0000 0.02503  0.92480  0.64240  Biso   1.000  C
  C414     1.0000 0.97497  0.92480  0.85760  Biso   1.000  C
  C415     1.0000 0.52503  0.42480  0.64240  Biso   1.000  C
  C416     1.0000 0.47497  0.42480  0.85760  Biso   1.000  C
  C417     1.0000 0.95696  0.07470  0.29060  Biso   1.000  C
  C418     1.0000 0.04304  0.07470  0.20940  Biso   1.000  C
  C419     1.0000 0.45696  0.57470  0.29060  Biso   1.000  C
  C420     1.0000 0.54304  0.57470  0.20940  Biso   1.000  C
  C421     1.0000 0.04304  0.92530  0.70940  Biso   1.000  C
  C422     1.0000 0.95696  0.92530  0.79060  Biso   1.000  C
  C423     1.0000 0.54304  0.42530  0.70940  Biso   1.000  C
  C424     1.0000 0.45696  0.42530  0.79060  Biso   1.000  C
  C425     1.0000 0.05403  0.69590  0.12470  Biso   1.000  C
  C426     1.0000 0.94597  0.69590  0.37530  Biso   1.000  C
  C427     1.0000 0.55403  0.19590  0.12470  Biso   1.000  C
  C428     1.0000 0.44597  0.19590  0.37530  Biso   1.000  C
  C429     1.0000 0.94597  0.30410  0.87530  Biso   1.000  C
  C430     1.0000 0.05403  0.30410  0.62470  Biso   1.000  C
  C431     1.0000 0.44597  0.80410  0.87530  Biso   1.000  C
  C432     1.0000 0.55403  0.80410  0.62470  Biso   1.000  C
  C433     1.0000 0.03082  0.67980  0.14850  Biso   1.000  C
  C434     1.0000 0.96918  0.67980  0.35150  Biso   1.000  C
  C435     1.0000 0.53082  0.17980  0.14850  Biso   1.000  C
  C436     1.0000 0.46918  0.17980  0.35150  Biso   1.000  C
  C437     1.0000 0.96918  0.32020  0.85150  Biso   1.000  C
  C438     1.0000 0.03082  0.32020  0.64850  Biso   1.000  C
  C439     1.0000 0.46918  0.82020  0.85150  Biso   1.000  C
  C440     1.0000 0.53082  0.82020  0.64850  Biso   1.000  C
  C441     1.0000 0.01960  0.60660  0.12560  Biso   1.000  C
  C442     1.0000 0.98040  0.60660  0.37440  Biso   1.000  C
  C443     1.0000 0.51960  0.10660  0.12560  Biso   1.000  C
  C444     1.0000 0.48040  0.10660  0.37440  Biso   1.000  C
  C445     1.0000 0.98040  0.39340  0.87440  Biso   1.000  C
  C446     1.0000 0.01960  0.39340  0.62560  Biso   1.000  C
  C447     1.0000 0.48040  0.89340  0.87440  Biso   1.000  C
  C448     1.0000 0.51960  0.89340  0.62560  Biso   1.000  C
  H297     1.0000 0.02670  0.56500  0.09650  Biso   1.000  H
  H298     1.0000 0.97330  0.56500  0.40350  Biso   1.000  H
  H299     1.0000 0.52670  0.06500  0.09650  Biso   1.000  H
  H300     1.0000 0.47330  0.06500  0.40350  Biso   1.000  H
  H301     1.0000 0.97330  0.43500  0.90350  Biso   1.000  H
  H302     1.0000 0.02670  0.43500  0.59650  Biso   1.000  H
  H303     1.0000 0.47330  0.93500  0.90350  Biso   1.000  H
  H304     1.0000 0.52670  0.93500  0.59650  Biso   1.000  H
  C449     1.0000 0.99798  0.59020  0.14360  Biso   1.000  C
  C450     1.0000 0.00202  0.59020  0.35640  Biso   1.000  C
  C451     1.0000 0.49798  0.09020  0.14360  Biso   1.000  C
  C452     1.0000 0.50202  0.09020  0.35640  Biso   1.000  C
  C453     1.0000 0.00202  0.40980  0.85640  Biso   1.000  C
  C454     1.0000 0.99798  0.40980  0.64360  Biso   1.000  C
  C455     1.0000 0.50202  0.90980  0.85640  Biso   1.000  C
  C456     1.0000 0.49798  0.90980  0.64360  Biso   1.000  C
  C457     1.0000 0.98856  0.49900  0.11650  Biso   1.000  C
  C458     1.0000 0.01144  0.49900  0.38350  Biso   1.000  C
  C459     1.0000 0.48856  0.99900  0.11650  Biso   1.000  C
  C460     1.0000 0.51144  0.99900  0.38350  Biso   1.000  C
  C461     1.0000 0.01144  0.50100  0.88350  Biso   1.000  C
  C462     1.0000 0.98856  0.50100  0.61650  Biso   1.000  C
  C463     1.0000 0.51144  0.00100  0.88350  Biso   1.000  C
  C464     1.0000 0.48856  0.00100  0.61650  Biso   1.000  C
  F1       1.0000 0.20098  0.98950  0.74780  Biso   1.000  F
  F2       1.0000 0.79902  0.98950  0.75220  Biso   1.000  F
  F3       1.0000 0.70098  0.48950  0.74780  Biso   1.000  F
  F4       1.0000 0.29902  0.48950  0.75220  Biso   1.000  F
  F5       1.0000 0.79902  0.01050  0.25220  Biso   1.000  F
  F6       1.0000 0.20098  0.01050  0.24780  Biso   1.000  F
  F7       1.0000 0.29902  0.51050  0.25220  Biso   1.000  F
  F8       1.0000 0.70098  0.51050  0.24780  Biso   1.000  F
  F9       1.0000 0.17512  0.02440  0.81760  Biso   1.000  F
  F10      1.0000 0.82488  0.02440  0.68240  Biso   1.000  F
  F11      1.0000 0.67512  0.52440  0.81760  Biso   1.000  F
  F12      1.0000 0.32488  0.52440  0.68240  Biso   1.000  F
  F13      1.0000 0.82488  0.97560  0.18240  Biso   1.000  F
  F14      1.0000 0.17512  0.97560  0.31760  Biso   1.000  F
  F15      1.0000 0.32488  0.47560  0.18240  Biso   1.000  F
  F16      1.0000 0.67512  0.47560  0.31760  Biso   1.000  F
  F17      1.0000 0.17083  0.91910  0.74930  Biso   1.000  F
  F18      1.0000 0.82917  0.91910  0.75070  Biso   1.000  F
  F19      1.0000 0.67083  0.41910  0.74930  Biso   1.000  F
  F20      1.0000 0.32917  0.41910  0.75070  Biso   1.000  F
  F21      1.0000 0.82917  0.08090  0.25070  Biso   1.000  F
  F22      1.0000 0.17083  0.08090  0.24930  Biso   1.000  F
  F23      1.0000 0.32917  0.58090  0.25070  Biso   1.000  F
  F24      1.0000 0.67083  0.58090  0.24930  Biso   1.000  F
  F25      1.0000 0.19717  0.96180  0.73860  Biso   1.000  F
  F26      1.0000 0.80283  0.96180  0.76140  Biso   1.000  F
  F27      1.0000 0.69717  0.46180  0.73860  Biso   1.000  F
  F28      1.0000 0.30283  0.46180  0.76140  Biso   1.000  F
  F29      1.0000 0.80283  0.03820  0.26140  Biso   1.000  F
  F30      1.0000 0.19717  0.03820  0.23860  Biso   1.000  F
  F31      1.0000 0.30283  0.53820  0.26140  Biso   1.000  F
  F32      1.0000 0.69717  0.53820  0.23860  Biso   1.000  F
  F33      1.0000 0.17981  0.04110  0.81910  Biso   1.000  F
  F34      1.0000 0.82019  0.04110  0.68090  Biso   1.000  F
  F35      1.0000 0.67981  0.54110  0.81910  Biso   1.000  F
  F36      1.0000 0.32019  0.54110  0.68090  Biso   1.000  F
  F37      1.0000 0.82019  0.95890  0.18090  Biso   1.000  F
  F38      1.0000 0.17981  0.95890  0.31910  Biso   1.000  F
  F39      1.0000 0.32019  0.45890  0.18090  Biso   1.000  F
  F40      1.0000 0.67981  0.45890  0.31910  Biso   1.000  F
  F41      1.0000 0.16394  0.92510  0.75210  Biso   1.000  F
  F42      1.0000 0.83606  0.92510  0.74790  Biso   1.000  F
  F43      1.0000 0.66394  0.42510  0.75210  Biso   1.000  F
  F44      1.0000 0.33606  0.42510  0.74790  Biso   1.000  F
  F45      1.0000 0.83606  0.07490  0.24790  Biso   1.000  F
  F46      1.0000 0.16394  0.07490  0.25210  Biso   1.000  F
  F47      1.0000 0.33606  0.57490  0.24790  Biso   1.000  F
  F48      1.0000 0.66394  0.57490  0.25210  Biso   1.000  F
  F49      1.0000 0.14083  0.28750  0.74030  Biso   1.000  F
  F50      1.0000 0.85917  0.28750  0.75970  Biso   1.000  F
  F51      1.0000 0.64083  0.78750  0.74030  Biso   1.000  F
  F52      1.0000 0.35917  0.78750  0.75970  Biso   1.000  F
  F53      1.0000 0.85917  0.71250  0.25970  Biso   1.000  F
  F54      1.0000 0.14083  0.71250  0.24030  Biso   1.000  F
  F55      1.0000 0.35917  0.21250  0.25970  Biso   1.000  F
  F56      1.0000 0.64083  0.21250  0.24030  Biso   1.000  F
  F57      1.0000 0.13279  0.32500  0.62070  Biso   1.000  F
  F58      1.0000 0.86721  0.32500  0.87930  Biso   1.000  F
  F59      1.0000 0.63279  0.82500  0.62070  Biso   1.000  F
  F60      1.0000 0.36721  0.82500  0.87930  Biso   1.000  F
  F61      1.0000 0.86721  0.67500  0.37930  Biso   1.000  F
  F62      1.0000 0.13279  0.67500  0.12070  Biso   1.000  F
  F63      1.0000 0.36721  0.17500  0.37930  Biso   1.000  F
  F64      1.0000 0.63279  0.17500  0.12070  Biso   1.000  F
  F65      1.0000 0.16659  0.33550  0.67170  Biso   1.000  F
  F66      1.0000 0.83341  0.33550  0.82830  Biso   1.000  F
  F67      1.0000 0.66659  0.83550  0.67170  Biso   1.000  F
  F68      1.0000 0.33341  0.83550  0.82830  Biso   1.000  F
  F69      1.0000 0.83341  0.66450  0.32830  Biso   1.000  F
  F70      1.0000 0.16659  0.66450  0.17170  Biso   1.000  F
  F71      1.0000 0.33341  0.16450  0.32830  Biso   1.000  F
  F72      1.0000 0.66659  0.16450  0.17170  Biso   1.000  F
  F73      1.0000 0.14920  0.29560  0.74580  Biso   1.000  F
  F74      1.0000 0.85080  0.29560  0.75420  Biso   1.000  F
  F75      1.0000 0.64920  0.79560  0.74580  Biso   1.000  F
  F76      1.0000 0.35080  0.79560  0.75420  Biso   1.000  F
  F77      1.0000 0.85080  0.70440  0.25420  Biso   1.000  F
  F78      1.0000 0.14920  0.70440  0.24580  Biso   1.000  F
  F79      1.0000 0.35080  0.20440  0.25420  Biso   1.000  F
  F80      1.0000 0.64920  0.20440  0.24580  Biso   1.000  F
  F81      1.0000 0.13240  0.28170  0.72520  Biso   1.000  F
  F82      1.0000 0.86760  0.28170  0.77480  Biso   1.000  F
  F83      1.0000 0.63240  0.78170  0.72520  Biso   1.000  F
  F84      1.0000 0.36760  0.78170  0.77480  Biso   1.000  F
  F85      1.0000 0.86760  0.71830  0.27480  Biso   1.000  F
  F86      1.0000 0.13240  0.71830  0.22520  Biso   1.000  F
  F87      1.0000 0.36760  0.21830  0.27480  Biso   1.000  F
  F88      1.0000 0.63240  0.21830  0.22520  Biso   1.000  F
  F89      1.0000 0.14270  0.34220  0.62500  Biso   1.000  F
  F90      1.0000 0.85730  0.34220  0.87500  Biso   1.000  F
  F91      1.0000 0.64270  0.84220  0.62500  Biso   1.000  F
  F92      1.0000 0.35730  0.84220  0.87500  Biso   1.000  F
  F93      1.0000 0.85730  0.65780  0.37500  Biso   1.000  F
  F94      1.0000 0.14270  0.65780  0.12500  Biso   1.000  F
  F95      1.0000 0.35730  0.15780  0.37500  Biso   1.000  F
  F96      1.0000 0.64270  0.15780  0.12500  Biso   1.000  F
  F97      1.0000 0.16460  0.32290  0.71660  Biso   1.000  F
  F98      1.0000 0.83540  0.32290  0.78340  Biso   1.000  F
  F99      1.0000 0.66460  0.82290  0.71660  Biso   1.000  F
  F100     1.0000 0.33540  0.82290  0.78340  Biso   1.000  F
  F101     1.0000 0.83540  0.67710  0.28340  Biso   1.000  F
  F102     1.0000 0.16460  0.67710  0.21660  Biso   1.000  F
  F103     1.0000 0.33540  0.17710  0.28340  Biso   1.000  F
  F104     1.0000 0.66460  0.17710  0.21660  Biso   1.000  F
  F105     1.0000 0.15850  0.34510  0.65010  Biso   1.000  F
  F106     1.0000 0.84150  0.34510  0.84990  Biso   1.000  F
  F107     1.0000 0.65850  0.84510  0.65010  Biso   1.000  F
  F108     1.0000 0.34150  0.84510  0.84990  Biso   1.000  F
  F109     1.0000 0.84150  0.65490  0.34990  Biso   1.000  F
  F110     1.0000 0.15850  0.65490  0.15010  Biso   1.000  F
  F111     1.0000 0.34150  0.15490  0.34990  Biso   1.000  F
  F112     1.0000 0.65850  0.15490  0.15010  Biso   1.000  F
  F113     1.0000 0.12580  0.30310  0.63460  Biso   1.000  F
  F114     1.0000 0.87420  0.30310  0.86540  Biso   1.000  F
  F115     1.0000 0.62580  0.80310  0.63460  Biso   1.000  F
  F116     1.0000 0.37420  0.80310  0.86540  Biso   1.000  F
  F117     1.0000 0.87420  0.69690  0.36540  Biso   1.000  F
  F118     1.0000 0.12580  0.69690  0.13460  Biso   1.000  F
  F119     1.0000 0.37420  0.19690  0.36540  Biso   1.000  F
  F120     1.0000 0.62580  0.19690  0.13460  Biso   1.000  F
  F121     1.0000 0.16046  0.78530  0.38240  Biso   1.000  F
  F122     1.0000 0.83954  0.78530  0.11760  Biso   1.000  F
  F123     1.0000 0.66046  0.28530  0.38240  Biso   1.000  F
  F124     1.0000 0.33954  0.28530  0.11760  Biso   1.000  F
  F125     1.0000 0.83954  0.21470  0.61760  Biso   1.000  F
  F126     1.0000 0.16046  0.21470  0.88240  Biso   1.000  F
  F127     1.0000 0.33954  0.71470  0.61760  Biso   1.000  F
  F128     1.0000 0.66046  0.71470  0.88240  Biso   1.000  F
  F129     1.0000 0.16934  0.73370  0.49310  Biso   1.000  F
  F130     1.0000 0.83066  0.73370  0.00690  Biso   1.000  F
  F131     1.0000 0.66934  0.23370  0.49310  Biso   1.000  F
  F132     1.0000 0.33066  0.23370  0.00690  Biso   1.000  F
  F133     1.0000 0.83066  0.26630  0.50690  Biso   1.000  F
  F134     1.0000 0.16934  0.26630  0.99310  Biso   1.000  F
  F135     1.0000 0.33066  0.76630  0.50690  Biso   1.000  F
  F136     1.0000 0.66934  0.76630  0.99310  Biso   1.000  F
  F137     1.0000 0.13745  0.71020  0.46400  Biso   1.000  F
  F138     1.0000 0.86255  0.71020  0.03600  Biso   1.000  F
  F139     1.0000 0.63745  0.21020  0.46400  Biso   1.000  F
  F140     1.0000 0.36255  0.21020  0.03600  Biso   1.000  F
  F141     1.0000 0.86255  0.28980  0.53600  Biso   1.000  F
  F142     1.0000 0.13745  0.28980  0.96400  Biso   1.000  F
  F143     1.0000 0.36255  0.78980  0.53600  Biso   1.000  F
  F144     1.0000 0.63745  0.78980  0.96400  Biso   1.000  F
  F145     1.0000 0.14320  0.70480  0.46170  Biso   1.000  F
  F146     1.0000 0.85680  0.70480  0.03830  Biso   1.000  F
  F147     1.0000 0.64320  0.20480  0.46170  Biso   1.000  F
  F148     1.0000 0.35680  0.20480  0.03830  Biso   1.000  F
  F149     1.0000 0.85680  0.29520  0.53830  Biso   1.000  F
  F150     1.0000 0.14320  0.29520  0.96170  Biso   1.000  F
  F151     1.0000 0.35680  0.79520  0.53830  Biso   1.000  F
  F152     1.0000 0.64320  0.79520  0.96170  Biso   1.000  F
  F153     1.0000 0.15260  0.76960  0.38320  Biso   1.000  F
  F154     1.0000 0.84740  0.76960  0.11680  Biso   1.000  F
  F155     1.0000 0.65260  0.26960  0.38320  Biso   1.000  F
  F156     1.0000 0.34740  0.26960  0.11680  Biso   1.000  F
  F157     1.0000 0.84740  0.23040  0.61680  Biso   1.000  F
  F158     1.0000 0.15260  0.23040  0.88320  Biso   1.000  F
  F159     1.0000 0.34740  0.73040  0.61680  Biso   1.000  F
  F160     1.0000 0.65260  0.73040  0.88320  Biso   1.000  F
  F161     1.0000 0.17380  0.74440  0.49170  Biso   1.000  F
  F162     1.0000 0.82620  0.74440  0.00830  Biso   1.000  F
  F163     1.0000 0.67380  0.24440  0.49170  Biso   1.000  F
  F164     1.0000 0.32620  0.24440  0.00830  Biso   1.000  F
  F165     1.0000 0.82620  0.25560  0.50830  Biso   1.000  F
  F166     1.0000 0.17380  0.25560  0.99170  Biso   1.000  F
  F167     1.0000 0.32620  0.75560  0.50830  Biso   1.000  F
  F168     1.0000 0.67380  0.75560  0.99170  Biso   1.000  F
  F169     1.0000 0.13660  0.71990  0.43880  Biso   1.000  F
  F170     1.0000 0.86340  0.71990  0.06120  Biso   1.000  F
  F171     1.0000 0.63660  0.21990  0.43880  Biso   1.000  F
  F172     1.0000 0.36340  0.21990  0.06120  Biso   1.000  F
  F173     1.0000 0.86340  0.28010  0.56120  Biso   1.000  F
  F174     1.0000 0.13660  0.28010  0.93880  Biso   1.000  F
  F175     1.0000 0.36340  0.78010  0.56120  Biso   1.000  F
  F176     1.0000 0.63660  0.78010  0.93880  Biso   1.000  F
  F177     1.0000 0.17600  0.74980  0.47920  Biso   1.000  F
  F178     1.0000 0.82400  0.74980  0.02080  Biso   1.000  F
  F179     1.0000 0.67600  0.24980  0.47920  Biso   1.000  F
  F180     1.0000 0.32400  0.24980  0.02080  Biso   1.000  F
  F181     1.0000 0.82400  0.25020  0.52080  Biso   1.000  F
  F182     1.0000 0.17600  0.25020  0.97920  Biso   1.000  F
  F183     1.0000 0.32400  0.75020  0.52080  Biso   1.000  F
  F184     1.0000 0.67600  0.75020  0.97920  Biso   1.000  F
  F185     1.0000 0.15490  0.78510  0.38050  Biso   1.000  F
  F186     1.0000 0.84510  0.78510  0.11950  Biso   1.000  F
  F187     1.0000 0.65490  0.28510  0.38050  Biso   1.000  F
  F188     1.0000 0.34510  0.28510  0.11950  Biso   1.000  F
  F189     1.0000 0.84510  0.21490  0.61950  Biso   1.000  F
  F190     1.0000 0.15490  0.21490  0.88050  Biso   1.000  F
  F191     1.0000 0.34510  0.71490  0.61950  Biso   1.000  F
  F192     1.0000 0.65490  0.71490  0.88050  Biso   1.000  F
  F193     1.0000 0.10407  0.93290  0.67220  Biso   1.000  F
  F194     1.0000 0.89593  0.93290  0.82780  Biso   1.000  F
  F195     1.0000 0.60407  0.43290  0.67220  Biso   1.000  F
  F196     1.0000 0.39593  0.43290  0.82780  Biso   1.000  F
  F197     1.0000 0.89593  0.06710  0.32780  Biso   1.000  F
  F198     1.0000 0.10407  0.06710  0.17220  Biso   1.000  F
  F199     1.0000 0.39593  0.56710  0.32780  Biso   1.000  F
  F200     1.0000 0.60407  0.56710  0.17220  Biso   1.000  F
  F201     1.0000 0.08784  0.86150  0.58990  Biso   1.000  F
  F202     1.0000 0.91216  0.86150  0.91010  Biso   1.000  F
  F203     1.0000 0.58784  0.36150  0.58990  Biso   1.000  F
  F204     1.0000 0.41216  0.36150  0.91010  Biso   1.000  F
  F205     1.0000 0.91216  0.13850  0.41010  Biso   1.000  F
  F206     1.0000 0.08784  0.13850  0.08990  Biso   1.000  F
  F207     1.0000 0.41216  0.63850  0.41010  Biso   1.000  F
  F208     1.0000 0.58784  0.63850  0.08990  Biso   1.000  F
  F209     1.0000 0.08534  0.99960  0.58300  Biso   1.000  F
  F210     1.0000 0.91466  0.99960  0.91700  Biso   1.000  F
  F211     1.0000 0.58534  0.49960  0.58300  Biso   1.000  F
  F212     1.0000 0.41466  0.49960  0.91700  Biso   1.000  F
  F213     1.0000 0.91466  0.00040  0.41700  Biso   1.000  F
  F214     1.0000 0.08534  0.00040  0.08300  Biso   1.000  F
  F215     1.0000 0.41466  0.50040  0.41700  Biso   1.000  F
  F216     1.0000 0.58534  0.50040  0.08300  Biso   1.000  F
  F217     1.0000 0.08343  0.95650  0.56860  Biso   1.000  F
  F218     1.0000 0.91657  0.95650  0.93140  Biso   1.000  F
  F219     1.0000 0.58343  0.45650  0.56860  Biso   1.000  F
  F220     1.0000 0.41657  0.45650  0.93140  Biso   1.000  F
  F221     1.0000 0.91657  0.04350  0.43140  Biso   1.000  F
  F222     1.0000 0.08343  0.04350  0.06860  Biso   1.000  F
  F223     1.0000 0.41657  0.54350  0.43140  Biso   1.000  F
  F224     1.0000 0.58343  0.54350  0.06860  Biso   1.000  F
  F225     1.0000 0.10645  0.95260  0.67970  Biso   1.000  F
  F226     1.0000 0.89355  0.95260  0.82030  Biso   1.000  F
  F227     1.0000 0.60645  0.45260  0.67970  Biso   1.000  F
  F228     1.0000 0.39355  0.45260  0.82030  Biso   1.000  F
  F229     1.0000 0.89355  0.04740  0.32030  Biso   1.000  F
  F230     1.0000 0.10645  0.04740  0.17970  Biso   1.000  F
  F231     1.0000 0.39355  0.54740  0.32030  Biso   1.000  F
  F232     1.0000 0.60645  0.54740  0.17970  Biso   1.000  F
  F233     1.0000 0.09335  0.84060  0.60460  Biso   1.000  F
  F234     1.0000 0.90665  0.84060  0.89540  Biso   1.000  F
  F235     1.0000 0.59335  0.34060  0.60460  Biso   1.000  F
  F236     1.0000 0.40665  0.34060  0.89540  Biso   1.000  F
  F237     1.0000 0.90665  0.15940  0.39540  Biso   1.000  F
  F238     1.0000 0.09335  0.15940  0.10460  Biso   1.000  F
  F239     1.0000 0.40665  0.65940  0.39540  Biso   1.000  F
  F240     1.0000 0.59335  0.65940  0.10460  Biso   1.000  F
  F241     1.0000 0.09515  0.85220  0.62620  Biso   1.000  F
  F242     1.0000 0.90485  0.85220  0.87380  Biso   1.000  F
  F243     1.0000 0.59515  0.35220  0.62620  Biso   1.000  F
  F244     1.0000 0.40485  0.35220  0.87380  Biso   1.000  F
  F245     1.0000 0.90485  0.14780  0.37380  Biso   1.000  F
  F246     1.0000 0.09515  0.14780  0.12620  Biso   1.000  F
  F247     1.0000 0.40485  0.64780  0.37380  Biso   1.000  F
  F248     1.0000 0.59515  0.64780  0.12620  Biso   1.000  F
  F249     1.0000 0.08371  0.98070  0.57160  Biso   1.000  F
  F250     1.0000 0.91629  0.98070  0.92840  Biso   1.000  F
  F251     1.0000 0.58371  0.48070  0.57160  Biso   1.000  F
  F252     1.0000 0.41629  0.48070  0.92840  Biso   1.000  F
  F253     1.0000 0.91629  0.01930  0.42840  Biso   1.000  F
  F254     1.0000 0.08371  0.01930  0.07160  Biso   1.000  F
  F255     1.0000 0.41629  0.51930  0.42840  Biso   1.000  F
  F256     1.0000 0.58371  0.51930  0.07160  Biso   1.000  F
  F257     1.0000 0.10336  0.97600  0.67140  Biso   1.000  F
  F258     1.0000 0.89664  0.97600  0.82860  Biso   1.000  F
  F259     1.0000 0.60336  0.47600  0.67140  Biso   1.000  F
  F260     1.0000 0.39664  0.47600  0.82860  Biso   1.000  F
  F261     1.0000 0.89664  0.02400  0.32860  Biso   1.000  F
  F262     1.0000 0.10336  0.02400  0.17140  Biso   1.000  F
  F263     1.0000 0.39664  0.52400  0.32860  Biso   1.000  F
  F264     1.0000 0.60336  0.52400  0.17140  Biso   1.000  F
  F265     1.0000 0.25978  0.24640  0.84960  Biso   1.000  F
  F266     1.0000 0.74022  0.24640  0.65040  Biso   1.000  F
  F267     1.0000 0.75978  0.74640  0.84960  Biso   1.000  F
  F268     1.0000 0.24022  0.74640  0.65040  Biso   1.000  F
  F269     1.0000 0.74022  0.75360  0.15040  Biso   1.000  F
  F270     1.0000 0.25978  0.75360  0.34960  Biso   1.000  F
  F271     1.0000 0.24022  0.25360  0.15040  Biso   1.000  F
  F272     1.0000 0.75978  0.25360  0.34960  Biso   1.000  F
  F273     1.0000 0.28852  0.28020  0.92650  Biso   1.000  F
  F274     1.0000 0.71148  0.28020  0.57350  Biso   1.000  F
  F275     1.0000 0.78852  0.78020  0.92650  Biso   1.000  F
  F276     1.0000 0.21148  0.78020  0.57350  Biso   1.000  F
  F277     1.0000 0.71148  0.71980  0.07350  Biso   1.000  F
  F278     1.0000 0.28852  0.71980  0.42650  Biso   1.000  F
  F279     1.0000 0.21148  0.21980  0.07350  Biso   1.000  F
  F280     1.0000 0.78852  0.21980  0.42650  Biso   1.000  F
  F281     1.0000 0.27464  0.37710  0.84180  Biso   1.000  F
  F282     1.0000 0.72536  0.37710  0.65820  Biso   1.000  F
  F283     1.0000 0.77464  0.87710  0.84180  Biso   1.000  F
  F284     1.0000 0.22536  0.87710  0.65820  Biso   1.000  F
  F285     1.0000 0.72536  0.62290  0.15820  Biso   1.000  F
  F286     1.0000 0.27464  0.62290  0.34180  Biso   1.000  F
  F287     1.0000 0.22536  0.12290  0.15820  Biso   1.000  F
  F288     1.0000 0.77464  0.12290  0.34180  Biso   1.000  F
  F289     1.0000 0.28160  0.37930  0.85750  Biso   1.000  F
  F290     1.0000 0.71840  0.37930  0.64250  Biso   1.000  F
  F291     1.0000 0.78160  0.87930  0.85750  Biso   1.000  F
  F292     1.0000 0.21840  0.87930  0.64250  Biso   1.000  F
  F293     1.0000 0.71840  0.62070  0.14250  Biso   1.000  F
  F294     1.0000 0.28160  0.62070  0.35750  Biso   1.000  F
  F295     1.0000 0.21840  0.12070  0.14250  Biso   1.000  F
  F296     1.0000 0.78160  0.12070  0.35750  Biso   1.000  F
  F297     1.0000 0.26900  0.35760  0.83080  Biso   1.000  F
  F298     1.0000 0.73100  0.35760  0.66920  Biso   1.000  F
  F299     1.0000 0.76900  0.85760  0.83080  Biso   1.000  F
  F300     1.0000 0.23100  0.85760  0.66920  Biso   1.000  F
  F301     1.0000 0.73100  0.64240  0.16920  Biso   1.000  F
  F302     1.0000 0.26900  0.64240  0.33080  Biso   1.000  F
  F303     1.0000 0.23100  0.14240  0.16920  Biso   1.000  F
  F304     1.0000 0.76900  0.14240  0.33080  Biso   1.000  F
  F305     1.0000 0.28480  0.25620  0.92030  Biso   1.000  F
  F306     1.0000 0.71520  0.25620  0.57970  Biso   1.000  F
  F307     1.0000 0.78480  0.75620  0.92030  Biso   1.000  F
  F308     1.0000 0.21520  0.75620  0.57970  Biso   1.000  F
  F309     1.0000 0.71520  0.74380  0.07970  Biso   1.000  F
  F310     1.0000 0.28480  0.74380  0.42030  Biso   1.000  F
  F311     1.0000 0.21520  0.24380  0.07970  Biso   1.000  F
  F312     1.0000 0.78480  0.24380  0.42030  Biso   1.000  F
  F313     1.0000 0.25879  0.27550  0.84180  Biso   1.000  F
  F314     1.0000 0.74121  0.27550  0.65820  Biso   1.000  F
  F315     1.0000 0.75879  0.77550  0.84180  Biso   1.000  F
  F316     1.0000 0.24121  0.77550  0.65820  Biso   1.000  F
  F317     1.0000 0.74121  0.72450  0.15820  Biso   1.000  F
  F318     1.0000 0.25879  0.72450  0.34180  Biso   1.000  F
  F319     1.0000 0.24121  0.22450  0.15820  Biso   1.000  F
  F320     1.0000 0.75879  0.22450  0.34180  Biso   1.000  F
  F321     1.0000 0.26540  0.23790  0.86870  Biso   1.000  F
  F322     1.0000 0.73460  0.23790  0.63130  Biso   1.000  F
  F323     1.0000 0.76540  0.73790  0.86870  Biso   1.000  F
  F324     1.0000 0.23460  0.73790  0.63130  Biso   1.000  F
  F325     1.0000 0.73460  0.76210  0.13130  Biso   1.000  F
  F326     1.0000 0.26540  0.76210  0.36870  Biso   1.000  F
  F327     1.0000 0.23460  0.26210  0.13130  Biso   1.000  F
  F328     1.0000 0.76540  0.26210  0.36870  Biso   1.000  F
  F329     1.0000 0.29110  0.31100  0.91940  Biso   1.000  F
  F330     1.0000 0.70890  0.31100  0.58060  Biso   1.000  F
  F331     1.0000 0.79110  0.81100  0.91940  Biso   1.000  F
  F332     1.0000 0.20890  0.81100  0.58060  Biso   1.000  F
  F333     1.0000 0.70890  0.68900  0.08060  Biso   1.000  F
  F334     1.0000 0.29110  0.68900  0.41940  Biso   1.000  F
  F335     1.0000 0.20890  0.18900  0.08060  Biso   1.000  F
  F336     1.0000 0.79110  0.18900  0.41940  Biso   1.000  F
  F337     1.0000 0.35478  0.17830  0.87630  Biso   1.000  F
  F338     1.0000 0.64522  0.17830  0.62370  Biso   1.000  F
  F339     1.0000 0.85478  0.67830  0.87630  Biso   1.000  F
  F340     1.0000 0.14522  0.67830  0.62370  Biso   1.000  F
  F341     1.0000 0.64522  0.82170  0.12370  Biso   1.000  F
  F342     1.0000 0.35478  0.82170  0.37630  Biso   1.000  F
  F343     1.0000 0.14522  0.32170  0.12370  Biso   1.000  F
  F344     1.0000 0.85478  0.32170  0.37630  Biso   1.000  F
  F345     1.0000 0.36860  0.21370  0.77220  Biso   1.000  F
  F346     1.0000 0.63140  0.21370  0.72780  Biso   1.000  F
  F347     1.0000 0.86860  0.71370  0.77220  Biso   1.000  F
  F348     1.0000 0.13140  0.71370  0.72780  Biso   1.000  F
  F349     1.0000 0.63140  0.78630  0.22780  Biso   1.000  F
  F350     1.0000 0.36860  0.78630  0.27220  Biso   1.000  F
  F351     1.0000 0.13140  0.28630  0.22780  Biso   1.000  F
  F352     1.0000 0.86860  0.28630  0.27220  Biso   1.000  F
  F353     1.0000 0.36565  0.27050  0.78840  Biso   1.000  F
  F354     1.0000 0.63435  0.27050  0.71160  Biso   1.000  F
  F355     1.0000 0.86565  0.77050  0.78840  Biso   1.000  F
  F356     1.0000 0.13435  0.77050  0.71160  Biso   1.000  F
  F357     1.0000 0.63435  0.72950  0.21160  Biso   1.000  F
  F358     1.0000 0.36565  0.72950  0.28840  Biso   1.000  F
  F359     1.0000 0.13435  0.22950  0.21160  Biso   1.000  F
  F360     1.0000 0.86565  0.22950  0.28840  Biso   1.000  F
  F361     1.0000 0.35860  0.18240  0.86980  Biso   1.000  F
  F362     1.0000 0.64140  0.18240  0.63020  Biso   1.000  F
  F363     1.0000 0.85860  0.68240  0.86980  Biso   1.000  F
  F364     1.0000 0.14140  0.68240  0.63020  Biso   1.000  F
  F365     1.0000 0.64140  0.81760  0.13020  Biso   1.000  F
  F366     1.0000 0.35860  0.81760  0.36980  Biso   1.000  F
  F367     1.0000 0.14140  0.31760  0.13020  Biso   1.000  F
  F368     1.0000 0.85860  0.31760  0.36980  Biso   1.000  F
  F369     1.0000 0.36180  0.11460  0.76250  Biso   1.000  F
  F370     1.0000 0.63820  0.11460  0.73750  Biso   1.000  F
  F371     1.0000 0.86180  0.61460  0.76250  Biso   1.000  F
  F372     1.0000 0.13820  0.61460  0.73750  Biso   1.000  F
  F373     1.0000 0.63820  0.88540  0.23750  Biso   1.000  F
  F374     1.0000 0.36180  0.88540  0.26250  Biso   1.000  F
  F375     1.0000 0.13820  0.38540  0.23750  Biso   1.000  F
  F376     1.0000 0.86180  0.38540  0.26250  Biso   1.000  F
  F377     1.0000 0.36752  0.24810  0.78300  Biso   1.000  F
  F378     1.0000 0.63248  0.24810  0.71700  Biso   1.000  F
  F379     1.0000 0.86752  0.74810  0.78300  Biso   1.000  F
  F380     1.0000 0.13248  0.74810  0.71700  Biso   1.000  F
  F381     1.0000 0.63248  0.75190  0.21700  Biso   1.000  F
  F382     1.0000 0.36752  0.75190  0.28300  Biso   1.000  F
  F383     1.0000 0.13248  0.25190  0.21700  Biso   1.000  F
  F384     1.0000 0.86752  0.25190  0.28300  Biso   1.000  F
  F385     1.0000 0.35680  0.09060  0.78050  Biso   1.000  F
  F386     1.0000 0.64320  0.09060  0.71950  Biso   1.000  F
  F387     1.0000 0.85680  0.59060  0.78050  Biso   1.000  F
  F388     1.0000 0.14320  0.59060  0.71950  Biso   1.000  F
  F389     1.0000 0.64320  0.90940  0.21950  Biso   1.000  F
  F390     1.0000 0.35680  0.90940  0.28050  Biso   1.000  F
  F391     1.0000 0.14320  0.40940  0.21950  Biso   1.000  F
  F392     1.0000 0.85680  0.40940  0.28050  Biso   1.000  F
  F393     1.0000 0.35658  0.15320  0.86690  Biso   1.000  F
  F394     1.0000 0.64342  0.15320  0.63310  Biso   1.000  F
  F395     1.0000 0.85658  0.65320  0.86690  Biso   1.000  F
  F396     1.0000 0.14342  0.65320  0.63310  Biso   1.000  F
  F397     1.0000 0.64342  0.84680  0.13310  Biso   1.000  F
  F398     1.0000 0.35658  0.84680  0.36690  Biso   1.000  F
  F399     1.0000 0.14342  0.34680  0.13310  Biso   1.000  F
  F400     1.0000 0.85658  0.34680  0.36690  Biso   1.000  F
  F401     1.0000 0.36495  0.13760  0.75520  Biso   1.000  F
  F402     1.0000 0.63505  0.13760  0.74480  Biso   1.000  F
  F403     1.0000 0.86495  0.63760  0.75520  Biso   1.000  F
  F404     1.0000 0.13505  0.63760  0.74480  Biso   1.000  F
  F405     1.0000 0.63505  0.86240  0.24480  Biso   1.000  F
  F406     1.0000 0.36495  0.86240  0.25520  Biso   1.000  F
  F407     1.0000 0.13505  0.36240  0.24480  Biso   1.000  F
  F408     1.0000 0.86495  0.36240  0.25520  Biso   1.000  F
  F409     1.0000 0.25355  0.94750  0.78400  Biso   1.000  F
  F410     1.0000 0.74645  0.94750  0.71600  Biso   1.000  F
  F411     1.0000 0.75355  0.44750  0.78400  Biso   1.000  F
  F412     1.0000 0.24645  0.44750  0.71600  Biso   1.000  F
  F413     1.0000 0.74645  0.05250  0.21600  Biso   1.000  F
  F414     1.0000 0.25355  0.05250  0.28400  Biso   1.000  F
  F415     1.0000 0.24645  0.55250  0.21600  Biso   1.000  F
  F416     1.0000 0.75355  0.55250  0.28400  Biso   1.000  F
  F417     1.0000 0.28210  0.91740  0.72740  Biso   1.000  F
  F418     1.0000 0.71790  0.91740  0.77260  Biso   1.000  F
  F419     1.0000 0.78210  0.41740  0.72740  Biso   1.000  F
  F420     1.0000 0.21790  0.41740  0.77260  Biso   1.000  F
  F421     1.0000 0.71790  0.08260  0.27260  Biso   1.000  F
  F422     1.0000 0.28210  0.08260  0.22740  Biso   1.000  F
  F423     1.0000 0.21790  0.58260  0.27260  Biso   1.000  F
  F424     1.0000 0.78210  0.58260  0.22740  Biso   1.000  F
  F425     1.0000 0.28533  0.00390  0.82470  Biso   1.000  F
  F426     1.0000 0.71467  0.00390  0.67530  Biso   1.000  F
  F427     1.0000 0.78533  0.50390  0.82470  Biso   1.000  F
  F428     1.0000 0.21467  0.50390  0.67530  Biso   1.000  F
  F429     1.0000 0.71467  0.99610  0.17530  Biso   1.000  F
  F430     1.0000 0.28533  0.99610  0.32470  Biso   1.000  F
  F431     1.0000 0.21467  0.49610  0.17530  Biso   1.000  F
  F432     1.0000 0.78533  0.49610  0.32470  Biso   1.000  F
  F433     1.0000 0.25501  0.96160  0.79960  Biso   1.000  F
  F434     1.0000 0.74499  0.96160  0.70040  Biso   1.000  F
  F435     1.0000 0.75501  0.46160  0.79960  Biso   1.000  F
  F436     1.0000 0.24499  0.46160  0.70040  Biso   1.000  F
  F437     1.0000 0.74499  0.03840  0.20040  Biso   1.000  F
  F438     1.0000 0.25501  0.03840  0.29960  Biso   1.000  F
  F439     1.0000 0.24499  0.53840  0.20040  Biso   1.000  F
  F440     1.0000 0.75501  0.53840  0.29960  Biso   1.000  F
  F441     1.0000 0.27612  0.91070  0.71440  Biso   1.000  F
  F442     1.0000 0.72388  0.91070  0.78560  Biso   1.000  F
  F443     1.0000 0.77612  0.41070  0.71440  Biso   1.000  F
  F444     1.0000 0.22388  0.41070  0.78560  Biso   1.000  F
  F445     1.0000 0.72388  0.08930  0.28560  Biso   1.000  F
  F446     1.0000 0.27612  0.08930  0.21440  Biso   1.000  F
  F447     1.0000 0.22388  0.58930  0.28560  Biso   1.000  F
  F448     1.0000 0.77612  0.58930  0.21440  Biso   1.000  F
  F449     1.0000 0.29004  0.98620  0.81020  Biso   1.000  F
  F450     1.0000 0.70996  0.98620  0.68980  Biso   1.000  F
  F451     1.0000 0.79004  0.48620  0.81020  Biso   1.000  F
  F452     1.0000 0.20996  0.48620  0.68980  Biso   1.000  F
  F453     1.0000 0.70996  0.01380  0.18980  Biso   1.000  F
  F454     1.0000 0.29004  0.01380  0.31020  Biso   1.000  F
  F455     1.0000 0.20996  0.51380  0.18980  Biso   1.000  F
  F456     1.0000 0.79004  0.51380  0.31020  Biso   1.000  F
  F457     1.0000 0.20471  0.18440  0.60740  Biso   1.000  F
  F458     1.0000 0.79529  0.18440  0.89260  Biso   1.000  F
  F459     1.0000 0.70471  0.68440  0.60740  Biso   1.000  F
  F460     1.0000 0.29529  0.68440  0.89260  Biso   1.000  F
  F461     1.0000 0.79529  0.81560  0.39260  Biso   1.000  F
  F462     1.0000 0.20471  0.81560  0.10740  Biso   1.000  F
  F463     1.0000 0.29529  0.31560  0.39260  Biso   1.000  F
  F464     1.0000 0.70471  0.31560  0.10740  Biso   1.000  F
  F465     1.0000 0.22104  0.29670  0.65160  Biso   1.000  F
  F466     1.0000 0.77896  0.29670  0.84840  Biso   1.000  F
  F467     1.0000 0.72104  0.79670  0.65160  Biso   1.000  F
  F468     1.0000 0.27896  0.79670  0.84840  Biso   1.000  F
  F469     1.0000 0.77896  0.70330  0.34840  Biso   1.000  F
  F470     1.0000 0.22104  0.70330  0.15160  Biso   1.000  F
  F471     1.0000 0.27896  0.20330  0.34840  Biso   1.000  F
  F472     1.0000 0.72104  0.20330  0.15160  Biso   1.000  F
  F473     1.0000 0.21364  0.22060  0.72990  Biso   1.000  F
  F474     1.0000 0.78636  0.22060  0.77010  Biso   1.000  F
  F475     1.0000 0.71364  0.72060  0.72990  Biso   1.000  F
  F476     1.0000 0.28636  0.72060  0.77010  Biso   1.000  F
  F477     1.0000 0.78636  0.77940  0.27010  Biso   1.000  F
  F478     1.0000 0.21364  0.77940  0.22990  Biso   1.000  F
  F479     1.0000 0.28636  0.27940  0.27010  Biso   1.000  F
  F480     1.0000 0.71364  0.27940  0.22990  Biso   1.000  F
  F481     1.0000 0.20488  0.16320  0.62160  Biso   1.000  F
  F482     1.0000 0.79512  0.16320  0.87840  Biso   1.000  F
  F483     1.0000 0.70488  0.66320  0.62160  Biso   1.000  F
  F484     1.0000 0.29512  0.66320  0.87840  Biso   1.000  F
  F485     1.0000 0.79512  0.83680  0.37840  Biso   1.000  F
  F486     1.0000 0.20488  0.83680  0.12160  Biso   1.000  F
  F487     1.0000 0.29512  0.33680  0.37840  Biso   1.000  F
  F488     1.0000 0.70488  0.33680  0.12160  Biso   1.000  F
  F489     1.0000 0.21930  0.29630  0.63260  Biso   1.000  F
  F490     1.0000 0.78070  0.29630  0.86740  Biso   1.000  F
  F491     1.0000 0.71930  0.79630  0.63260  Biso   1.000  F
  F492     1.0000 0.28070  0.79630  0.86740  Biso   1.000  F
  F493     1.0000 0.78070  0.70370  0.36740  Biso   1.000  F
  F494     1.0000 0.21930  0.70370  0.13260  Biso   1.000  F
  F495     1.0000 0.28070  0.20370  0.36740  Biso   1.000  F
  F496     1.0000 0.71930  0.20370  0.13260  Biso   1.000  F
  F497     1.0000 0.21285  0.19760  0.73250  Biso   1.000  F
  F498     1.0000 0.78715  0.19760  0.76750  Biso   1.000  F
  F499     1.0000 0.71285  0.69760  0.73250  Biso   1.000  F
  F500     1.0000 0.28715  0.69760  0.76750  Biso   1.000  F
  F501     1.0000 0.78715  0.80240  0.26750  Biso   1.000  F
  F502     1.0000 0.21285  0.80240  0.23250  Biso   1.000  F
  F503     1.0000 0.28715  0.30240  0.26750  Biso   1.000  F
  F504     1.0000 0.71285  0.30240  0.23250  Biso   1.000  F
  F505     1.0000 0.01981  0.29170  0.44920  Biso   1.000  F
  F506     1.0000 0.98019  0.29170  0.05080  Biso   1.000  F
  F507     1.0000 0.51981  0.79170  0.44920  Biso   1.000  F
  F508     1.0000 0.48019  0.79170  0.05080  Biso   1.000  F
  F509     1.0000 0.98019  0.70830  0.55080  Biso   1.000  F
  F510     1.0000 0.01981  0.70830  0.94920  Biso   1.000  F
  F511     1.0000 0.48019  0.20830  0.55080  Biso   1.000  F
  F512     1.0000 0.51981  0.20830  0.94920  Biso   1.000  F
  F513     1.0000 0.02123  0.26450  0.33100  Biso   1.000  F
  F514     1.0000 0.97877  0.26450  0.16900  Biso   1.000  F
  F515     1.0000 0.52123  0.76450  0.33100  Biso   1.000  F
  F516     1.0000 0.47877  0.76450  0.16900  Biso   1.000  F
  F517     1.0000 0.97877  0.73550  0.66900  Biso   1.000  F
  F518     1.0000 0.02123  0.73550  0.83100  Biso   1.000  F
  F519     1.0000 0.47877  0.23550  0.66900  Biso   1.000  F
  F520     1.0000 0.52123  0.23550  0.83100  Biso   1.000  F
  F521     1.0000 0.04464  0.20990  0.42300  Biso   1.000  F
  F522     1.0000 0.95536  0.20990  0.07700  Biso   1.000  F
  F523     1.0000 0.54464  0.70990  0.42300  Biso   1.000  F
  F524     1.0000 0.45536  0.70990  0.07700  Biso   1.000  F
  F525     1.0000 0.95536  0.79010  0.57700  Biso   1.000  F
  F526     1.0000 0.04464  0.79010  0.92300  Biso   1.000  F
  F527     1.0000 0.45536  0.29010  0.57700  Biso   1.000  F
  F528     1.0000 0.54464  0.29010  0.92300  Biso   1.000  F
  F529     1.0000 0.04385  0.20460  0.40330  Biso   1.000  F
  F530     1.0000 0.95615  0.20460  0.09670  Biso   1.000  F
  F531     1.0000 0.54385  0.70460  0.40330  Biso   1.000  F
  F532     1.0000 0.45615  0.70460  0.09670  Biso   1.000  F
  F533     1.0000 0.95615  0.79540  0.59670  Biso   1.000  F
  F534     1.0000 0.04385  0.79540  0.90330  Biso   1.000  F
  F535     1.0000 0.45615  0.29540  0.59670  Biso   1.000  F
  F536     1.0000 0.54385  0.29540  0.90330  Biso   1.000  F
  F537     1.0000 0.02067  0.28690  0.46750  Biso   1.000  F
  F538     1.0000 0.97933  0.28690  0.03250  Biso   1.000  F
  F539     1.0000 0.52067  0.78690  0.46750  Biso   1.000  F
  F540     1.0000 0.47933  0.78690  0.03250  Biso   1.000  F
  F541     1.0000 0.97933  0.71310  0.53250  Biso   1.000  F
  F542     1.0000 0.02067  0.71310  0.96750  Biso   1.000  F
  F543     1.0000 0.47933  0.21310  0.53250  Biso   1.000  F
  F544     1.0000 0.52067  0.21310  0.96750  Biso   1.000  F
  F545     1.0000 0.01822  0.27920  0.34460  Biso   1.000  F
  F546     1.0000 0.98178  0.27920  0.15540  Biso   1.000  F
  F547     1.0000 0.51822  0.77920  0.34460  Biso   1.000  F
  F548     1.0000 0.48178  0.77920  0.15540  Biso   1.000  F
  F549     1.0000 0.98178  0.72080  0.65540  Biso   1.000  F
  F550     1.0000 0.01822  0.72080  0.84460  Biso   1.000  F
  F551     1.0000 0.48178  0.22080  0.65540  Biso   1.000  F
  F552     1.0000 0.51822  0.22080  0.84460  Biso   1.000  F
  F553     1.0000 0.96344  0.08410  0.22320  Biso   1.000  F
  F554     1.0000 0.03656  0.08410  0.27680  Biso   1.000  F
  F555     1.0000 0.46344  0.58410  0.22320  Biso   1.000  F
  F556     1.0000 0.53656  0.58410  0.27680  Biso   1.000  F
  F557     1.0000 0.03656  0.91590  0.77680  Biso   1.000  F
  F558     1.0000 0.96344  0.91590  0.72320  Biso   1.000  F
  F559     1.0000 0.53656  0.41590  0.77680  Biso   1.000  F
  F560     1.0000 0.46344  0.41590  0.72320  Biso   1.000  F
  F561     1.0000 0.94466  0.99260  0.29310  Biso   1.000  F
  F562     1.0000 0.05534  0.99260  0.20690  Biso   1.000  F
  F563     1.0000 0.44466  0.49260  0.29310  Biso   1.000  F
  F564     1.0000 0.55534  0.49260  0.20690  Biso   1.000  F
  F565     1.0000 0.05534  0.00740  0.70690  Biso   1.000  F
  F566     1.0000 0.94466  0.00740  0.79310  Biso   1.000  F
  F567     1.0000 0.55534  0.50740  0.70690  Biso   1.000  F
  F568     1.0000 0.44466  0.50740  0.79310  Biso   1.000  F
  F569     1.0000 0.94165  0.13090  0.29950  Biso   1.000  F
  F570     1.0000 0.05835  0.13090  0.20050  Biso   1.000  F
  F571     1.0000 0.44165  0.63090  0.29950  Biso   1.000  F
  F572     1.0000 0.55835  0.63090  0.20050  Biso   1.000  F
  F573     1.0000 0.05835  0.86910  0.70050  Biso   1.000  F
  F574     1.0000 0.94165  0.86910  0.79950  Biso   1.000  F
  F575     1.0000 0.55835  0.36910  0.70050  Biso   1.000  F
  F576     1.0000 0.44165  0.36910  0.79950  Biso   1.000  F
  F577     1.0000 0.96727  0.05750  0.22550  Biso   1.000  F
  F578     1.0000 0.03273  0.05750  0.27450  Biso   1.000  F
  F579     1.0000 0.46727  0.55750  0.22550  Biso   1.000  F
  F580     1.0000 0.53273  0.55750  0.27450  Biso   1.000  F
  F581     1.0000 0.03273  0.94250  0.77450  Biso   1.000  F
  F582     1.0000 0.96727  0.94250  0.72550  Biso   1.000  F
  F583     1.0000 0.53273  0.44250  0.77450  Biso   1.000  F
  F584     1.0000 0.46727  0.44250  0.72550  Biso   1.000  F
  F585     1.0000 0.94170  0.02760  0.29190  Biso   1.000  F
  F586     1.0000 0.05830  0.02760  0.20810  Biso   1.000  F
  F587     1.0000 0.44170  0.52760  0.29190  Biso   1.000  F
  F588     1.0000 0.55830  0.52760  0.20810  Biso   1.000  F
  F589     1.0000 0.05830  0.97240  0.70810  Biso   1.000  F
  F590     1.0000 0.94170  0.97240  0.79190  Biso   1.000  F
  F591     1.0000 0.55830  0.47240  0.70810  Biso   1.000  F
  F592     1.0000 0.44170  0.47240  0.79190  Biso   1.000  F
  F593     1.0000 0.94704  0.16130  0.28540  Biso   1.000  F
  F594     1.0000 0.05296  0.16130  0.21460  Biso   1.000  F
  F595     1.0000 0.44704  0.66130  0.28540  Biso   1.000  F
  F596     1.0000 0.55296  0.66130  0.21460  Biso   1.000  F
  F597     1.0000 0.05296  0.83870  0.71460  Biso   1.000  F
  F598     1.0000 0.94704  0.83870  0.78540  Biso   1.000  F
  F599     1.0000 0.55296  0.33870  0.71460  Biso   1.000  F
  F600     1.0000 0.44704  0.33870  0.78540  Biso   1.000  F
  F601     1.0000 0.05886  0.64390  0.06640  Biso   1.000  F
  F602     1.0000 0.94114  0.64390  0.43360  Biso   1.000  F
  F603     1.0000 0.55886  0.14390  0.06640  Biso   1.000  F
  F604     1.0000 0.44114  0.14390  0.43360  Biso   1.000  F
  F605     1.0000 0.94114  0.35610  0.93360  Biso   1.000  F
  F606     1.0000 0.05886  0.35610  0.56640  Biso   1.000  F
  F607     1.0000 0.44114  0.85610  0.93360  Biso   1.000  F
  F608     1.0000 0.55886  0.85610  0.56640  Biso   1.000  F
  F609     1.0000 0.05777  0.76720  0.10160  Biso   1.000  F
  F610     1.0000 0.94223  0.76720  0.39840  Biso   1.000  F
  F611     1.0000 0.55777  0.26720  0.10160  Biso   1.000  F
  F612     1.0000 0.44223  0.26720  0.39840  Biso   1.000  F
  F613     1.0000 0.94223  0.23280  0.89840  Biso   1.000  F
  F614     1.0000 0.05777  0.23280  0.60160  Biso   1.000  F
  F615     1.0000 0.44223  0.73280  0.89840  Biso   1.000  F
  F616     1.0000 0.55777  0.73280  0.60160  Biso   1.000  F
  F617     1.0000 0.06788  0.68270  0.19290  Biso   1.000  F
  F618     1.0000 0.93212  0.68270  0.30710  Biso   1.000  F
  F619     1.0000 0.56788  0.18270  0.19290  Biso   1.000  F
  F620     1.0000 0.43212  0.18270  0.30710  Biso   1.000  F
  F621     1.0000 0.93212  0.31730  0.80710  Biso   1.000  F
  F622     1.0000 0.06788  0.31730  0.69290  Biso   1.000  F
  F623     1.0000 0.43212  0.81730  0.80710  Biso   1.000  F
  F624     1.0000 0.56788  0.81730  0.69290  Biso   1.000  F
  F625     1.0000 0.06231  0.62900  0.08990  Biso   1.000  F
  F626     1.0000 0.93769  0.62900  0.41010  Biso   1.000  F
  F627     1.0000 0.56231  0.12900  0.08990  Biso   1.000  F
  F628     1.0000 0.43769  0.12900  0.41010  Biso   1.000  F
  F629     1.0000 0.93769  0.37100  0.91010  Biso   1.000  F
  F630     1.0000 0.06231  0.37100  0.58990  Biso   1.000  F
  F631     1.0000 0.43769  0.87100  0.91010  Biso   1.000  F
  F632     1.0000 0.56231  0.87100  0.58990  Biso   1.000  F
  F633     1.0000 0.05311  0.77680  0.08310  Biso   1.000  F
  F634     1.0000 0.94689  0.77680  0.41690  Biso   1.000  F
  F635     1.0000 0.55311  0.27680  0.08310  Biso   1.000  F
  F636     1.0000 0.44689  0.27680  0.41690  Biso   1.000  F
  F637     1.0000 0.94689  0.22320  0.91690  Biso   1.000  F
  F638     1.0000 0.05311  0.22320  0.58310  Biso   1.000  F
  F639     1.0000 0.44689  0.72320  0.91690  Biso   1.000  F
  F640     1.0000 0.55311  0.72320  0.58310  Biso   1.000  F
  F641     1.0000 0.06894  0.70990  0.18010  Biso   1.000  F
  F642     1.0000 0.93106  0.70990  0.31990  Biso   1.000  F
  F643     1.0000 0.56894  0.20990  0.18010  Biso   1.000  F
  F644     1.0000 0.43106  0.20990  0.31990  Biso   1.000  F
  F645     1.0000 0.93106  0.29010  0.81990  Biso   1.000  F
  F646     1.0000 0.06894  0.29010  0.68010  Biso   1.000  F
  F647     1.0000 0.43106  0.79010  0.81990  Biso   1.000  F
  F648     1.0000 0.56894  0.79010  0.68010  Biso   1.000  F
  F649     1.0000 0.00463  0.43660  0.11370  Biso   1.000  F
  F650     1.0000 0.99537  0.43660  0.38630  Biso   1.000  F
  F651     1.0000 0.50463  0.93660  0.11370  Biso   1.000  F
  F652     1.0000 0.49537  0.93660  0.38630  Biso   1.000  F
  F653     1.0000 0.99537  0.56340  0.88630  Biso   1.000  F
  F654     1.0000 0.00463  0.56340  0.61370  Biso   1.000  F
  F655     1.0000 0.49537  0.06340  0.88630  Biso   1.000  F
  F656     1.0000 0.50463  0.06340  0.61370  Biso   1.000  F
  F657     1.0000 0.97200  0.47860  0.15250  Biso   1.000  F
  F658     1.0000 0.02800  0.47860  0.34750  Biso   1.000  F
  F659     1.0000 0.47200  0.97860  0.15250  Biso   1.000  F
  F660     1.0000 0.52800  0.97860  0.34750  Biso   1.000  F
  F661     1.0000 0.02800  0.52140  0.84750  Biso   1.000  F
  F662     1.0000 0.97200  0.52140  0.65250  Biso   1.000  F
  F663     1.0000 0.52800  0.02140  0.84750  Biso   1.000  F
  F664     1.0000 0.47200  0.02140  0.65250  Biso   1.000  F
  F665     1.0000 0.97430  0.51700  0.04940  Biso   1.000  F
  F666     1.0000 0.02570  0.51700  0.45060  Biso   1.000  F
  F667     1.0000 0.47430  0.01700  0.04940  Biso   1.000  F
  F668     1.0000 0.52570  0.01700  0.45060  Biso   1.000  F
  F669     1.0000 0.02570  0.48300  0.95060  Biso   1.000  F
  F670     1.0000 0.97430  0.48300  0.54940  Biso   1.000  F
  F671     1.0000 0.52570  0.98300  0.95060  Biso   1.000  F
  F672     1.0000 0.47430  0.98300  0.54940  Biso   1.000  F
  F673     1.0000 0.98100  0.46120  0.18110  Biso   1.000  F
  F674     1.0000 0.01900  0.46120  0.31890  Biso   1.000  F
  F675     1.0000 0.48100  0.96120  0.18110  Biso   1.000  F
  F676     1.0000 0.51900  0.96120  0.31890  Biso   1.000  F
  F677     1.0000 0.01900  0.53880  0.81890  Biso   1.000  F
  F678     1.0000 0.98100  0.53880  0.68110  Biso   1.000  F
  F679     1.0000 0.51900  0.03880  0.81890  Biso   1.000  F
  F680     1.0000 0.48100  0.03880  0.68110  Biso   1.000  F
  F681     1.0000 0.00073  0.45390  0.07470  Biso   1.000  F
  F682     1.0000 0.99927  0.45390  0.42530  Biso   1.000  F
  F683     1.0000 0.50073  0.95390  0.07470  Biso   1.000  F
  F684     1.0000 0.49927  0.95390  0.42530  Biso   1.000  F
  F685     1.0000 0.99927  0.54610  0.92530  Biso   1.000  F
  F686     1.0000 0.00073  0.54610  0.57470  Biso   1.000  F
  F687     1.0000 0.49927  0.04610  0.92530  Biso   1.000  F
  F688     1.0000 0.50073  0.04610  0.57470  Biso   1.000  F
  F689     1.0000 0.96460  0.53120  0.09640  Biso   1.000  F
  F690     1.0000 0.03540  0.53120  0.40360  Biso   1.000  F
  F691     1.0000 0.46460  0.03120  0.09640  Biso   1.000  F
  F692     1.0000 0.53540  0.03120  0.40360  Biso   1.000  F
  F693     1.0000 0.03540  0.46880  0.90360  Biso   1.000  F
  F694     1.0000 0.96460  0.46880  0.59640  Biso   1.000  F
  F695     1.0000 0.53540  0.96880  0.90360  Biso   1.000  F
  F696     1.0000 0.46460  0.96880  0.59640  Biso   1.000  F
  F697     1.0000 0.98810  0.48670  0.05290  Biso   1.000  F
  F698     1.0000 0.01190  0.48670  0.44710  Biso   1.000  F
  F699     1.0000 0.48810  0.98670  0.05290  Biso   1.000  F
  F700     1.0000 0.51190  0.98670  0.44710  Biso   1.000  F
  F701     1.0000 0.01190  0.51330  0.94710  Biso   1.000  F
  F702     1.0000 0.98810  0.51330  0.55290  Biso   1.000  F
  F703     1.0000 0.51190  0.01330  0.94710  Biso   1.000  F
  F704     1.0000 0.48810  0.01330  0.55290  Biso   1.000  F
  F705     1.0000 0.99250  0.44410  0.17910  Biso   1.000  F
  F706     1.0000 0.00750  0.44410  0.32090  Biso   1.000  F
  F707     1.0000 0.49250  0.94410  0.17910  Biso   1.000  F
  F708     1.0000 0.50750  0.94410  0.32090  Biso   1.000  F
  F709     1.0000 0.00750  0.55590  0.82090  Biso   1.000  F
  F710     1.0000 0.99250  0.55590  0.67910  Biso   1.000  F
  F711     1.0000 0.50750  0.05590  0.82090  Biso   1.000  F
  F712     1.0000 0.49250  0.05590  0.67910  Biso   1.000  F
  F713     1.0000 0.97370  0.48730  0.08210  Biso   1.000  F
  F714     1.0000 0.02630  0.48730  0.41790  Biso   1.000  F
  F715     1.0000 0.47370  0.98730  0.08210  Biso   1.000  F
  F716     1.0000 0.52630  0.98730  0.41790  Biso   1.000  F
  F717     1.0000 0.02630  0.51270  0.91790  Biso   1.000  F
  F718     1.0000 0.97370  0.51270  0.58210  Biso   1.000  F
  F719     1.0000 0.52630  0.01270  0.91790  Biso   1.000  F
  F720     1.0000 0.47370  0.01270  0.58210  Biso   1.000  F
  C465     1.0000 0.05180  0.33600  0.08800  Biso   1.000  C
  C466     1.0000 0.94820  0.33600  0.41200  Biso   1.000  C
  C467     1.0000 0.55180  0.83600  0.08800  Biso   1.000  C
  C468     1.0000 0.44820  0.83600  0.41200  Biso   1.000  C
  C469     1.0000 0.94820  0.66400  0.91200  Biso   1.000  C
  C470     1.0000 0.05180  0.66400  0.58800  Biso   1.000  C
  C471     1.0000 0.44820  0.16400  0.91200  Biso   1.000  C
  C472     1.0000 0.55180  0.16400  0.58800  Biso   1.000  C
  C473     1.0000 0.04500  0.27740  0.02300  Biso   1.000  C
  C474     1.0000 0.95500  0.27740  0.47700  Biso   1.000  C
  C475     1.0000 0.54500  0.77740  0.02300  Biso   1.000  C
  C476     1.0000 0.45500  0.77740  0.47700  Biso   1.000  C
  C477     1.0000 0.95500  0.72260  0.97700  Biso   1.000  C
  C478     1.0000 0.04500  0.72260  0.52300  Biso   1.000  C
  C479     1.0000 0.45500  0.22260  0.97700  Biso   1.000  C
  C480     1.0000 0.54500  0.22260  0.52300  Biso   1.000  C
  C481     1.0000 0.06270  0.30200  0.97310  Biso   1.000  C
  C482     1.0000 0.93730  0.30200  0.52690  Biso   1.000  C
  C483     1.0000 0.56270  0.80200  0.97310  Biso   1.000  C
  C484     1.0000 0.43730  0.80200  0.52690  Biso   1.000  C
  C485     1.0000 0.93730  0.69800  0.02690  Biso   1.000  C
  C486     1.0000 0.06270  0.69800  0.47310  Biso   1.000  C
  C487     1.0000 0.43730  0.19800  0.02690  Biso   1.000  C
  C488     1.0000 0.56270  0.19800  0.47310  Biso   1.000  C
  C489     1.0000 0.07720  0.36800  0.99500  Biso   1.000  C
  C490     1.0000 0.92280  0.36800  0.50500  Biso   1.000  C
  C491     1.0000 0.57720  0.86800  0.99500  Biso   1.000  C
  C492     1.0000 0.42280  0.86800  0.50500  Biso   1.000  C
  C493     1.0000 0.92280  0.63200  0.00500  Biso   1.000  C
  C494     1.0000 0.07720  0.63200  0.49500  Biso   1.000  C
  C495     1.0000 0.42280  0.13200  0.00500  Biso   1.000  C
  C496     1.0000 0.57720  0.13200  0.49500  Biso   1.000  C
  C497     1.0000 0.08600  0.40800  0.91480  Biso   1.000  C
  C498     1.0000 0.91400  0.40800  0.58520  Biso   1.000  C
  C499     1.0000 0.58600  0.90800  0.91480  Biso   1.000  C
  C500     1.0000 0.41400  0.90800  0.58520  Biso   1.000  C
  C501     1.0000 0.91400  0.59200  0.08520  Biso   1.000  C
  C502     1.0000 0.08600  0.59200  0.41480  Biso   1.000  C
  C503     1.0000 0.41400  0.09200  0.08520  Biso   1.000  C
  C504     1.0000 0.58600  0.09200  0.41480  Biso   1.000  C
  C505     1.0000 0.09790  0.51500  0.32800  Biso   1.000  C
  C506     1.0000 0.90210  0.51500  0.17200  Biso   1.000  C
  C507     1.0000 0.59790  0.01500  0.32800  Biso   1.000  C
  C508     1.0000 0.40210  0.01500  0.17200  Biso   1.000  C
  C509     1.0000 0.90210  0.48500  0.67200  Biso   1.000  C
  C510     1.0000 0.09790  0.48500  0.82800  Biso   1.000  C
  C511     1.0000 0.40210  0.98500  0.67200  Biso   1.000  C
  C512     1.0000 0.59790  0.98500  0.82800  Biso   1.000  C
