data_image0
_cell_length_a       19.0849
_cell_length_b       18.0523
_cell_length_c       19.8206
_cell_angle_alpha    90
_cell_angle_beta     90
_cell_angle_gamma    90

_symmetry_space_group_name_H-M    "P 1"
_symmetry_int_tables_number       1

loop_
  _symmetry_equiv_pos_as_xyz
  'x, y, z'

loop_
  _atom_site_label
  _atom_site_occupancy
  _atom_site_fract_x
  _atom_site_fract_y
  _atom_site_fract_z
  _atom_site_thermal_displace_type
  _atom_site_B_iso_or_equiv
  _atom_site_type_symbol
  Cu1      1.0000 0.25756  0.12219  0.52485  Biso   1.000  Cu
  Cu2      1.0000 0.24244  0.87781  0.02485  Biso   1.000  Cu
  Cu3      1.0000 0.75756  0.37781  0.47515  Biso   1.000  Cu
  Cu4      1.0000 0.74244  0.62219  0.97515  Biso   1.000  Cu
  Cu5      1.0000 0.74244  0.87781  0.47515  Biso   1.000  Cu
  Cu6      1.0000 0.75756  0.12219  0.97515  Biso   1.000  Cu
  Cu7      1.0000 0.24244  0.62219  0.52485  Biso   1.000  Cu
  Cu8      1.0000 0.25756  0.37781  0.02485  Biso   1.000  Cu
  Cu9      1.0000 0.87464  0.53807  0.71846  Biso   1.000  Cu
  Cu10     1.0000 0.62536  0.46193  0.21846  Biso   1.000  Cu
  Cu11     1.0000 0.37464  0.96193  0.28154  Biso   1.000  Cu
  Cu12     1.0000 0.12536  0.03807  0.78154  Biso   1.000  Cu
  Cu13     1.0000 0.12536  0.46193  0.28154  Biso   1.000  Cu
  Cu14     1.0000 0.37464  0.53807  0.78154  Biso   1.000  Cu
  Cu15     1.0000 0.62536  0.03807  0.71846  Biso   1.000  Cu
  Cu16     1.0000 0.87464  0.96193  0.21846  Biso   1.000  Cu
  C1       1.0000 0.29680  0.97600  0.50970  Biso   1.000  C
  C2       1.0000 0.20320  0.02400  0.00970  Biso   1.000  C
  C3       1.0000 0.79680  0.52400  0.49030  Biso   1.000  C
  C4       1.0000 0.70320  0.47600  0.99030  Biso   1.000  C
  C5       1.0000 0.70320  0.02400  0.49030  Biso   1.000  C
  C6       1.0000 0.79680  0.97600  0.99030  Biso   1.000  C
  C7       1.0000 0.20320  0.47600  0.50970  Biso   1.000  C
  C8       1.0000 0.29680  0.52400  0.00970  Biso   1.000  C
  C9       1.0000 0.24730  0.97220  0.57000  Biso   1.000  C
  C10      1.0000 0.25270  0.02780  0.07000  Biso   1.000  C
  C11      1.0000 0.74730  0.52780  0.43000  Biso   1.000  C
  C12      1.0000 0.75270  0.47220  0.93000  Biso   1.000  C
  C13      1.0000 0.75270  0.02780  0.43000  Biso   1.000  C
  C14      1.0000 0.74730  0.97220  0.93000  Biso   1.000  C
  C15      1.0000 0.25270  0.47220  0.57000  Biso   1.000  C
  C16      1.0000 0.24730  0.52780  0.07000  Biso   1.000  C
  C17      1.0000 0.14090  0.22770  0.51910  Biso   1.000  C
  C18      1.0000 0.35910  0.77230  0.01910  Biso   1.000  C
  C19      1.0000 0.64090  0.27230  0.48090  Biso   1.000  C
  C20      1.0000 0.85910  0.72770  0.98090  Biso   1.000  C
  C21      1.0000 0.85910  0.77230  0.48090  Biso   1.000  C
  C22      1.0000 0.64090  0.22770  0.98090  Biso   1.000  C
  C23      1.0000 0.35910  0.72770  0.51910  Biso   1.000  C
  C24      1.0000 0.14090  0.27230  0.01910  Biso   1.000  C
  H1       1.0000 0.14000  0.21340  0.47410  Biso   1.000  H
  H2       1.0000 0.36000  0.78660  0.97410  Biso   1.000  H
  H3       1.0000 0.64000  0.28660  0.52590  Biso   1.000  H
  H4       1.0000 0.86000  0.71340  0.02590  Biso   1.000  H
  H5       1.0000 0.86000  0.78660  0.52590  Biso   1.000  H
  H6       1.0000 0.64000  0.21340  0.02590  Biso   1.000  H
  H7       1.0000 0.36000  0.71340  0.47410  Biso   1.000  H
  H8       1.0000 0.14000  0.28660  0.97410  Biso   1.000  H
  C25      1.0000 0.09180  0.27810  0.54160  Biso   1.000  C
  C26      1.0000 0.40820  0.72190  0.04160  Biso   1.000  C
  C27      1.0000 0.59180  0.22190  0.45840  Biso   1.000  C
  C28      1.0000 0.90820  0.77810  0.95840  Biso   1.000  C
  C29      1.0000 0.90820  0.72190  0.45840  Biso   1.000  C
  C30      1.0000 0.59180  0.27810  0.95840  Biso   1.000  C
  C31      1.0000 0.40820  0.77810  0.54160  Biso   1.000  C
  C32      1.0000 0.09180  0.22190  0.04160  Biso   1.000  C
  H9       1.0000 0.05790  0.29550  0.51190  Biso   1.000  H
  H10      1.0000 0.44210  0.70450  0.01190  Biso   1.000  H
  H11      1.0000 0.55790  0.20450  0.48810  Biso   1.000  H
  H12      1.0000 0.94210  0.79550  0.98810  Biso   1.000  H
  H13      1.0000 0.94210  0.70450  0.48810  Biso   1.000  H
  H14      1.0000 0.55790  0.29550  0.98810  Biso   1.000  H
  H15      1.0000 0.44210  0.79550  0.51190  Biso   1.000  H
  H16      1.0000 0.05790  0.20450  0.01190  Biso   1.000  H
  C33      1.0000 0.09200  0.30300  0.60710  Biso   1.000  C
  C34      1.0000 0.40800  0.69700  0.10710  Biso   1.000  C
  C35      1.0000 0.59200  0.19700  0.39290  Biso   1.000  C
  C36      1.0000 0.90800  0.80300  0.89290  Biso   1.000  C
  C37      1.0000 0.90800  0.69700  0.39290  Biso   1.000  C
  C38      1.0000 0.59200  0.30300  0.89290  Biso   1.000  C
  C39      1.0000 0.40800  0.80300  0.60710  Biso   1.000  C
  C40      1.0000 0.09200  0.19700  0.10710  Biso   1.000  C
  C41      1.0000 0.14220  0.27210  0.64930  Biso   1.000  C
  C42      1.0000 0.35780  0.72790  0.14930  Biso   1.000  C
  C43      1.0000 0.64220  0.22790  0.35070  Biso   1.000  C
  C44      1.0000 0.85780  0.77210  0.85070  Biso   1.000  C
  C45      1.0000 0.85780  0.72790  0.35070  Biso   1.000  C
  C46      1.0000 0.64220  0.27210  0.85070  Biso   1.000  C
  C47      1.0000 0.35780  0.77210  0.64930  Biso   1.000  C
  C48      1.0000 0.14220  0.22790  0.14930  Biso   1.000  C
  H17      1.0000 0.14390  0.28550  0.69460  Biso   1.000  H
  H18      1.0000 0.35610  0.71450  0.19460  Biso   1.000  H
  H19      1.0000 0.64390  0.21450  0.30540  Biso   1.000  H
  H20      1.0000 0.85610  0.78550  0.80540  Biso   1.000  H
  H21      1.0000 0.85610  0.71450  0.30540  Biso   1.000  H
  H22      1.0000 0.64390  0.28550  0.80540  Biso   1.000  H
  H23      1.0000 0.35610  0.78550  0.69460  Biso   1.000  H
  H24      1.0000 0.14390  0.21450  0.19460  Biso   1.000  H
  C49      1.0000 0.18950  0.22130  0.62380  Biso   1.000  C
  C50      1.0000 0.31050  0.77870  0.12380  Biso   1.000  C
  C51      1.0000 0.68950  0.27870  0.37620  Biso   1.000  C
  C52      1.0000 0.81050  0.72130  0.87620  Biso   1.000  C
  C53      1.0000 0.81050  0.77870  0.37620  Biso   1.000  C
  C54      1.0000 0.68950  0.22130  0.87620  Biso   1.000  C
  C55      1.0000 0.31050  0.72130  0.62380  Biso   1.000  C
  C56      1.0000 0.18950  0.27870  0.12380  Biso   1.000  C
  H25      1.0000 0.22310  0.20170  0.65270  Biso   1.000  H
  H26      1.0000 0.27690  0.79830  0.15270  Biso   1.000  H
  H27      1.0000 0.72310  0.29830  0.34730  Biso   1.000  H
  H28      1.0000 0.77690  0.70170  0.84730  Biso   1.000  H
  H29      1.0000 0.77690  0.79830  0.34730  Biso   1.000  H
  H30      1.0000 0.72310  0.20170  0.84730  Biso   1.000  H
  H31      1.0000 0.27690  0.70170  0.65270  Biso   1.000  H
  H32      1.0000 0.22310  0.29830  0.15270  Biso   1.000  H
  C57      1.0000 0.95400  0.45320  0.61420  Biso   1.000  C
  C58      1.0000 0.54600  0.54680  0.11420  Biso   1.000  C
  C59      1.0000 0.45400  0.04680  0.38580  Biso   1.000  C
  C60      1.0000 0.04600  0.95320  0.88580  Biso   1.000  C
  C61      1.0000 0.04600  0.54680  0.38580  Biso   1.000  C
  C62      1.0000 0.45400  0.45320  0.88580  Biso   1.000  C
  C63      1.0000 0.54600  0.95320  0.61420  Biso   1.000  C
  C64      1.0000 0.95400  0.04680  0.11420  Biso   1.000  C
  H33      1.0000 0.92660  0.47960  0.58370  Biso   1.000  H
  H34      1.0000 0.57340  0.52040  0.08370  Biso   1.000  H
  H35      1.0000 0.42660  0.02040  0.41630  Biso   1.000  H
  H36      1.0000 0.07340  0.97960  0.91630  Biso   1.000  H
  H37      1.0000 0.07340  0.52040  0.41630  Biso   1.000  H
  H38      1.0000 0.42660  0.47960  0.91630  Biso   1.000  H
  H39      1.0000 0.57340  0.97960  0.58370  Biso   1.000  H
  H40      1.0000 0.92660  0.02040  0.08370  Biso   1.000  H
  C65      1.0000 0.99970  0.40030  0.58950  Biso   1.000  C
  C66      1.0000 0.50030  0.59970  0.08950  Biso   1.000  C
  C67      1.0000 0.49970  0.09970  0.41050  Biso   1.000  C
  C68      1.0000 0.00030  0.90030  0.91050  Biso   1.000  C
  C69      1.0000 0.00030  0.59970  0.41050  Biso   1.000  C
  C70      1.0000 0.49970  0.40030  0.91050  Biso   1.000  C
  C71      1.0000 0.50030  0.90030  0.58950  Biso   1.000  C
  C72      1.0000 0.99970  0.09970  0.08950  Biso   1.000  C
  H41      1.0000 0.00150  0.39130  0.54330  Biso   1.000  H
  H42      1.0000 0.49850  0.60870  0.04330  Biso   1.000  H
  H43      1.0000 0.50150  0.10870  0.45670  Biso   1.000  H
  H44      1.0000 0.99850  0.89130  0.95670  Biso   1.000  H
  H45      1.0000 0.99850  0.60870  0.45670  Biso   1.000  H
  H46      1.0000 0.50150  0.39130  0.95670  Biso   1.000  H
  H47      1.0000 0.49850  0.89130  0.54330  Biso   1.000  H
  H48      1.0000 0.00150  0.10870  0.04330  Biso   1.000  H
  C73      1.0000 0.04260  0.36080  0.63230  Biso   1.000  C
  C74      1.0000 0.45740  0.63920  0.13230  Biso   1.000  C
  C75      1.0000 0.54260  0.13920  0.36770  Biso   1.000  C
  C76      1.0000 0.95740  0.86080  0.86770  Biso   1.000  C
  C77      1.0000 0.95740  0.63920  0.36770  Biso   1.000  C
  C78      1.0000 0.54260  0.36080  0.86770  Biso   1.000  C
  C79      1.0000 0.45740  0.86080  0.63230  Biso   1.000  C
  C80      1.0000 0.04260  0.13920  0.13230  Biso   1.000  C
  C81      1.0000 0.03580  0.37700  0.70050  Biso   1.000  C
  C82      1.0000 0.46420  0.62300  0.20050  Biso   1.000  C
  C83      1.0000 0.53580  0.12300  0.29950  Biso   1.000  C
  C84      1.0000 0.96420  0.87700  0.79950  Biso   1.000  C
  C85      1.0000 0.96420  0.62300  0.29950  Biso   1.000  C
  C86      1.0000 0.53580  0.37700  0.79950  Biso   1.000  C
  C87      1.0000 0.46420  0.87700  0.70050  Biso   1.000  C
  C88      1.0000 0.03580  0.12300  0.20050  Biso   1.000  C
  H49      1.0000 0.06350  0.35240  0.73190  Biso   1.000  H
  H50      1.0000 0.43650  0.64760  0.23190  Biso   1.000  H
  H51      1.0000 0.56350  0.14760  0.26810  Biso   1.000  H
  H52      1.0000 0.93650  0.85240  0.76810  Biso   1.000  H
  H53      1.0000 0.93650  0.64760  0.26810  Biso   1.000  H
  H54      1.0000 0.56350  0.35240  0.76810  Biso   1.000  H
  H55      1.0000 0.43650  0.85240  0.73190  Biso   1.000  H
  H56      1.0000 0.06350  0.14760  0.23190  Biso   1.000  H
  C89      1.0000 0.98800  0.42960  0.72170  Biso   1.000  C
  C90      1.0000 0.51200  0.57040  0.22170  Biso   1.000  C
  C91      1.0000 0.48800  0.07040  0.27830  Biso   1.000  C
  C92      1.0000 0.01200  0.92960  0.77830  Biso   1.000  C
  C93      1.0000 0.01200  0.57040  0.27830  Biso   1.000  C
  C94      1.0000 0.48800  0.42960  0.77830  Biso   1.000  C
  C95      1.0000 0.51200  0.92960  0.72170  Biso   1.000  C
  C96      1.0000 0.98800  0.07040  0.22170  Biso   1.000  C
  H57      1.0000 0.98410  0.43890  0.76770  Biso   1.000  H
  H58      1.0000 0.51590  0.56110  0.26770  Biso   1.000  H
  H59      1.0000 0.48410  0.06110  0.23230  Biso   1.000  H
  H60      1.0000 0.01590  0.93890  0.73230  Biso   1.000  H
  H61      1.0000 0.01590  0.56110  0.23230  Biso   1.000  H
  H62      1.0000 0.48410  0.43890  0.73230  Biso   1.000  H
  H63      1.0000 0.51590  0.93890  0.76770  Biso   1.000  H
  H64      1.0000 0.98410  0.06110  0.26770  Biso   1.000  H
  C97      1.0000 0.24000  0.90850  0.26470  Biso   1.000  C
  C98      1.0000 0.26000  0.09150  0.76470  Biso   1.000  C
  C99      1.0000 0.74000  0.59150  0.73530  Biso   1.000  C
  C100     1.0000 0.76000  0.40850  0.23530  Biso   1.000  C
  C101     1.0000 0.76000  0.09150  0.73530  Biso   1.000  C
  C102     1.0000 0.74000  0.90850  0.23530  Biso   1.000  C
  C103     1.0000 0.26000  0.40850  0.26470  Biso   1.000  C
  C104     1.0000 0.24000  0.59150  0.76470  Biso   1.000  C
  C105     1.0000 0.22900  0.96710  0.31770  Biso   1.000  C
  C106     1.0000 0.27100  0.03290  0.81770  Biso   1.000  C
  C107     1.0000 0.72900  0.53290  0.68230  Biso   1.000  C
  C108     1.0000 0.77100  0.46710  0.18230  Biso   1.000  C
  C109     1.0000 0.77100  0.03290  0.68230  Biso   1.000  C
  C110     1.0000 0.72900  0.96710  0.18230  Biso   1.000  C
  C111     1.0000 0.27100  0.46710  0.31770  Biso   1.000  C
  C112     1.0000 0.22900  0.53290  0.81770  Biso   1.000  C
  C113     1.0000 0.51600  0.35120  0.24730  Biso   1.000  C
  C114     1.0000 0.98400  0.64880  0.74730  Biso   1.000  C
  C115     1.0000 0.01600  0.14880  0.75270  Biso   1.000  C
  C116     1.0000 0.48400  0.85120  0.25270  Biso   1.000  C
  C117     1.0000 0.48400  0.64880  0.75270  Biso   1.000  C
  C118     1.0000 0.01600  0.35120  0.25270  Biso   1.000  C
  C119     1.0000 0.98400  0.85120  0.24730  Biso   1.000  C
  C120     1.0000 0.51600  0.14880  0.74730  Biso   1.000  C
  H65      1.0000 0.52280  0.33980  0.20200  Biso   1.000  H
  H66      1.0000 0.97720  0.66020  0.70200  Biso   1.000  H
  H67      1.0000 0.02280  0.16020  0.79800  Biso   1.000  H
  H68      1.0000 0.47720  0.83980  0.29800  Biso   1.000  H
  H69      1.0000 0.47720  0.66020  0.79800  Biso   1.000  H
  H70      1.0000 0.02280  0.33980  0.29800  Biso   1.000  H
  H71      1.0000 0.97720  0.83980  0.20200  Biso   1.000  H
  H72      1.0000 0.52280  0.16020  0.70200  Biso   1.000  H
  C121     1.0000 0.46750  0.31000  0.28340  Biso   1.000  C
  C122     1.0000 0.03250  0.69000  0.78340  Biso   1.000  C
  C123     1.0000 0.96750  0.19000  0.71660  Biso   1.000  C
  C124     1.0000 0.53250  0.81000  0.21660  Biso   1.000  C
  C125     1.0000 0.53250  0.69000  0.71660  Biso   1.000  C
  C126     1.0000 0.96750  0.31000  0.21660  Biso   1.000  C
  C127     1.0000 0.03250  0.81000  0.28340  Biso   1.000  C
  C128     1.0000 0.46750  0.19000  0.78340  Biso   1.000  C
  H73      1.0000 0.44280  0.27230  0.26200  Biso   1.000  H
  H74      1.0000 0.05720  0.72770  0.76200  Biso   1.000  H
  H75      1.0000 0.94280  0.22770  0.73800  Biso   1.000  H
  H76      1.0000 0.55720  0.77230  0.23800  Biso   1.000  H
  H77      1.0000 0.55720  0.72770  0.73800  Biso   1.000  H
  H78      1.0000 0.94280  0.27230  0.23800  Biso   1.000  H
  H79      1.0000 0.05720  0.77230  0.26200  Biso   1.000  H
  H80      1.0000 0.44280  0.22770  0.76200  Biso   1.000  H
  C129     1.0000 0.45570  0.32440  0.35070  Biso   1.000  C
  C130     1.0000 0.04430  0.67560  0.85070  Biso   1.000  C
  C131     1.0000 0.95570  0.17560  0.64930  Biso   1.000  C
  C132     1.0000 0.54430  0.82440  0.14930  Biso   1.000  C
  C133     1.0000 0.54430  0.67560  0.64930  Biso   1.000  C
  C134     1.0000 0.95570  0.32440  0.14930  Biso   1.000  C
  C135     1.0000 0.04430  0.82440  0.35070  Biso   1.000  C
  C136     1.0000 0.45570  0.17560  0.85070  Biso   1.000  C
  C137     1.0000 0.49540  0.38150  0.37840  Biso   1.000  C
  C138     1.0000 0.00460  0.61850  0.87840  Biso   1.000  C
  C139     1.0000 0.99540  0.11850  0.62160  Biso   1.000  C
  C140     1.0000 0.50460  0.88150  0.12160  Biso   1.000  C
  C141     1.0000 0.50460  0.61850  0.62160  Biso   1.000  C
  C142     1.0000 0.99540  0.38150  0.12160  Biso   1.000  C
  C143     1.0000 0.00460  0.88150  0.37840  Biso   1.000  C
  C144     1.0000 0.49540  0.11850  0.87840  Biso   1.000  C
  H81      1.0000 0.49030  0.39350  0.42370  Biso   1.000  H
  H82      1.0000 0.00970  0.60650  0.92370  Biso   1.000  H
  H83      1.0000 0.99030  0.10650  0.57630  Biso   1.000  H
  H84      1.0000 0.50970  0.89350  0.07630  Biso   1.000  H
  H85      1.0000 0.50970  0.60650  0.57630  Biso   1.000  H
  H86      1.0000 0.99030  0.39350  0.07630  Biso   1.000  H
  H87      1.0000 0.00970  0.89350  0.42370  Biso   1.000  H
  H88      1.0000 0.49030  0.10650  0.92370  Biso   1.000  H
  C145     1.0000 0.54230  0.42020  0.33910  Biso   1.000  C
  C146     1.0000 0.95770  0.57980  0.83910  Biso   1.000  C
  C147     1.0000 0.04230  0.07980  0.66090  Biso   1.000  C
  C148     1.0000 0.45770  0.92020  0.16090  Biso   1.000  C
  C149     1.0000 0.45770  0.57980  0.66090  Biso   1.000  C
  C150     1.0000 0.04230  0.42020  0.16090  Biso   1.000  C
  C151     1.0000 0.95770  0.92020  0.33910  Biso   1.000  C
  C152     1.0000 0.54230  0.07980  0.83910  Biso   1.000  C
  H89      1.0000 0.56760  0.45830  0.35910  Biso   1.000  H
  H90      1.0000 0.93240  0.54170  0.85910  Biso   1.000  H
  H91      1.0000 0.06760  0.04170  0.64090  Biso   1.000  H
  H92      1.0000 0.43240  0.95830  0.14090  Biso   1.000  H
  H93      1.0000 0.43240  0.54170  0.64090  Biso   1.000  H
  H94      1.0000 0.06760  0.45830  0.14090  Biso   1.000  H
  H95      1.0000 0.93240  0.95830  0.35910  Biso   1.000  H
  H96      1.0000 0.56760  0.04170  0.85910  Biso   1.000  H
  C153     1.0000 0.31520  0.18950  0.40050  Biso   1.000  C
  C154     1.0000 0.18480  0.81050  0.90050  Biso   1.000  C
  C155     1.0000 0.81520  0.31050  0.59950  Biso   1.000  C
  C156     1.0000 0.68480  0.68950  0.09950  Biso   1.000  C
  C157     1.0000 0.68480  0.81050  0.59950  Biso   1.000  C
  C158     1.0000 0.81520  0.18950  0.09950  Biso   1.000  C
  C159     1.0000 0.18480  0.68950  0.40050  Biso   1.000  C
  C160     1.0000 0.31520  0.31050  0.90050  Biso   1.000  C
  H97      1.0000 0.28610  0.15570  0.37890  Biso   1.000  H
  H98      1.0000 0.21390  0.84430  0.87890  Biso   1.000  H
  H99      1.0000 0.78610  0.34430  0.62110  Biso   1.000  H
  H100     1.0000 0.71390  0.65570  0.12110  Biso   1.000  H
  H101     1.0000 0.71390  0.84430  0.62110  Biso   1.000  H
  H102     1.0000 0.78610  0.15570  0.12110  Biso   1.000  H
  H103     1.0000 0.21390  0.65570  0.37890  Biso   1.000  H
  H104     1.0000 0.28610  0.34430  0.87890  Biso   1.000  H
  C161     1.0000 0.36000  0.23170  0.36190  Biso   1.000  C
  C162     1.0000 0.14000  0.76830  0.86190  Biso   1.000  C
  C163     1.0000 0.86000  0.26830  0.63810  Biso   1.000  C
  C164     1.0000 0.64000  0.73170  0.13810  Biso   1.000  C
  C165     1.0000 0.64000  0.76830  0.63810  Biso   1.000  C
  C166     1.0000 0.86000  0.23170  0.13810  Biso   1.000  C
  C167     1.0000 0.14000  0.73170  0.36190  Biso   1.000  C
  C168     1.0000 0.36000  0.26830  0.86190  Biso   1.000  C
  H105     1.0000 0.35990  0.22620  0.31530  Biso   1.000  H
  H106     1.0000 0.14010  0.77380  0.81530  Biso   1.000  H
  H107     1.0000 0.85990  0.27380  0.68470  Biso   1.000  H
  H108     1.0000 0.64010  0.72620  0.18470  Biso   1.000  H
  H109     1.0000 0.64010  0.77380  0.68470  Biso   1.000  H
  H110     1.0000 0.85990  0.22620  0.18470  Biso   1.000  H
  H111     1.0000 0.14010  0.72620  0.31530  Biso   1.000  H
  H112     1.0000 0.35990  0.27380  0.81530  Biso   1.000  H
  C169     1.0000 0.40460  0.28170  0.39120  Biso   1.000  C
  C170     1.0000 0.09540  0.71830  0.89120  Biso   1.000  C
  C171     1.0000 0.90460  0.21830  0.60880  Biso   1.000  C
  C172     1.0000 0.59540  0.78170  0.10880  Biso   1.000  C
  C173     1.0000 0.59540  0.71830  0.60880  Biso   1.000  C
  C174     1.0000 0.90460  0.28170  0.10880  Biso   1.000  C
  C175     1.0000 0.09540  0.78170  0.39120  Biso   1.000  C
  C176     1.0000 0.40460  0.21830  0.89120  Biso   1.000  C
  C177     1.0000 0.39930  0.28890  0.46010  Biso   1.000  C
  C178     1.0000 0.10070  0.71110  0.96010  Biso   1.000  C
  C179     1.0000 0.89930  0.21110  0.53990  Biso   1.000  C
  C180     1.0000 0.60070  0.78890  0.03990  Biso   1.000  C
  C181     1.0000 0.60070  0.71110  0.53990  Biso   1.000  C
  C182     1.0000 0.89930  0.28890  0.03990  Biso   1.000  C
  C183     1.0000 0.10070  0.78890  0.46010  Biso   1.000  C
  C184     1.0000 0.39930  0.21110  0.96010  Biso   1.000  C
  H113     1.0000 0.42760  0.32280  0.48250  Biso   1.000  H
  H114     1.0000 0.07240  0.67720  0.98250  Biso   1.000  H
  H115     1.0000 0.92760  0.17720  0.51750  Biso   1.000  H
  H116     1.0000 0.57240  0.82280  0.01750  Biso   1.000  H
  H117     1.0000 0.57240  0.67720  0.51750  Biso   1.000  H
  H118     1.0000 0.92760  0.32280  0.01750  Biso   1.000  H
  H119     1.0000 0.07240  0.82280  0.48250  Biso   1.000  H
  H120     1.0000 0.42760  0.17720  0.98250  Biso   1.000  H
  C185     1.0000 0.35230  0.24610  0.49640  Biso   1.000  C
  C186     1.0000 0.14770  0.75390  0.99640  Biso   1.000  C
  C187     1.0000 0.85230  0.25390  0.50360  Biso   1.000  C
  C188     1.0000 0.64770  0.74610  0.00360  Biso   1.000  C
  C189     1.0000 0.64770  0.75390  0.50360  Biso   1.000  C
  C190     1.0000 0.85230  0.24610  0.00360  Biso   1.000  C
  C191     1.0000 0.14770  0.74610  0.49640  Biso   1.000  C
  C192     1.0000 0.35230  0.25390  0.99640  Biso   1.000  C
  H121     1.0000 0.34890  0.25370  0.54270  Biso   1.000  H
  H122     1.0000 0.15110  0.74630  0.04270  Biso   1.000  H
  H123     1.0000 0.84890  0.24630  0.45730  Biso   1.000  H
  H124     1.0000 0.65110  0.75370  0.95730  Biso   1.000  H
  H125     1.0000 0.65110  0.74630  0.45730  Biso   1.000  H
  H126     1.0000 0.84890  0.25370  0.95730  Biso   1.000  H
  H127     1.0000 0.15110  0.75370  0.54270  Biso   1.000  H
  H128     1.0000 0.34890  0.24630  0.04270  Biso   1.000  H
  C193     1.0000 0.21780  0.90380  0.58690  Biso   1.000  C
  C194     1.0000 0.28220  0.09620  0.08690  Biso   1.000  C
  C195     1.0000 0.71780  0.59620  0.41310  Biso   1.000  C
  C196     1.0000 0.78220  0.40380  0.91310  Biso   1.000  C
  C197     1.0000 0.78220  0.09620  0.41310  Biso   1.000  C
  C198     1.0000 0.71780  0.90380  0.91310  Biso   1.000  C
  C199     1.0000 0.28220  0.40380  0.58690  Biso   1.000  C
  C200     1.0000 0.21780  0.59620  0.08690  Biso   1.000  C
  H129     1.0000 0.25110  0.86540  0.57500  Biso   1.000  H
  H130     1.0000 0.24890  0.13460  0.07500  Biso   1.000  H
  H131     1.0000 0.75110  0.63460  0.42500  Biso   1.000  H
  H132     1.0000 0.74890  0.36540  0.92500  Biso   1.000  H
  H133     1.0000 0.74890  0.13460  0.42500  Biso   1.000  H
  H134     1.0000 0.75110  0.86540  0.92500  Biso   1.000  H
  H135     1.0000 0.24890  0.36540  0.57500  Biso   1.000  H
  H136     1.0000 0.25110  0.63460  0.07500  Biso   1.000  H
  H137     1.0000 0.17660  0.89660  0.55890  Biso   1.000  H
  H138     1.0000 0.32340  0.10340  0.05890  Biso   1.000  H
  H139     1.0000 0.67660  0.60340  0.44110  Biso   1.000  H
  H140     1.0000 0.82340  0.39660  0.94110  Biso   1.000  H
  H141     1.0000 0.82340  0.10340  0.44110  Biso   1.000  H
  H142     1.0000 0.67660  0.89660  0.94110  Biso   1.000  H
  H143     1.0000 0.32340  0.39660  0.55890  Biso   1.000  H
  H144     1.0000 0.17660  0.60340  0.05890  Biso   1.000  H
  C201     1.0000 0.15950  0.99490  0.32050  Biso   1.000  C
  C202     1.0000 0.34050  0.00510  0.82050  Biso   1.000  C
  C203     1.0000 0.65950  0.50510  0.67950  Biso   1.000  C
  C204     1.0000 0.84050  0.49490  0.17950  Biso   1.000  C
  C205     1.0000 0.84050  0.00510  0.67950  Biso   1.000  C
  C206     1.0000 0.65950  0.99490  0.17950  Biso   1.000  C
  C207     1.0000 0.34050  0.49490  0.32050  Biso   1.000  C
  C208     1.0000 0.15950  0.50510  0.82050  Biso   1.000  C
  H145     1.0000 0.12770  0.95380  0.31300  Biso   1.000  H
  H146     1.0000 0.37230  0.04620  0.81300  Biso   1.000  H
  H147     1.0000 0.62770  0.54620  0.68700  Biso   1.000  H
  H148     1.0000 0.87230  0.45380  0.18700  Biso   1.000  H
  H149     1.0000 0.87230  0.04620  0.68700  Biso   1.000  H
  H150     1.0000 0.62770  0.95380  0.18700  Biso   1.000  H
  H151     1.0000 0.37230  0.45380  0.31300  Biso   1.000  H
  H152     1.0000 0.12770  0.54620  0.81300  Biso   1.000  H
  H153     1.0000 0.15340  0.02930  0.28340  Biso   1.000  H
  H154     1.0000 0.34660  0.97070  0.78340  Biso   1.000  H
  H155     1.0000 0.65340  0.47070  0.71660  Biso   1.000  H
  H156     1.0000 0.84660  0.52930  0.21660  Biso   1.000  H
  H157     1.0000 0.84660  0.97070  0.71660  Biso   1.000  H
  H158     1.0000 0.65340  0.02930  0.21660  Biso   1.000  H
  H159     1.0000 0.34660  0.52930  0.28340  Biso   1.000  H
  H160     1.0000 0.15340  0.47070  0.78340  Biso   1.000  H
  N1       1.0000 0.20730  0.04230  0.57530  Biso   1.000  N
  N2       1.0000 0.29270  0.95770  0.07530  Biso   1.000  N
  N3       1.0000 0.70730  0.45770  0.42470  Biso   1.000  N
  N4       1.0000 0.79270  0.54230  0.92470  Biso   1.000  N
  N5       1.0000 0.79270  0.95770  0.42470  Biso   1.000  N
  N6       1.0000 0.70730  0.04230  0.92470  Biso   1.000  N
  N7       1.0000 0.29270  0.54230  0.57530  Biso   1.000  N
  N8       1.0000 0.20730  0.45770  0.07530  Biso   1.000  N
  H161     1.0000 0.16440  0.03620  0.55810  Biso   1.000  H
  H162     1.0000 0.33560  0.96380  0.05810  Biso   1.000  H
  H163     1.0000 0.66440  0.46380  0.44190  Biso   1.000  H
  H164     1.0000 0.83560  0.53620  0.94190  Biso   1.000  H
  H165     1.0000 0.83560  0.96380  0.44190  Biso   1.000  H
  H166     1.0000 0.66440  0.03620  0.94190  Biso   1.000  H
  H167     1.0000 0.33560  0.53620  0.55810  Biso   1.000  H
  H168     1.0000 0.16440  0.46380  0.05810  Biso   1.000  H
  H169     1.0000 0.20270  0.05480  0.61890  Biso   1.000  H
  H170     1.0000 0.29730  0.94520  0.11890  Biso   1.000  H
  H171     1.0000 0.70270  0.44520  0.38110  Biso   1.000  H
  H172     1.0000 0.79730  0.55480  0.88110  Biso   1.000  H
  H173     1.0000 0.79730  0.94520  0.38110  Biso   1.000  H
  H174     1.0000 0.70270  0.05480  0.88110  Biso   1.000  H
  H175     1.0000 0.29730  0.55480  0.61890  Biso   1.000  H
  H176     1.0000 0.20270  0.44520  0.11890  Biso   1.000  H
  N9       1.0000 0.18930  0.19910  0.55940  Biso   1.000  N
  N10      1.0000 0.31070  0.80090  0.05940  Biso   1.000  N
  N11      1.0000 0.68930  0.30090  0.44060  Biso   1.000  N
  N12      1.0000 0.81070  0.69910  0.94060  Biso   1.000  N
  N13      1.0000 0.81070  0.80090  0.44060  Biso   1.000  N
  N14      1.0000 0.68930  0.19910  0.94060  Biso   1.000  N
  N15      1.0000 0.31070  0.69910  0.55940  Biso   1.000  N
  N16      1.0000 0.18930  0.30090  0.05940  Biso   1.000  N
  N17      1.0000 0.94740  0.46780  0.67940  Biso   1.000  N
  N18      1.0000 0.55260  0.53220  0.17940  Biso   1.000  N
  N19      1.0000 0.44740  0.03220  0.32060  Biso   1.000  N
  N20      1.0000 0.05260  0.96780  0.82060  Biso   1.000  N
  N21      1.0000 0.05260  0.53220  0.32060  Biso   1.000  N
  N22      1.0000 0.44740  0.46780  0.82060  Biso   1.000  N
  N23      1.0000 0.55260  0.96780  0.67940  Biso   1.000  N
  N24      1.0000 0.94740  0.03220  0.17940  Biso   1.000  N
  N25      1.0000 0.29320  0.00930  0.32940  Biso   1.000  N
  N26      1.0000 0.20680  0.99070  0.82940  Biso   1.000  N
  N27      1.0000 0.79320  0.49070  0.67060  Biso   1.000  N
  N28      1.0000 0.70680  0.50930  0.17060  Biso   1.000  N
  N29      1.0000 0.70680  0.99070  0.67060  Biso   1.000  N
  N30      1.0000 0.79320  0.00930  0.17060  Biso   1.000  N
  N31      1.0000 0.20680  0.50930  0.32940  Biso   1.000  N
  N32      1.0000 0.29320  0.49070  0.82940  Biso   1.000  N
  H177     1.0000 0.28780  0.05550  0.31480  Biso   1.000  H
  H178     1.0000 0.21220  0.94450  0.81480  Biso   1.000  H
  H179     1.0000 0.78780  0.44450  0.68520  Biso   1.000  H
  H180     1.0000 0.71220  0.55550  0.18520  Biso   1.000  H
  H181     1.0000 0.71220  0.94450  0.68520  Biso   1.000  H
  H182     1.0000 0.78780  0.05550  0.18520  Biso   1.000  H
  H183     1.0000 0.21220  0.55550  0.31480  Biso   1.000  H
  H184     1.0000 0.28780  0.44450  0.81480  Biso   1.000  H
  H185     1.0000 0.30140  0.01100  0.37360  Biso   1.000  H
  H186     1.0000 0.19860  0.98900  0.87360  Biso   1.000  H
  H187     1.0000 0.80140  0.48900  0.62640  Biso   1.000  H
  H188     1.0000 0.69860  0.51100  0.12640  Biso   1.000  H
  H189     1.0000 0.69860  0.98900  0.62640  Biso   1.000  H
  H190     1.0000 0.80140  0.01100  0.12640  Biso   1.000  H
  H191     1.0000 0.19860  0.51100  0.37360  Biso   1.000  H
  H192     1.0000 0.30140  0.48900  0.87360  Biso   1.000  H
  N33      1.0000 0.55330  0.40610  0.27390  Biso   1.000  N
  N34      1.0000 0.94670  0.59390  0.77390  Biso   1.000  N
  N35      1.0000 0.05330  0.09390  0.72610  Biso   1.000  N
  N36      1.0000 0.44670  0.90610  0.22610  Biso   1.000  N
  N37      1.0000 0.44670  0.59390  0.72610  Biso   1.000  N
  N38      1.0000 0.05330  0.40610  0.22610  Biso   1.000  N
  N39      1.0000 0.94670  0.90610  0.27390  Biso   1.000  N
  N40      1.0000 0.55330  0.09390  0.77390  Biso   1.000  N
  N41      1.0000 0.31200  0.19510  0.46870  Biso   1.000  N
  N42      1.0000 0.18800  0.80490  0.96870  Biso   1.000  N
  N43      1.0000 0.81200  0.30490  0.53130  Biso   1.000  N
  N44      1.0000 0.68800  0.69510  0.03130  Biso   1.000  N
  N45      1.0000 0.68800  0.80490  0.53130  Biso   1.000  N
  N46      1.0000 0.81200  0.19510  0.03130  Biso   1.000  N
  N47      1.0000 0.18800  0.69510  0.46870  Biso   1.000  N
  N48      1.0000 0.31200  0.30490  0.96870  Biso   1.000  N
  O1       1.0000 0.30750  0.03830  0.48370  Biso   1.000  O
  O2       1.0000 0.19250  0.96170  0.98370  Biso   1.000  O
  O3       1.0000 0.80750  0.46170  0.51630  Biso   1.000  O
  O4       1.0000 0.69250  0.53830  0.01630  Biso   1.000  O
  O5       1.0000 0.69250  0.96170  0.51630  Biso   1.000  O
  O6       1.0000 0.80750  0.03830  0.01630  Biso   1.000  O
  O7       1.0000 0.19250  0.53830  0.48370  Biso   1.000  O
  O8       1.0000 0.30750  0.46170  0.98370  Biso   1.000  O
  O9       1.0000 0.32180  0.91700  0.49000  Biso   1.000  O
  O10      1.0000 0.17820  0.08300  0.99000  Biso   1.000  O
  O11      1.0000 0.82180  0.58300  0.51000  Biso   1.000  O
  O12      1.0000 0.67820  0.41700  0.01000  Biso   1.000  O
  O13      1.0000 0.67820  0.08300  0.51000  Biso   1.000  O
  O14      1.0000 0.82180  0.91700  0.01000  Biso   1.000  O
  O15      1.0000 0.17820  0.41700  0.49000  Biso   1.000  O
  O16      1.0000 0.32180  0.58300  0.99000  Biso   1.000  O
  O17      1.0000 0.14260  0.94920  0.68790  Biso   1.000  O
  O18      1.0000 0.35740  0.05080  0.18790  Biso   1.000  O
  O19      1.0000 0.64260  0.55080  0.31210  Biso   1.000  O
  O20      1.0000 0.85740  0.44920  0.81210  Biso   1.000  O
  O21      1.0000 0.85740  0.05080  0.31210  Biso   1.000  O
  O22      1.0000 0.64260  0.94920  0.81210  Biso   1.000  O
  O23      1.0000 0.35740  0.44920  0.68790  Biso   1.000  O
  O24      1.0000 0.14260  0.55080  0.18790  Biso   1.000  O
  O25      1.0000 0.24080  0.87790  0.72610  Biso   1.000  O
  O26      1.0000 0.25920  0.12210  0.22610  Biso   1.000  O
  O27      1.0000 0.74080  0.62210  0.27390  Biso   1.000  O
  O28      1.0000 0.75920  0.37790  0.77390  Biso   1.000  O
  O29      1.0000 0.75920  0.12210  0.27390  Biso   1.000  O
  O30      1.0000 0.74080  0.87790  0.77390  Biso   1.000  O
  O31      1.0000 0.25920  0.37790  0.72610  Biso   1.000  O
  O32      1.0000 0.24080  0.62210  0.22610  Biso   1.000  O
  O33      1.0000 0.30070  0.90350  0.24000  Biso   1.000  O
  O34      1.0000 0.19930  0.09650  0.74000  Biso   1.000  O
  O35      1.0000 0.80070  0.59650  0.76000  Biso   1.000  O
  O36      1.0000 0.69930  0.40350  0.26000  Biso   1.000  O
  O37      1.0000 0.69930  0.09650  0.76000  Biso   1.000  O
  O38      1.0000 0.80070  0.90350  0.26000  Biso   1.000  O
  O39      1.0000 0.19930  0.40350  0.24000  Biso   1.000  O
  O40      1.0000 0.30070  0.59650  0.74000  Biso   1.000  O
  O41      1.0000 0.18980  0.86890  0.24760  Biso   1.000  O
  O42      1.0000 0.31020  0.13110  0.74760  Biso   1.000  O
  O43      1.0000 0.68980  0.63110  0.75240  Biso   1.000  O
  O44      1.0000 0.81020  0.36890  0.25240  Biso   1.000  O
  O45      1.0000 0.81020  0.13110  0.75240  Biso   1.000  O
  O46      1.0000 0.68980  0.86890  0.25240  Biso   1.000  O
  O47      1.0000 0.31020  0.36890  0.24760  Biso   1.000  O
  O48      1.0000 0.18980  0.63110  0.74760  Biso   1.000  O
  O49      1.0000 0.18030  0.10050  0.41190  Biso   1.000  O
  O50      1.0000 0.31970  0.89950  0.91190  Biso   1.000  O
  O51      1.0000 0.68030  0.39950  0.58810  Biso   1.000  O
  O52      1.0000 0.81970  0.60050  0.08810  Biso   1.000  O
  O53      1.0000 0.81970  0.89950  0.58810  Biso   1.000  O
  O54      1.0000 0.68030  0.10050  0.08810  Biso   1.000  O
  O55      1.0000 0.31970  0.60050  0.41190  Biso   1.000  O
  O56      1.0000 0.18030  0.39950  0.91190  Biso   1.000  O
  O57      1.0000 0.12400  0.99660  0.45590  Biso   1.000  O
  O58      1.0000 0.37600  0.00340  0.95590  Biso   1.000  O
  O59      1.0000 0.62400  0.50340  0.54410  Biso   1.000  O
  O60      1.0000 0.87600  0.49660  0.04410  Biso   1.000  O
  O61      1.0000 0.87600  0.00340  0.54410  Biso   1.000  O
  O62      1.0000 0.62400  0.99660  0.04410  Biso   1.000  O
  O63      1.0000 0.37600  0.49660  0.45590  Biso   1.000  O
  O64      1.0000 0.12400  0.50340  0.95590  Biso   1.000  O
  O65      1.0000 0.16000  0.82330  0.65480  Biso   1.000  O
  O66      1.0000 0.34000  0.17670  0.15480  Biso   1.000  O
  O67      1.0000 0.66000  0.67670  0.34520  Biso   1.000  O
  O68      1.0000 0.84000  0.32330  0.84520  Biso   1.000  O
  O69      1.0000 0.84000  0.17670  0.34520  Biso   1.000  O
  O70      1.0000 0.66000  0.82330  0.84520  Biso   1.000  O
  O71      1.0000 0.34000  0.32330  0.65480  Biso   1.000  O
  O72      1.0000 0.16000  0.67670  0.15480  Biso   1.000  O
  O73      1.0000 0.06720  0.06290  0.37240  Biso   1.000  O
  O74      1.0000 0.43280  0.93710  0.87240  Biso   1.000  O
  O75      1.0000 0.56720  0.43710  0.62760  Biso   1.000  O
  O76      1.0000 0.93280  0.56290  0.12760  Biso   1.000  O
  O77      1.0000 0.93280  0.93710  0.62760  Biso   1.000  O
  O78      1.0000 0.56720  0.06290  0.12760  Biso   1.000  O
  O79      1.0000 0.43280  0.56290  0.37240  Biso   1.000  O
  O80      1.0000 0.06720  0.43710  0.87240  Biso   1.000  O
  O81      1.0000 0.33950  0.12520  0.61200  Biso   1.000  O
  O82      1.0000 0.16050  0.87480  0.11200  Biso   1.000  O
  O83      1.0000 0.83950  0.37480  0.38800  Biso   1.000  O
  O84      1.0000 0.66050  0.62520  0.88800  Biso   1.000  O
  O85      1.0000 0.66050  0.87480  0.38800  Biso   1.000  O
  O86      1.0000 0.83950  0.12520  0.88800  Biso   1.000  O
  O87      1.0000 0.16050  0.62520  0.61200  Biso   1.000  O
  O88      1.0000 0.33950  0.37480  0.11200  Biso   1.000  O
  O89      1.0000 0.88470  0.62540  0.62360  Biso   1.000  O
  O90      1.0000 0.61530  0.37460  0.12360  Biso   1.000  O
  O91      1.0000 0.38470  0.87460  0.37640  Biso   1.000  O
  O92      1.0000 0.11530  0.12540  0.87640  Biso   1.000  O
  O93      1.0000 0.11530  0.37460  0.37640  Biso   1.000  O
  O94      1.0000 0.38470  0.62540  0.87640  Biso   1.000  O
  O95      1.0000 0.61530  0.12540  0.62360  Biso   1.000  O
  O96      1.0000 0.88470  0.87460  0.12360  Biso   1.000  O
  O97      1.0000 0.15940  0.23780  0.32380  Biso   1.000  O
  O98      1.0000 0.34060  0.76220  0.82380  Biso   1.000  O
  O99      1.0000 0.65940  0.26220  0.67620  Biso   1.000  O
  O100     1.0000 0.84060  0.73780  0.17620  Biso   1.000  O
  O101     1.0000 0.84060  0.76220  0.67620  Biso   1.000  O
  O102     1.0000 0.65940  0.23780  0.17620  Biso   1.000  O
  O103     1.0000 0.34060  0.73780  0.32380  Biso   1.000  O
  O104     1.0000 0.15940  0.26220  0.82380  Biso   1.000  O
  O105     1.0000 0.48000  0.19580  0.12430  Biso   1.000  O
  O106     1.0000 0.02000  0.80420  0.62430  Biso   1.000  O
  O107     1.0000 0.98000  0.30420  0.87570  Biso   1.000  O
  O108     1.0000 0.52000  0.69580  0.37570  Biso   1.000  O
  O109     1.0000 0.52000  0.80420  0.87570  Biso   1.000  O
  O110     1.0000 0.98000  0.19580  0.37570  Biso   1.000  O
  O111     1.0000 0.02000  0.69580  0.12430  Biso   1.000  O
  O112     1.0000 0.48000  0.30420  0.62430  Biso   1.000  O
  O113     1.0000 0.47810  0.34080  0.07770  Biso   1.000  O
  O114     1.0000 0.02190  0.65920  0.57770  Biso   1.000  O
  O115     1.0000 0.97810  0.15920  0.92230  Biso   1.000  O
  O116     1.0000 0.52190  0.84080  0.42230  Biso   1.000  O
  O117     1.0000 0.52190  0.65920  0.92230  Biso   1.000  O
  O118     1.0000 0.97810  0.34080  0.42230  Biso   1.000  O
  O119     1.0000 0.02190  0.84080  0.07770  Biso   1.000  O
  O120     1.0000 0.47810  0.15920  0.57770  Biso   1.000  O
  O121     1.0000 0.44800  0.02700  0.02800  Biso   1.000  O
  O122     1.0000 0.05200  0.97300  0.52800  Biso   1.000  O
  O123     1.0000 0.94800  0.47300  0.97200  Biso   1.000  O
  O124     1.0000 0.55200  0.52700  0.47200  Biso   1.000  O
  O125     1.0000 0.55200  0.97300  0.97200  Biso   1.000  O
  O126     1.0000 0.94800  0.02700  0.47200  Biso   1.000  O
  O127     1.0000 0.05200  0.52700  0.02800  Biso   1.000  O
  O128     1.0000 0.44800  0.47300  0.52800  Biso   1.000  O
  S1       1.0000 0.19233  0.88998  0.67422  Biso   1.000  S
  S2       1.0000 0.30767  0.11002  0.17422  Biso   1.000  S
  S3       1.0000 0.69233  0.61002  0.32578  Biso   1.000  S
  S4       1.0000 0.80767  0.38998  0.82578  Biso   1.000  S
  S5       1.0000 0.80767  0.11002  0.32578  Biso   1.000  S
  S6       1.0000 0.69233  0.88998  0.82578  Biso   1.000  S
  S7       1.0000 0.30767  0.38998  0.67422  Biso   1.000  S
  S8       1.0000 0.19233  0.61002  0.17422  Biso   1.000  S
  S9       1.0000 0.13251  0.04182  0.39814  Biso   1.000  S
  S10      1.0000 0.36749  0.95818  0.89814  Biso   1.000  S
  S11      1.0000 0.63251  0.45818  0.60186  Biso   1.000  S
  S12      1.0000 0.86749  0.54182  0.10186  Biso   1.000  S
  S13      1.0000 0.86749  0.95818  0.60186  Biso   1.000  S
  S14      1.0000 0.63251  0.04182  0.10186  Biso   1.000  S
  S15      1.0000 0.36749  0.54182  0.39814  Biso   1.000  S
  S16      1.0000 0.13251  0.45818  0.89814  Biso   1.000  S
  H193     1.0000 0.11540  0.23470  0.33460  Biso   1.000  H
  H194     1.0000 0.38460  0.76530  0.83460  Biso   1.000  H
  H195     1.0000 0.61540  0.26530  0.66540  Biso   1.000  H
  H196     1.0000 0.88460  0.73470  0.16540  Biso   1.000  H
  H197     1.0000 0.88460  0.76530  0.66540  Biso   1.000  H
  H198     1.0000 0.61540  0.23470  0.16540  Biso   1.000  H
  H199     1.0000 0.38460  0.73470  0.33460  Biso   1.000  H
  H200     1.0000 0.11540  0.26530  0.83460  Biso   1.000  H
  H201     1.0000 0.49000  0.16230  0.09580  Biso   1.000  H
  H202     1.0000 0.01000  0.83770  0.59580  Biso   1.000  H
  H203     1.0000 0.99000  0.33770  0.90420  Biso   1.000  H
  H204     1.0000 0.51000  0.66230  0.40420  Biso   1.000  H
  H205     1.0000 0.51000  0.83770  0.90420  Biso   1.000  H
  H206     1.0000 0.99000  0.16230  0.40420  Biso   1.000  H
  H207     1.0000 0.01000  0.66230  0.09580  Biso   1.000  H
  H208     1.0000 0.49000  0.33770  0.59580  Biso   1.000  H
  H209     1.0000 0.33290  0.14300  0.65100  Biso   1.000  H
  H210     1.0000 0.16710  0.85700  0.15100  Biso   1.000  H
  H211     1.0000 0.83290  0.35700  0.34900  Biso   1.000  H
  H212     1.0000 0.66710  0.64300  0.84900  Biso   1.000  H
  H213     1.0000 0.66710  0.85700  0.34900  Biso   1.000  H
  H214     1.0000 0.83290  0.14300  0.84900  Biso   1.000  H
  H215     1.0000 0.16710  0.64300  0.65100  Biso   1.000  H
  H216     1.0000 0.33290  0.35700  0.15100  Biso   1.000  H
  H217     1.0000 0.38350  0.11710  0.60680  Biso   1.000  H
  H218     1.0000 0.11650  0.88290  0.10680  Biso   1.000  H
  H219     1.0000 0.88350  0.38290  0.39320  Biso   1.000  H
  H220     1.0000 0.61650  0.61710  0.89320  Biso   1.000  H
  H221     1.0000 0.61650  0.88290  0.39320  Biso   1.000  H
  H222     1.0000 0.88350  0.11710  0.89320  Biso   1.000  H
  H223     1.0000 0.11650  0.61710  0.60680  Biso   1.000  H
  H224     1.0000 0.38350  0.38290  0.10680  Biso   1.000  H
  H225     1.0000 0.17710  0.19260  0.33120  Biso   1.000  H
  H226     1.0000 0.32290  0.80740  0.83120  Biso   1.000  H
  H227     1.0000 0.67710  0.30740  0.66880  Biso   1.000  H
  H228     1.0000 0.82290  0.69260  0.16880  Biso   1.000  H
  H229     1.0000 0.82290  0.80740  0.66880  Biso   1.000  H
  H230     1.0000 0.67710  0.19260  0.16880  Biso   1.000  H
  H231     1.0000 0.32290  0.69260  0.33120  Biso   1.000  H
  H232     1.0000 0.17710  0.30740  0.83120  Biso   1.000  H
  H233     1.0000 0.44640  0.17930  0.14940  Biso   1.000  H
  H234     1.0000 0.05360  0.82070  0.64940  Biso   1.000  H
  H235     1.0000 0.94640  0.32070  0.85060  Biso   1.000  H
  H236     1.0000 0.55360  0.67930  0.35060  Biso   1.000  H
  H237     1.0000 0.55360  0.82070  0.85060  Biso   1.000  H
  H238     1.0000 0.94640  0.17930  0.35060  Biso   1.000  H
  H239     1.0000 0.05360  0.67930  0.14940  Biso   1.000  H
  H240     1.0000 0.44640  0.32070  0.64940  Biso   1.000  H
  H241     1.0000 0.51850  0.34460  0.09680  Biso   1.000  H
  H242     1.0000 0.98150  0.65540  0.59680  Biso   1.000  H
  H243     1.0000 0.01850  0.15540  0.90320  Biso   1.000  H
  H244     1.0000 0.48150  0.84460  0.40320  Biso   1.000  H
  H245     1.0000 0.48150  0.65540  0.90320  Biso   1.000  H
  H246     1.0000 0.01850  0.34460  0.40320  Biso   1.000  H
  H247     1.0000 0.98150  0.84460  0.09680  Biso   1.000  H
  H248     1.0000 0.51850  0.15540  0.59680  Biso   1.000  H
  H249     1.0000 0.45640  0.30430  0.09620  Biso   1.000  H
  H250     1.0000 0.04360  0.69570  0.59620  Biso   1.000  H
  H251     1.0000 0.95640  0.19570  0.90380  Biso   1.000  H
  H252     1.0000 0.54360  0.80430  0.40380  Biso   1.000  H
  H253     1.0000 0.54360  0.69570  0.90380  Biso   1.000  H
  H254     1.0000 0.95640  0.30430  0.40380  Biso   1.000  H
  H255     1.0000 0.04360  0.80430  0.09620  Biso   1.000  H
  H256     1.0000 0.45640  0.19570  0.59620  Biso   1.000  H
  H257     1.0000 0.86500  0.61000  0.58800  Biso   1.000  H
  H258     1.0000 0.63500  0.39000  0.08800  Biso   1.000  H
  H259     1.0000 0.36500  0.89000  0.41200  Biso   1.000  H
  H260     1.0000 0.13500  0.11000  0.91200  Biso   1.000  H
  H261     1.0000 0.13500  0.39000  0.41200  Biso   1.000  H
  H262     1.0000 0.36500  0.61000  0.91200  Biso   1.000  H
  H263     1.0000 0.63500  0.11000  0.58800  Biso   1.000  H
  H264     1.0000 0.86500  0.89000  0.08800  Biso   1.000  H
  H265     1.0000 0.85900  0.65700  0.64400  Biso   1.000  H
  H266     1.0000 0.64100  0.34300  0.14400  Biso   1.000  H
  H267     1.0000 0.35900  0.84300  0.35600  Biso   1.000  H
  H268     1.0000 0.14100  0.15700  0.85600  Biso   1.000  H
  H269     1.0000 0.14100  0.34300  0.35600  Biso   1.000  H
  H270     1.0000 0.35900  0.65700  0.85600  Biso   1.000  H
  H271     1.0000 0.64100  0.15700  0.64400  Biso   1.000  H
  H272     1.0000 0.85900  0.84300  0.14400  Biso   1.000  H
  C209     1.0000 0.31860  0.03850  0.86970  Biso   1.000  C
  C210     1.0000 0.18140  0.96150  0.36970  Biso   1.000  C
  C211     1.0000 0.81860  0.46150  0.13030  Biso   1.000  C
  C212     1.0000 0.68140  0.53850  0.63030  Biso   1.000  C
  C213     1.0000 0.68140  0.96150  0.13030  Biso   1.000  C
  C214     1.0000 0.81860  0.03850  0.63030  Biso   1.000  C
  C215     1.0000 0.18140  0.53850  0.86970  Biso   1.000  C
  C216     1.0000 0.31860  0.46150  0.36970  Biso   1.000  C
  C217     1.0000 0.26430  0.93300  0.62710  Biso   1.000  C
  C218     1.0000 0.23570  0.06700  0.12710  Biso   1.000  C
  C219     1.0000 0.76430  0.56700  0.37290  Biso   1.000  C
  C220     1.0000 0.73570  0.43300  0.87290  Biso   1.000  C
  C221     1.0000 0.73570  0.06700  0.37290  Biso   1.000  C
  C222     1.0000 0.76430  0.93300  0.87290  Biso   1.000  C
  C223     1.0000 0.23570  0.43300  0.62710  Biso   1.000  C
  C224     1.0000 0.26430  0.56700  0.12710  Biso   1.000  C
  H273     1.0000 0.29350  0.05780  0.90850  Biso   1.000  H
  H274     1.0000 0.20650  0.94220  0.40850  Biso   1.000  H
  H275     1.0000 0.79350  0.44220  0.09150  Biso   1.000  H
  H276     1.0000 0.70650  0.55780  0.59150  Biso   1.000  H
  H277     1.0000 0.70650  0.94220  0.09150  Biso   1.000  H
  H278     1.0000 0.79350  0.05780  0.59150  Biso   1.000  H
  H279     1.0000 0.20650  0.55780  0.90850  Biso   1.000  H
  H280     1.0000 0.29350  0.44220  0.40850  Biso   1.000  H
  H281     1.0000 0.35250  0.07590  0.85680  Biso   1.000  H
  H282     1.0000 0.14750  0.92410  0.35680  Biso   1.000  H
  H283     1.0000 0.85250  0.42410  0.14320  Biso   1.000  H
  H284     1.0000 0.64750  0.57590  0.64320  Biso   1.000  H
  H285     1.0000 0.64750  0.92410  0.14320  Biso   1.000  H
  H286     1.0000 0.85250  0.07590  0.64320  Biso   1.000  H
  H287     1.0000 0.14750  0.57590  0.85680  Biso   1.000  H
  H288     1.0000 0.35250  0.42410  0.35680  Biso   1.000  H
  H289     1.0000 0.28890  0.96620  0.65750  Biso   1.000  H
  H290     1.0000 0.21110  0.03380  0.15750  Biso   1.000  H
  H291     1.0000 0.78890  0.53380  0.34250  Biso   1.000  H
  H292     1.0000 0.71110  0.46620  0.84250  Biso   1.000  H
  H293     1.0000 0.71110  0.03380  0.34250  Biso   1.000  H
  H294     1.0000 0.78890  0.96620  0.84250  Biso   1.000  H
  H295     1.0000 0.21110  0.46620  0.65750  Biso   1.000  H
  H296     1.0000 0.28890  0.53380  0.15750  Biso   1.000  H
  H297     1.0000 0.29700  0.89430  0.61440  Biso   1.000  H
  H298     1.0000 0.20300  0.10570  0.11440  Biso   1.000  H
  H299     1.0000 0.79700  0.60570  0.38560  Biso   1.000  H
  H300     1.0000 0.70300  0.39430  0.88560  Biso   1.000  H
  H301     1.0000 0.70300  0.10570  0.38560  Biso   1.000  H
  H302     1.0000 0.79700  0.89430  0.88560  Biso   1.000  H
  H303     1.0000 0.20300  0.39430  0.61440  Biso   1.000  H
  H304     1.0000 0.29700  0.60570  0.11440  Biso   1.000  H
  O129     1.0000 0.46500  0.07300  0.04300  Biso   1.000  O
  O130     1.0000 0.03500  0.92700  0.54300  Biso   1.000  O
  O131     1.0000 0.96500  0.42700  0.95700  Biso   1.000  O
  O132     1.0000 0.53500  0.57300  0.45700  Biso   1.000  O
  O133     1.0000 0.53500  0.92700  0.95700  Biso   1.000  O
  O134     1.0000 0.96500  0.07300  0.45700  Biso   1.000  O
  O135     1.0000 0.03500  0.57300  0.04300  Biso   1.000  O
  O136     1.0000 0.46500  0.42700  0.54300  Biso   1.000  O
