data_image0
_cell_length_a       40.284
_cell_length_b       40.284
_cell_length_c       17.66
_cell_angle_alpha    90
_cell_angle_beta     90
_cell_angle_gamma    90

_symmetry_space_group_name_H-M    "P 1"
_symmetry_int_tables_number       1

loop_
  _symmetry_equiv_pos_as_xyz
  'x, y, z'

loop_
  _atom_site_label
  _atom_site_occupancy
  _atom_site_fract_x
  _atom_site_fract_y
  _atom_site_fract_z
  _atom_site_thermal_displace_type
  _atom_site_B_iso_or_equiv
  _atom_site_type_symbol
  Cu1      1.0000 0.25000  0.45564  0.85431  Biso   1.000  Cu
  Cu2      1.0000 0.04436  0.25000  0.35431  Biso   1.000  Cu
  Cu3      1.0000 0.25000  0.04436  0.85431  Biso   1.000  Cu
  Cu4      1.0000 0.45564  0.25000  0.35431  Biso   1.000  Cu
  Cu5      1.0000 0.75000  0.54436  0.14569  Biso   1.000  Cu
  Cu6      1.0000 0.95564  0.75000  0.64569  Biso   1.000  Cu
  Cu7      1.0000 0.75000  0.95564  0.14569  Biso   1.000  Cu
  Cu8      1.0000 0.54436  0.75000  0.64569  Biso   1.000  Cu
  Cu9      1.0000 0.25000  0.39123  0.88896  Biso   1.000  Cu
  Cu10     1.0000 0.10877  0.25000  0.38896  Biso   1.000  Cu
  Cu11     1.0000 0.25000  0.10877  0.88896  Biso   1.000  Cu
  Cu12     1.0000 0.39123  0.25000  0.38896  Biso   1.000  Cu
  Cu13     1.0000 0.75000  0.60877  0.11104  Biso   1.000  Cu
  Cu14     1.0000 0.89123  0.75000  0.61104  Biso   1.000  Cu
  Cu15     1.0000 0.75000  0.89123  0.11104  Biso   1.000  Cu
  Cu16     1.0000 0.60877  0.75000  0.61104  Biso   1.000  Cu
  Cu17     1.0000 0.41903  0.75000  0.49339  Biso   1.000  Cu
  Cu18     1.0000 0.75000  0.41903  0.99339  Biso   1.000  Cu
  Cu19     1.0000 0.08097  0.75000  0.49339  Biso   1.000  Cu
  Cu20     1.0000 0.75000  0.08097  0.99339  Biso   1.000  Cu
  Cu21     1.0000 0.91903  0.25000  0.50661  Biso   1.000  Cu
  Cu22     1.0000 0.25000  0.91903  0.00661  Biso   1.000  Cu
  Cu23     1.0000 0.58097  0.25000  0.50661  Biso   1.000  Cu
  Cu24     1.0000 0.25000  0.58097  0.00661  Biso   1.000  Cu
  O1       1.0000 0.34839  0.36606  0.44450  Biso   1.000  O
  O2       1.0000 0.13394  0.34839  0.94450  Biso   1.000  O
  O3       1.0000 0.15161  0.13394  0.44450  Biso   1.000  O
  O4       1.0000 0.36606  0.15161  0.94450  Biso   1.000  O
  O5       1.0000 0.84839  0.63394  0.55550  Biso   1.000  O
  O6       1.0000 0.86606  0.84839  0.05550  Biso   1.000  O
  O7       1.0000 0.65161  0.86606  0.55550  Biso   1.000  O
  O8       1.0000 0.63394  0.65161  0.05550  Biso   1.000  O
  O9       1.0000 0.65161  0.63394  0.55550  Biso   1.000  O
  O10      1.0000 0.86606  0.65161  0.05550  Biso   1.000  O
  O11      1.0000 0.84839  0.86606  0.55550  Biso   1.000  O
  O12      1.0000 0.63394  0.84839  0.05550  Biso   1.000  O
  O13      1.0000 0.15161  0.36606  0.44450  Biso   1.000  O
  O14      1.0000 0.13394  0.15161  0.94450  Biso   1.000  O
  O15      1.0000 0.34839  0.13394  0.44450  Biso   1.000  O
  O16      1.0000 0.36606  0.34839  0.94450  Biso   1.000  O
  O17      1.0000 0.37926  0.52341  0.19360  Biso   1.000  O
  O18      1.0000 0.97659  0.37926  0.69360  Biso   1.000  O
  O19      1.0000 0.12074  0.97659  0.19360  Biso   1.000  O
  O20      1.0000 0.52341  0.12074  0.69360  Biso   1.000  O
  O21      1.0000 0.87926  0.47659  0.80640  Biso   1.000  O
  O22      1.0000 0.02341  0.87926  0.30640  Biso   1.000  O
  O23      1.0000 0.62074  0.02341  0.80640  Biso   1.000  O
  O24      1.0000 0.47659  0.62074  0.30640  Biso   1.000  O
  O25      1.0000 0.62074  0.47659  0.80640  Biso   1.000  O
  O26      1.0000 0.02341  0.62074  0.30640  Biso   1.000  O
  O27      1.0000 0.87926  0.02341  0.80640  Biso   1.000  O
  O28      1.0000 0.47659  0.87926  0.30640  Biso   1.000  O
  O29      1.0000 0.12074  0.52341  0.19360  Biso   1.000  O
  O30      1.0000 0.97659  0.12074  0.69360  Biso   1.000  O
  O31      1.0000 0.37926  0.97659  0.19360  Biso   1.000  O
  O32      1.0000 0.52341  0.37926  0.69360  Biso   1.000  O
  O33      1.0000 0.43456  0.53633  0.64248  Biso   1.000  O
  O34      1.0000 0.96367  0.43456  0.14248  Biso   1.000  O
  O35      1.0000 0.06544  0.96367  0.64248  Biso   1.000  O
  O36      1.0000 0.53633  0.06544  0.14248  Biso   1.000  O
  O37      1.0000 0.93456  0.46367  0.35752  Biso   1.000  O
  O38      1.0000 0.03633  0.93456  0.85752  Biso   1.000  O
  O39      1.0000 0.56544  0.03633  0.35752  Biso   1.000  O
  O40      1.0000 0.46367  0.56544  0.85752  Biso   1.000  O
  O41      1.0000 0.56544  0.46367  0.35752  Biso   1.000  O
  O42      1.0000 0.03633  0.56544  0.85752  Biso   1.000  O
  O43      1.0000 0.93456  0.03633  0.35752  Biso   1.000  O
  O44      1.0000 0.46367  0.93456  0.85752  Biso   1.000  O
  O45      1.0000 0.06544  0.53633  0.64248  Biso   1.000  O
  O46      1.0000 0.96367  0.06544  0.14248  Biso   1.000  O
  O47      1.0000 0.43456  0.96367  0.64248  Biso   1.000  O
  O48      1.0000 0.53633  0.43456  0.14248  Biso   1.000  O
  O49      1.0000 0.28333  0.44327  0.78180  Biso   1.000  O
  O50      1.0000 0.05673  0.28333  0.28180  Biso   1.000  O
  O51      1.0000 0.21667  0.05673  0.78180  Biso   1.000  O
  O52      1.0000 0.44327  0.21667  0.28180  Biso   1.000  O
  O53      1.0000 0.78333  0.55673  0.21820  Biso   1.000  O
  O54      1.0000 0.94327  0.78333  0.71820  Biso   1.000  O
  O55      1.0000 0.71667  0.94327  0.21820  Biso   1.000  O
  O56      1.0000 0.55673  0.71667  0.71820  Biso   1.000  O
  O57      1.0000 0.71667  0.55673  0.21820  Biso   1.000  O
  O58      1.0000 0.94327  0.71667  0.71820  Biso   1.000  O
  O59      1.0000 0.78333  0.94327  0.21820  Biso   1.000  O
  O60      1.0000 0.55673  0.78333  0.71820  Biso   1.000  O
  O61      1.0000 0.21667  0.44327  0.78180  Biso   1.000  O
  O62      1.0000 0.05673  0.21667  0.28180  Biso   1.000  O
  O63      1.0000 0.28333  0.05673  0.78180  Biso   1.000  O
  O64      1.0000 0.44327  0.28333  0.28180  Biso   1.000  O
  O65      1.0000 0.28398  0.38857  0.80801  Biso   1.000  O
  O66      1.0000 0.11143  0.28398  0.30801  Biso   1.000  O
  O67      1.0000 0.21602  0.11143  0.80801  Biso   1.000  O
  O68      1.0000 0.38857  0.21602  0.30801  Biso   1.000  O
  O69      1.0000 0.78398  0.61143  0.19199  Biso   1.000  O
  O70      1.0000 0.88857  0.78398  0.69199  Biso   1.000  O
  O71      1.0000 0.71602  0.88857  0.19199  Biso   1.000  O
  O72      1.0000 0.61143  0.71602  0.69199  Biso   1.000  O
  O73      1.0000 0.71602  0.61143  0.19199  Biso   1.000  O
  O74      1.0000 0.88857  0.71602  0.69199  Biso   1.000  O
  O75      1.0000 0.78398  0.88857  0.19199  Biso   1.000  O
  O76      1.0000 0.61143  0.78398  0.69199  Biso   1.000  O
  O77      1.0000 0.21602  0.38857  0.80801  Biso   1.000  O
  O78      1.0000 0.11143  0.21602  0.30801  Biso   1.000  O
  O79      1.0000 0.28398  0.11143  0.80801  Biso   1.000  O
  O80      1.0000 0.38857  0.28398  0.30801  Biso   1.000  O
  O81      1.0000 0.28399  0.40409  0.96353  Biso   1.000  O
  O82      1.0000 0.09591  0.28399  0.46353  Biso   1.000  O
  O83      1.0000 0.21601  0.09591  0.96353  Biso   1.000  O
  O84      1.0000 0.40409  0.21601  0.46353  Biso   1.000  O
  O85      1.0000 0.78399  0.59591  0.03647  Biso   1.000  O
  O86      1.0000 0.90409  0.78399  0.53647  Biso   1.000  O
  O87      1.0000 0.71601  0.90409  0.03647  Biso   1.000  O
  O88      1.0000 0.59591  0.71601  0.53647  Biso   1.000  O
  O89      1.0000 0.71601  0.59591  0.03647  Biso   1.000  O
  O90      1.0000 0.90409  0.71601  0.53647  Biso   1.000  O
  O91      1.0000 0.78399  0.90409  0.03647  Biso   1.000  O
  O92      1.0000 0.59591  0.78399  0.53647  Biso   1.000  O
  O93      1.0000 0.21601  0.40409  0.96353  Biso   1.000  O
  O94      1.0000 0.09591  0.21601  0.46353  Biso   1.000  O
  O95      1.0000 0.28399  0.09591  0.96353  Biso   1.000  O
  O96      1.0000 0.40409  0.28399  0.46353  Biso   1.000  O
  O97      1.0000 0.28434  0.45763  0.93070  Biso   1.000  O
  O98      1.0000 0.04237  0.28434  0.43070  Biso   1.000  O
  O99      1.0000 0.21566  0.04237  0.93070  Biso   1.000  O
  O100     1.0000 0.45763  0.21566  0.43070  Biso   1.000  O
  O101     1.0000 0.78434  0.54237  0.06930  Biso   1.000  O
  O102     1.0000 0.95763  0.78434  0.56930  Biso   1.000  O
  O103     1.0000 0.71566  0.95763  0.06930  Biso   1.000  O
  O104     1.0000 0.54237  0.71566  0.56930  Biso   1.000  O
  O105     1.0000 0.71566  0.54237  0.06930  Biso   1.000  O
  O106     1.0000 0.95763  0.71566  0.56930  Biso   1.000  O
  O107     1.0000 0.78434  0.95763  0.06930  Biso   1.000  O
  O108     1.0000 0.54237  0.78434  0.56930  Biso   1.000  O
  O109     1.0000 0.21566  0.45763  0.93070  Biso   1.000  O
  O110     1.0000 0.04237  0.21566  0.43070  Biso   1.000  O
  O111     1.0000 0.28434  0.04237  0.93070  Biso   1.000  O
  O112     1.0000 0.45763  0.28434  0.43070  Biso   1.000  O
  O113     1.0000 0.41797  0.70261  0.49200  Biso   1.000  O
  O114     1.0000 0.79739  0.41797  0.99200  Biso   1.000  O
  O115     1.0000 0.08203  0.79739  0.49200  Biso   1.000  O
  O116     1.0000 0.70261  0.08203  0.99200  Biso   1.000  O
  O117     1.0000 0.91797  0.29739  0.50800  Biso   1.000  O
  O118     1.0000 0.20261  0.91797  0.00800  Biso   1.000  O
  O119     1.0000 0.58203  0.20261  0.50800  Biso   1.000  O
  O120     1.0000 0.29739  0.58203  0.00800  Biso   1.000  O
  O121     1.0000 0.58203  0.29739  0.50800  Biso   1.000  O
  O122     1.0000 0.20261  0.58203  0.00800  Biso   1.000  O
  O123     1.0000 0.91797  0.20261  0.50800  Biso   1.000  O
  O124     1.0000 0.29739  0.91797  0.00800  Biso   1.000  O
  O125     1.0000 0.08203  0.70261  0.49200  Biso   1.000  O
  O126     1.0000 0.79739  0.08203  0.99200  Biso   1.000  O
  O127     1.0000 0.41797  0.79739  0.49200  Biso   1.000  O
  O128     1.0000 0.70261  0.41797  0.99200  Biso   1.000  O
  O129     1.0000 0.45141  0.70147  0.59370  Biso   1.000  O
  O130     1.0000 0.79853  0.45141  0.09370  Biso   1.000  O
  O131     1.0000 0.04859  0.79853  0.59370  Biso   1.000  O
  O132     1.0000 0.70147  0.04859  0.09370  Biso   1.000  O
  O133     1.0000 0.95141  0.29853  0.40630  Biso   1.000  O
  O134     1.0000 0.20147  0.95141  0.90630  Biso   1.000  O
  O135     1.0000 0.54859  0.20147  0.40630  Biso   1.000  O
  O136     1.0000 0.29853  0.54859  0.90630  Biso   1.000  O
  O137     1.0000 0.54859  0.29853  0.40630  Biso   1.000  O
  O138     1.0000 0.20147  0.54859  0.90630  Biso   1.000  O
  O139     1.0000 0.95141  0.20147  0.40630  Biso   1.000  O
  O140     1.0000 0.29853  0.95141  0.90630  Biso   1.000  O
  O141     1.0000 0.04859  0.70147  0.59370  Biso   1.000  O
  O142     1.0000 0.79853  0.04859  0.09370  Biso   1.000  O
  O143     1.0000 0.45141  0.79853  0.59370  Biso   1.000  O
  O144     1.0000 0.70147  0.45141  0.09370  Biso   1.000  O
  O145     1.0000 0.25000  0.50865  0.84090  Biso   1.000  O
  O146     1.0000 0.99135  0.25000  0.34090  Biso   1.000  O
  O147     1.0000 0.25000  0.99135  0.84090  Biso   1.000  O
  O148     1.0000 0.50865  0.25000  0.34090  Biso   1.000  O
  O149     1.0000 0.75000  0.49135  0.15910  Biso   1.000  O
  O150     1.0000 0.00865  0.75000  0.65910  Biso   1.000  O
  O151     1.0000 0.75000  0.00865  0.15910  Biso   1.000  O
  O152     1.0000 0.49135  0.75000  0.65910  Biso   1.000  O
  H1       1.0000 0.26810  0.52120  0.84230  Biso   1.000  H
  H2       1.0000 0.97880  0.26810  0.34230  Biso   1.000  H
  H3       1.0000 0.23190  0.97880  0.84230  Biso   1.000  H
  H4       1.0000 0.52120  0.23190  0.34230  Biso   1.000  H
  H5       1.0000 0.76810  0.47880  0.15770  Biso   1.000  H
  H6       1.0000 0.02120  0.76810  0.65770  Biso   1.000  H
  H7       1.0000 0.73190  0.02120  0.15770  Biso   1.000  H
  H8       1.0000 0.47880  0.73190  0.65770  Biso   1.000  H
  H9       1.0000 0.73190  0.47880  0.15770  Biso   1.000  H
  H10      1.0000 0.02120  0.73190  0.65770  Biso   1.000  H
  H11      1.0000 0.76810  0.02120  0.15770  Biso   1.000  H
  H12      1.0000 0.47880  0.76810  0.65770  Biso   1.000  H
  H13      1.0000 0.23190  0.52120  0.84230  Biso   1.000  H
  H14      1.0000 0.97880  0.23190  0.34230  Biso   1.000  H
  H15      1.0000 0.26810  0.97880  0.84230  Biso   1.000  H
  H16      1.0000 0.52120  0.26810  0.34230  Biso   1.000  H
  C1       1.0000 0.29292  0.41384  0.77210  Biso   1.000  C
  C2       1.0000 0.08616  0.29292  0.27210  Biso   1.000  C
  C3       1.0000 0.20708  0.08616  0.77210  Biso   1.000  C
  C4       1.0000 0.41384  0.20708  0.27210  Biso   1.000  C
  C5       1.0000 0.79292  0.58616  0.22790  Biso   1.000  C
  C6       1.0000 0.91384  0.79292  0.72790  Biso   1.000  C
  C7       1.0000 0.70708  0.91384  0.22790  Biso   1.000  C
  C8       1.0000 0.58616  0.70708  0.72790  Biso   1.000  C
  C9       1.0000 0.70708  0.58616  0.22790  Biso   1.000  C
  C10      1.0000 0.91384  0.70708  0.72790  Biso   1.000  C
  C11      1.0000 0.79292  0.91384  0.22790  Biso   1.000  C
  C12      1.0000 0.58616  0.79292  0.72790  Biso   1.000  C
  C13      1.0000 0.20708  0.41384  0.77210  Biso   1.000  C
  C14      1.0000 0.08616  0.20708  0.27210  Biso   1.000  C
  C15      1.0000 0.29292  0.08616  0.77210  Biso   1.000  C
  C16      1.0000 0.41384  0.29292  0.27210  Biso   1.000  C
  C17      1.0000 0.31837  0.40860  0.70910  Biso   1.000  C
  C18      1.0000 0.09140  0.31837  0.20910  Biso   1.000  C
  C19      1.0000 0.18163  0.09140  0.70910  Biso   1.000  C
  C20      1.0000 0.40860  0.18163  0.20910  Biso   1.000  C
  C21      1.0000 0.81837  0.59140  0.29090  Biso   1.000  C
  C22      1.0000 0.90860  0.81837  0.79090  Biso   1.000  C
  C23      1.0000 0.68163  0.90860  0.29090  Biso   1.000  C
  C24      1.0000 0.59140  0.68163  0.79090  Biso   1.000  C
  C25      1.0000 0.68163  0.59140  0.29090  Biso   1.000  C
  C26      1.0000 0.90860  0.68163  0.79090  Biso   1.000  C
  C27      1.0000 0.81837  0.90860  0.29090  Biso   1.000  C
  C28      1.0000 0.59140  0.81837  0.79090  Biso   1.000  C
  C29      1.0000 0.18163  0.40860  0.70910  Biso   1.000  C
  C30      1.0000 0.09140  0.18163  0.20910  Biso   1.000  C
  C31      1.0000 0.31837  0.09140  0.70910  Biso   1.000  C
  C32      1.0000 0.40860  0.31837  0.20910  Biso   1.000  C
  C33      1.0000 0.33391  0.43600  0.67940  Biso   1.000  C
  C34      1.0000 0.06400  0.33391  0.17940  Biso   1.000  C
  C35      1.0000 0.16609  0.06400  0.67940  Biso   1.000  C
  C36      1.0000 0.43600  0.16609  0.17940  Biso   1.000  C
  C37      1.0000 0.83391  0.56400  0.32060  Biso   1.000  C
  C38      1.0000 0.93600  0.83391  0.82060  Biso   1.000  C
  C39      1.0000 0.66609  0.93600  0.32060  Biso   1.000  C
  C40      1.0000 0.56400  0.66609  0.82060  Biso   1.000  C
  C41      1.0000 0.66609  0.56400  0.32060  Biso   1.000  C
  C42      1.0000 0.93600  0.66609  0.82060  Biso   1.000  C
  C43      1.0000 0.83391  0.93600  0.32060  Biso   1.000  C
  C44      1.0000 0.56400  0.83391  0.82060  Biso   1.000  C
  C45      1.0000 0.16609  0.43600  0.67940  Biso   1.000  C
  C46      1.0000 0.06400  0.16609  0.17940  Biso   1.000  C
  C47      1.0000 0.33391  0.06400  0.67940  Biso   1.000  C
  C48      1.0000 0.43600  0.33391  0.17940  Biso   1.000  C
  H17      1.0000 0.33020  0.45740  0.70030  Biso   1.000  H
  H18      1.0000 0.04260  0.33020  0.20030  Biso   1.000  H
  H19      1.0000 0.16980  0.04260  0.70030  Biso   1.000  H
  H20      1.0000 0.45740  0.16980  0.20030  Biso   1.000  H
  H21      1.0000 0.83020  0.54260  0.29970  Biso   1.000  H
  H22      1.0000 0.95740  0.83020  0.79970  Biso   1.000  H
  H23      1.0000 0.66980  0.95740  0.29970  Biso   1.000  H
  H24      1.0000 0.54260  0.66980  0.79970  Biso   1.000  H
  H25      1.0000 0.66980  0.54260  0.29970  Biso   1.000  H
  H26      1.0000 0.95740  0.66980  0.79970  Biso   1.000  H
  H27      1.0000 0.83020  0.95740  0.29970  Biso   1.000  H
  H28      1.0000 0.54260  0.83020  0.79970  Biso   1.000  H
  H29      1.0000 0.16980  0.45740  0.70030  Biso   1.000  H
  H30      1.0000 0.04260  0.16980  0.20030  Biso   1.000  H
  H31      1.0000 0.33020  0.04260  0.70030  Biso   1.000  H
  H32      1.0000 0.45740  0.33020  0.20030  Biso   1.000  H
  C49      1.0000 0.35517  0.43184  0.61810  Biso   1.000  C
  C50      1.0000 0.06816  0.35517  0.11810  Biso   1.000  C
  C51      1.0000 0.14483  0.06816  0.61810  Biso   1.000  C
  C52      1.0000 0.43184  0.14483  0.11810  Biso   1.000  C
  C53      1.0000 0.85517  0.56816  0.38190  Biso   1.000  C
  C54      1.0000 0.93184  0.85517  0.88190  Biso   1.000  C
  C55      1.0000 0.64483  0.93184  0.38190  Biso   1.000  C
  C56      1.0000 0.56816  0.64483  0.88190  Biso   1.000  C
  C57      1.0000 0.64483  0.56816  0.38190  Biso   1.000  C
  C58      1.0000 0.93184  0.64483  0.88190  Biso   1.000  C
  C59      1.0000 0.85517  0.93184  0.38190  Biso   1.000  C
  C60      1.0000 0.56816  0.85517  0.88190  Biso   1.000  C
  C61      1.0000 0.14483  0.43184  0.61810  Biso   1.000  C
  C62      1.0000 0.06816  0.14483  0.11810  Biso   1.000  C
  C63      1.0000 0.35517  0.06816  0.61810  Biso   1.000  C
  C64      1.0000 0.43184  0.35517  0.11810  Biso   1.000  C
  H33      1.0000 0.36630  0.45070  0.59800  Biso   1.000  H
  H34      1.0000 0.04930  0.36630  0.09800  Biso   1.000  H
  H35      1.0000 0.13370  0.04930  0.59800  Biso   1.000  H
  H36      1.0000 0.45070  0.13370  0.09800  Biso   1.000  H
  H37      1.0000 0.86630  0.54930  0.40200  Biso   1.000  H
  H38      1.0000 0.95070  0.86630  0.90200  Biso   1.000  H
  H39      1.0000 0.63370  0.95070  0.40200  Biso   1.000  H
  H40      1.0000 0.54930  0.63370  0.90200  Biso   1.000  H
  H41      1.0000 0.63370  0.54930  0.40200  Biso   1.000  H
  H42      1.0000 0.95070  0.63370  0.90200  Biso   1.000  H
  H43      1.0000 0.86630  0.95070  0.40200  Biso   1.000  H
  H44      1.0000 0.54930  0.86630  0.90200  Biso   1.000  H
  H45      1.0000 0.13370  0.45070  0.59800  Biso   1.000  H
  H46      1.0000 0.04930  0.13370  0.09800  Biso   1.000  H
  H47      1.0000 0.36630  0.04930  0.59800  Biso   1.000  H
  H48      1.0000 0.45070  0.36630  0.09800  Biso   1.000  H
  C65      1.0000 0.36064  0.40106  0.58550  Biso   1.000  C
  C66      1.0000 0.09894  0.36064  0.08550  Biso   1.000  C
  C67      1.0000 0.13936  0.09894  0.58550  Biso   1.000  C
  C68      1.0000 0.40106  0.13936  0.08550  Biso   1.000  C
  C69      1.0000 0.86064  0.59894  0.41450  Biso   1.000  C
  C70      1.0000 0.90106  0.86064  0.91450  Biso   1.000  C
  C71      1.0000 0.63936  0.90106  0.41450  Biso   1.000  C
  C72      1.0000 0.59894  0.63936  0.91450  Biso   1.000  C
  C73      1.0000 0.63936  0.59894  0.41450  Biso   1.000  C
  C74      1.0000 0.90106  0.63936  0.91450  Biso   1.000  C
  C75      1.0000 0.86064  0.90106  0.41450  Biso   1.000  C
  C76      1.0000 0.59894  0.86064  0.91450  Biso   1.000  C
  C77      1.0000 0.13936  0.40106  0.58550  Biso   1.000  C
  C78      1.0000 0.09894  0.13936  0.08550  Biso   1.000  C
  C79      1.0000 0.36064  0.09894  0.58550  Biso   1.000  C
  C80      1.0000 0.40106  0.36064  0.08550  Biso   1.000  C
  C81      1.0000 0.34484  0.37374  0.61480  Biso   1.000  C
  C82      1.0000 0.12626  0.34484  0.11480  Biso   1.000  C
  C83      1.0000 0.15516  0.12626  0.61480  Biso   1.000  C
  C84      1.0000 0.37374  0.15516  0.11480  Biso   1.000  C
  C85      1.0000 0.84484  0.62626  0.38520  Biso   1.000  C
  C86      1.0000 0.87374  0.84484  0.88520  Biso   1.000  C
  C87      1.0000 0.65516  0.87374  0.38520  Biso   1.000  C
  C88      1.0000 0.62626  0.65516  0.88520  Biso   1.000  C
  C89      1.0000 0.65516  0.62626  0.38520  Biso   1.000  C
  C90      1.0000 0.87374  0.65516  0.88520  Biso   1.000  C
  C91      1.0000 0.84484  0.87374  0.38520  Biso   1.000  C
  C92      1.0000 0.62626  0.84484  0.88520  Biso   1.000  C
  C93      1.0000 0.15516  0.37374  0.61480  Biso   1.000  C
  C94      1.0000 0.12626  0.15516  0.11480  Biso   1.000  C
  C95      1.0000 0.34484  0.12626  0.61480  Biso   1.000  C
  C96      1.0000 0.37374  0.34484  0.11480  Biso   1.000  C
  H49      1.0000 0.34820  0.35260  0.59240  Biso   1.000  H
  H50      1.0000 0.14740  0.34820  0.09240  Biso   1.000  H
  H51      1.0000 0.15180  0.14740  0.59240  Biso   1.000  H
  H52      1.0000 0.35260  0.15180  0.09240  Biso   1.000  H
  H53      1.0000 0.84820  0.64740  0.40760  Biso   1.000  H
  H54      1.0000 0.85260  0.84820  0.90760  Biso   1.000  H
  H55      1.0000 0.65180  0.85260  0.40760  Biso   1.000  H
  H56      1.0000 0.64740  0.65180  0.90760  Biso   1.000  H
  H57      1.0000 0.65180  0.64740  0.40760  Biso   1.000  H
  H58      1.0000 0.85260  0.65180  0.90760  Biso   1.000  H
  H59      1.0000 0.84820  0.85260  0.40760  Biso   1.000  H
  H60      1.0000 0.64740  0.84820  0.90760  Biso   1.000  H
  H61      1.0000 0.15180  0.35260  0.59240  Biso   1.000  H
  H62      1.0000 0.14740  0.15180  0.09240  Biso   1.000  H
  H63      1.0000 0.34820  0.14740  0.59240  Biso   1.000  H
  H64      1.0000 0.35260  0.34820  0.09240  Biso   1.000  H
  C97      1.0000 0.32348  0.37701  0.67880  Biso   1.000  C
  C98      1.0000 0.12299  0.32348  0.17880  Biso   1.000  C
  C99      1.0000 0.17652  0.12299  0.67880  Biso   1.000  C
  C100     1.0000 0.37701  0.17652  0.17880  Biso   1.000  C
  C101     1.0000 0.82348  0.62299  0.32120  Biso   1.000  C
  C102     1.0000 0.87701  0.82348  0.82120  Biso   1.000  C
  C103     1.0000 0.67652  0.87701  0.32120  Biso   1.000  C
  C104     1.0000 0.62299  0.67652  0.82120  Biso   1.000  C
  C105     1.0000 0.67652  0.62299  0.32120  Biso   1.000  C
  C106     1.0000 0.87701  0.67652  0.82120  Biso   1.000  C
  C107     1.0000 0.82348  0.87701  0.32120  Biso   1.000  C
  C108     1.0000 0.62299  0.82348  0.82120  Biso   1.000  C
  C109     1.0000 0.17652  0.37701  0.67880  Biso   1.000  C
  C110     1.0000 0.12299  0.17652  0.17880  Biso   1.000  C
  C111     1.0000 0.32348  0.12299  0.67880  Biso   1.000  C
  C112     1.0000 0.37701  0.32348  0.17880  Biso   1.000  C
  H65      1.0000 0.31300  0.35810  0.70030  Biso   1.000  H
  H66      1.0000 0.14190  0.31300  0.20030  Biso   1.000  H
  H67      1.0000 0.18700  0.14190  0.70030  Biso   1.000  H
  H68      1.0000 0.35810  0.18700  0.20030  Biso   1.000  H
  H69      1.0000 0.81300  0.64190  0.29970  Biso   1.000  H
  H70      1.0000 0.85810  0.81300  0.79970  Biso   1.000  H
  H71      1.0000 0.68700  0.85810  0.29970  Biso   1.000  H
  H72      1.0000 0.64190  0.68700  0.79970  Biso   1.000  H
  H73      1.0000 0.68700  0.64190  0.29970  Biso   1.000  H
  H74      1.0000 0.85810  0.68700  0.79970  Biso   1.000  H
  H75      1.0000 0.81300  0.85810  0.29970  Biso   1.000  H
  H76      1.0000 0.64190  0.81300  0.79970  Biso   1.000  H
  H77      1.0000 0.18700  0.35810  0.70030  Biso   1.000  H
  H78      1.0000 0.14190  0.18700  0.20030  Biso   1.000  H
  H79      1.0000 0.31300  0.14190  0.70030  Biso   1.000  H
  H80      1.0000 0.35810  0.31300  0.20030  Biso   1.000  H
  C113     1.0000 0.38388  0.39891  0.51950  Biso   1.000  C
  C114     1.0000 0.10109  0.38388  0.01950  Biso   1.000  C
  C115     1.0000 0.11612  0.10109  0.51950  Biso   1.000  C
  C116     1.0000 0.39891  0.11612  0.01950  Biso   1.000  C
  C117     1.0000 0.88388  0.60109  0.48050  Biso   1.000  C
  C118     1.0000 0.89891  0.88388  0.98050  Biso   1.000  C
  C119     1.0000 0.61612  0.89891  0.48050  Biso   1.000  C
  C120     1.0000 0.60109  0.61612  0.98050  Biso   1.000  C
  C121     1.0000 0.61612  0.60109  0.48050  Biso   1.000  C
  C122     1.0000 0.89891  0.61612  0.98050  Biso   1.000  C
  C123     1.0000 0.88388  0.89891  0.48050  Biso   1.000  C
  C124     1.0000 0.60109  0.88388  0.98050  Biso   1.000  C
  C125     1.0000 0.11612  0.39891  0.51950  Biso   1.000  C
  C126     1.0000 0.10109  0.11612  0.01950  Biso   1.000  C
  C127     1.0000 0.38388  0.10109  0.51950  Biso   1.000  C
  C128     1.0000 0.39891  0.38388  0.01950  Biso   1.000  C
  C129     1.0000 0.41331  0.41631  0.52600  Biso   1.000  C
  C130     1.0000 0.08369  0.41331  0.02600  Biso   1.000  C
  C131     1.0000 0.08669  0.08369  0.52600  Biso   1.000  C
  C132     1.0000 0.41631  0.08669  0.02600  Biso   1.000  C
  C133     1.0000 0.91331  0.58369  0.47400  Biso   1.000  C
  C134     1.0000 0.91631  0.91331  0.97400  Biso   1.000  C
  C135     1.0000 0.58669  0.91631  0.47400  Biso   1.000  C
  C136     1.0000 0.58369  0.58669  0.97400  Biso   1.000  C
  C137     1.0000 0.58669  0.58369  0.47400  Biso   1.000  C
  C138     1.0000 0.91631  0.58669  0.97400  Biso   1.000  C
  C139     1.0000 0.91331  0.91631  0.47400  Biso   1.000  C
  C140     1.0000 0.58369  0.91331  0.97400  Biso   1.000  C
  C141     1.0000 0.08669  0.41631  0.52600  Biso   1.000  C
  C142     1.0000 0.08369  0.08669  0.02600  Biso   1.000  C
  C143     1.0000 0.41331  0.08369  0.52600  Biso   1.000  C
  C144     1.0000 0.41631  0.41331  0.02600  Biso   1.000  C
  H81      1.0000 0.41840  0.42590  0.57380  Biso   1.000  H
  H82      1.0000 0.07410  0.41840  0.07380  Biso   1.000  H
  H83      1.0000 0.08160  0.07410  0.57380  Biso   1.000  H
  H84      1.0000 0.42590  0.08160  0.07380  Biso   1.000  H
  H85      1.0000 0.91840  0.57410  0.42620  Biso   1.000  H
  H86      1.0000 0.92590  0.91840  0.92620  Biso   1.000  H
  H87      1.0000 0.58160  0.92590  0.42620  Biso   1.000  H
  H88      1.0000 0.57410  0.58160  0.92620  Biso   1.000  H
  H89      1.0000 0.58160  0.57410  0.42620  Biso   1.000  H
  H90      1.0000 0.92590  0.58160  0.92620  Biso   1.000  H
  H91      1.0000 0.91840  0.92590  0.42620  Biso   1.000  H
  H92      1.0000 0.57410  0.91840  0.92620  Biso   1.000  H
  H93      1.0000 0.08160  0.42590  0.57380  Biso   1.000  H
  H94      1.0000 0.07410  0.08160  0.07380  Biso   1.000  H
  H95      1.0000 0.41840  0.07410  0.57380  Biso   1.000  H
  H96      1.0000 0.42590  0.41840  0.07380  Biso   1.000  H
  C145     1.0000 0.43600  0.42084  0.46740  Biso   1.000  C
  C146     1.0000 0.07916  0.43600  0.96740  Biso   1.000  C
  C147     1.0000 0.06400  0.07916  0.46740  Biso   1.000  C
  C148     1.0000 0.42084  0.06400  0.96740  Biso   1.000  C
  C149     1.0000 0.93600  0.57916  0.53260  Biso   1.000  C
  C150     1.0000 0.92084  0.93600  0.03260  Biso   1.000  C
  C151     1.0000 0.56400  0.92084  0.53260  Biso   1.000  C
  C152     1.0000 0.57916  0.56400  0.03260  Biso   1.000  C
  C153     1.0000 0.56400  0.57916  0.53260  Biso   1.000  C
  C154     1.0000 0.92084  0.56400  0.03260  Biso   1.000  C
  C155     1.0000 0.93600  0.92084  0.53260  Biso   1.000  C
  C156     1.0000 0.57916  0.93600  0.03260  Biso   1.000  C
  C157     1.0000 0.06400  0.42084  0.46740  Biso   1.000  C
  C158     1.0000 0.07916  0.06400  0.96740  Biso   1.000  C
  C159     1.0000 0.43600  0.07916  0.46740  Biso   1.000  C
  C160     1.0000 0.42084  0.43600  0.96740  Biso   1.000  C
  C161     1.0000 0.42791  0.40712  0.39680  Biso   1.000  C
  C162     1.0000 0.09288  0.42791  0.89680  Biso   1.000  C
  C163     1.0000 0.07209  0.09288  0.39680  Biso   1.000  C
  C164     1.0000 0.40712  0.07209  0.89680  Biso   1.000  C
  C165     1.0000 0.92791  0.59288  0.60320  Biso   1.000  C
  C166     1.0000 0.90712  0.92791  0.10320  Biso   1.000  C
  C167     1.0000 0.57209  0.90712  0.60320  Biso   1.000  C
  C168     1.0000 0.59288  0.57209  0.10320  Biso   1.000  C
  C169     1.0000 0.57209  0.59288  0.60320  Biso   1.000  C
  C170     1.0000 0.90712  0.57209  0.10320  Biso   1.000  C
  C171     1.0000 0.92791  0.90712  0.60320  Biso   1.000  C
  C172     1.0000 0.59288  0.92791  0.10320  Biso   1.000  C
  C173     1.0000 0.07209  0.40712  0.39680  Biso   1.000  C
  C174     1.0000 0.09288  0.07209  0.89680  Biso   1.000  C
  C175     1.0000 0.42791  0.09288  0.39680  Biso   1.000  C
  C176     1.0000 0.40712  0.42791  0.89680  Biso   1.000  C
  C177     1.0000 0.39912  0.38813  0.38930  Biso   1.000  C
  C178     1.0000 0.11187  0.39912  0.88930  Biso   1.000  C
  C179     1.0000 0.10088  0.11187  0.38930  Biso   1.000  C
  C180     1.0000 0.38813  0.10088  0.88930  Biso   1.000  C
  C181     1.0000 0.89912  0.61187  0.61070  Biso   1.000  C
  C182     1.0000 0.88813  0.89912  0.11070  Biso   1.000  C
  C183     1.0000 0.60088  0.88813  0.61070  Biso   1.000  C
  C184     1.0000 0.61187  0.60088  0.11070  Biso   1.000  C
  C185     1.0000 0.60088  0.61187  0.61070  Biso   1.000  C
  C186     1.0000 0.88813  0.60088  0.11070  Biso   1.000  C
  C187     1.0000 0.89912  0.88813  0.61070  Biso   1.000  C
  C188     1.0000 0.61187  0.89912  0.11070  Biso   1.000  C
  C189     1.0000 0.10088  0.38813  0.38930  Biso   1.000  C
  C190     1.0000 0.11187  0.10088  0.88930  Biso   1.000  C
  C191     1.0000 0.39912  0.11187  0.38930  Biso   1.000  C
  C192     1.0000 0.38813  0.39912  0.88930  Biso   1.000  C
  H97      1.0000 0.39430  0.37790  0.34210  Biso   1.000  H
  H98      1.0000 0.12210  0.39430  0.84210  Biso   1.000  H
  H99      1.0000 0.10570  0.12210  0.34210  Biso   1.000  H
  H100     1.0000 0.37790  0.10570  0.84210  Biso   1.000  H
  H101     1.0000 0.89430  0.62210  0.65790  Biso   1.000  H
  H102     1.0000 0.87790  0.89430  0.15790  Biso   1.000  H
  H103     1.0000 0.60570  0.87790  0.65790  Biso   1.000  H
  H104     1.0000 0.62210  0.60570  0.15790  Biso   1.000  H
  H105     1.0000 0.60570  0.62210  0.65790  Biso   1.000  H
  H106     1.0000 0.87790  0.60570  0.15790  Biso   1.000  H
  H107     1.0000 0.89430  0.87790  0.65790  Biso   1.000  H
  H108     1.0000 0.62210  0.89430  0.15790  Biso   1.000  H
  H109     1.0000 0.10570  0.37790  0.34210  Biso   1.000  H
  H110     1.0000 0.12210  0.10570  0.84210  Biso   1.000  H
  H111     1.0000 0.39430  0.12210  0.34210  Biso   1.000  H
  H112     1.0000 0.37790  0.39430  0.84210  Biso   1.000  H
  C193     1.0000 0.37741  0.38399  0.44970  Biso   1.000  C
  C194     1.0000 0.11601  0.37741  0.94970  Biso   1.000  C
  C195     1.0000 0.12259  0.11601  0.44970  Biso   1.000  C
  C196     1.0000 0.38399  0.12259  0.94970  Biso   1.000  C
  C197     1.0000 0.87741  0.61601  0.55030  Biso   1.000  C
  C198     1.0000 0.88399  0.87741  0.05030  Biso   1.000  C
  C199     1.0000 0.62259  0.88399  0.55030  Biso   1.000  C
  C200     1.0000 0.61601  0.62259  0.05030  Biso   1.000  C
  C201     1.0000 0.62259  0.61601  0.55030  Biso   1.000  C
  C202     1.0000 0.88399  0.62259  0.05030  Biso   1.000  C
  C203     1.0000 0.87741  0.88399  0.55030  Biso   1.000  C
  C204     1.0000 0.61601  0.87741  0.05030  Biso   1.000  C
  C205     1.0000 0.12259  0.38399  0.44970  Biso   1.000  C
  C206     1.0000 0.11601  0.12259  0.94970  Biso   1.000  C
  C207     1.0000 0.37741  0.11601  0.44970  Biso   1.000  C
  C208     1.0000 0.38399  0.37741  0.94970  Biso   1.000  C
  C209     1.0000 0.34177  0.34920  0.37520  Biso   1.000  C
  C210     1.0000 0.15080  0.34177  0.87520  Biso   1.000  C
  C211     1.0000 0.15823  0.15080  0.37520  Biso   1.000  C
  C212     1.0000 0.34920  0.15823  0.87520  Biso   1.000  C
  C213     1.0000 0.84177  0.65080  0.62480  Biso   1.000  C
  C214     1.0000 0.84920  0.84177  0.12480  Biso   1.000  C
  C215     1.0000 0.65823  0.84920  0.62480  Biso   1.000  C
  C216     1.0000 0.65080  0.65823  0.12480  Biso   1.000  C
  C217     1.0000 0.65823  0.65080  0.62480  Biso   1.000  C
  C218     1.0000 0.84920  0.65823  0.12480  Biso   1.000  C
  C219     1.0000 0.84177  0.84920  0.62480  Biso   1.000  C
  C220     1.0000 0.65080  0.84177  0.12480  Biso   1.000  C
  C221     1.0000 0.15823  0.34920  0.37520  Biso   1.000  C
  C222     1.0000 0.15080  0.15823  0.87520  Biso   1.000  C
  C223     1.0000 0.34177  0.15080  0.37520  Biso   1.000  C
  C224     1.0000 0.34920  0.34177  0.87520  Biso   1.000  C
  H113     1.0000 0.32020  0.33810  0.37840  Biso   1.000  H
  H114     1.0000 0.16190  0.32020  0.87840  Biso   1.000  H
  H115     1.0000 0.17980  0.16190  0.37840  Biso   1.000  H
  H116     1.0000 0.33810  0.17980  0.87840  Biso   1.000  H
  H117     1.0000 0.82020  0.66190  0.62160  Biso   1.000  H
  H118     1.0000 0.83810  0.82020  0.12160  Biso   1.000  H
  H119     1.0000 0.67980  0.83810  0.62160  Biso   1.000  H
  H120     1.0000 0.66190  0.67980  0.12160  Biso   1.000  H
  H121     1.0000 0.67980  0.66190  0.62160  Biso   1.000  H
  H122     1.0000 0.83810  0.67980  0.12160  Biso   1.000  H
  H123     1.0000 0.82020  0.83810  0.62160  Biso   1.000  H
  H124     1.0000 0.66190  0.82020  0.12160  Biso   1.000  H
  H125     1.0000 0.17980  0.33810  0.37840  Biso   1.000  H
  H126     1.0000 0.16190  0.17980  0.87840  Biso   1.000  H
  H127     1.0000 0.32020  0.16190  0.37840  Biso   1.000  H
  H128     1.0000 0.33810  0.32020  0.87840  Biso   1.000  H
  H129     1.0000 0.35910  0.33270  0.36600  Biso   1.000  H
  H130     1.0000 0.16730  0.35910  0.86600  Biso   1.000  H
  H131     1.0000 0.14090  0.16730  0.36600  Biso   1.000  H
  H132     1.0000 0.33270  0.14090  0.86600  Biso   1.000  H
  H133     1.0000 0.85910  0.66730  0.63400  Biso   1.000  H
  H134     1.0000 0.83270  0.85910  0.13400  Biso   1.000  H
  H135     1.0000 0.64090  0.83270  0.63400  Biso   1.000  H
  H136     1.0000 0.66730  0.64090  0.13400  Biso   1.000  H
  H137     1.0000 0.64090  0.66730  0.63400  Biso   1.000  H
  H138     1.0000 0.83270  0.64090  0.13400  Biso   1.000  H
  H139     1.0000 0.85910  0.83270  0.63400  Biso   1.000  H
  H140     1.0000 0.66730  0.85910  0.13400  Biso   1.000  H
  H141     1.0000 0.14090  0.33270  0.36600  Biso   1.000  H
  H142     1.0000 0.16730  0.14090  0.86600  Biso   1.000  H
  H143     1.0000 0.35910  0.16730  0.36600  Biso   1.000  H
  H144     1.0000 0.33270  0.35910  0.86600  Biso   1.000  H
  H145     1.0000 0.34150  0.36530  0.33350  Biso   1.000  H
  H146     1.0000 0.13470  0.34150  0.83350  Biso   1.000  H
  H147     1.0000 0.15850  0.13470  0.33350  Biso   1.000  H
  H148     1.0000 0.36530  0.15850  0.83350  Biso   1.000  H
  H149     1.0000 0.84150  0.63470  0.66650  Biso   1.000  H
  H150     1.0000 0.86530  0.84150  0.16650  Biso   1.000  H
  H151     1.0000 0.65850  0.86530  0.66650  Biso   1.000  H
  H152     1.0000 0.63470  0.65850  0.16650  Biso   1.000  H
  H153     1.0000 0.65850  0.63470  0.66650  Biso   1.000  H
  H154     1.0000 0.86530  0.65850  0.16650  Biso   1.000  H
  H155     1.0000 0.84150  0.86530  0.66650  Biso   1.000  H
  H156     1.0000 0.63470  0.84150  0.16650  Biso   1.000  H
  H157     1.0000 0.15850  0.36530  0.33350  Biso   1.000  H
  H158     1.0000 0.13470  0.15850  0.83350  Biso   1.000  H
  H159     1.0000 0.34150  0.13470  0.33350  Biso   1.000  H
  H160     1.0000 0.36530  0.34150  0.83350  Biso   1.000  H
  C225     1.0000 0.46696  0.43986  0.48580  Biso   1.000  C
  C226     1.0000 0.06014  0.46696  0.98580  Biso   1.000  C
  C227     1.0000 0.03304  0.06014  0.48580  Biso   1.000  C
  C228     1.0000 0.43986  0.03304  0.98580  Biso   1.000  C
  C229     1.0000 0.96696  0.56014  0.51420  Biso   1.000  C
  C230     1.0000 0.93986  0.96696  0.01420  Biso   1.000  C
  C231     1.0000 0.53304  0.93986  0.51420  Biso   1.000  C
  C232     1.0000 0.56014  0.53304  0.01420  Biso   1.000  C
  C233     1.0000 0.53304  0.56014  0.51420  Biso   1.000  C
  C234     1.0000 0.93986  0.53304  0.01420  Biso   1.000  C
  C235     1.0000 0.96696  0.93986  0.51420  Biso   1.000  C
  C236     1.0000 0.56014  0.96696  0.01420  Biso   1.000  C
  C237     1.0000 0.03304  0.43986  0.48580  Biso   1.000  C
  C238     1.0000 0.06014  0.03304  0.98580  Biso   1.000  C
  C239     1.0000 0.46696  0.06014  0.48580  Biso   1.000  C
  C240     1.0000 0.43986  0.46696  0.98580  Biso   1.000  C
  H161     1.0000 0.48350  0.43630  0.44520  Biso   1.000  H
  H162     1.0000 0.06370  0.48350  0.94520  Biso   1.000  H
  H163     1.0000 0.01650  0.06370  0.44520  Biso   1.000  H
  H164     1.0000 0.43630  0.01650  0.94520  Biso   1.000  H
  H165     1.0000 0.98350  0.56370  0.55480  Biso   1.000  H
  H166     1.0000 0.93630  0.98350  0.05480  Biso   1.000  H
  H167     1.0000 0.51650  0.93630  0.55480  Biso   1.000  H
  H168     1.0000 0.56370  0.51650  0.05480  Biso   1.000  H
  H169     1.0000 0.51650  0.56370  0.55480  Biso   1.000  H
  H170     1.0000 0.93630  0.51650  0.05480  Biso   1.000  H
  H171     1.0000 0.98350  0.93630  0.55480  Biso   1.000  H
  H172     1.0000 0.56370  0.98350  0.05480  Biso   1.000  H
  H173     1.0000 0.01650  0.43630  0.44520  Biso   1.000  H
  H174     1.0000 0.06370  0.01650  0.94520  Biso   1.000  H
  H175     1.0000 0.48350  0.06370  0.44520  Biso   1.000  H
  H176     1.0000 0.43630  0.48350  0.94520  Biso   1.000  H
  H177     1.0000 0.47650  0.43140  0.53370  Biso   1.000  H
  H178     1.0000 0.06860  0.47650  0.03370  Biso   1.000  H
  H179     1.0000 0.02350  0.06860  0.53370  Biso   1.000  H
  H180     1.0000 0.43140  0.02350  0.03370  Biso   1.000  H
  H181     1.0000 0.97650  0.56860  0.46630  Biso   1.000  H
  H182     1.0000 0.93140  0.97650  0.96630  Biso   1.000  H
  H183     1.0000 0.52350  0.93140  0.46630  Biso   1.000  H
  H184     1.0000 0.56860  0.52350  0.96630  Biso   1.000  H
  H185     1.0000 0.52350  0.56860  0.46630  Biso   1.000  H
  H186     1.0000 0.93140  0.52350  0.96630  Biso   1.000  H
  H187     1.0000 0.97650  0.93140  0.46630  Biso   1.000  H
  H188     1.0000 0.56860  0.97650  0.96630  Biso   1.000  H
  H189     1.0000 0.02350  0.43140  0.53370  Biso   1.000  H
  H190     1.0000 0.06860  0.02350  0.03370  Biso   1.000  H
  H191     1.0000 0.47650  0.06860  0.53370  Biso   1.000  H
  H192     1.0000 0.43140  0.47650  0.03370  Biso   1.000  H
  C241     1.0000 0.45986  0.47687  0.49350  Biso   1.000  C
  C242     1.0000 0.02313  0.45986  0.99350  Biso   1.000  C
  C243     1.0000 0.04014  0.02313  0.49350  Biso   1.000  C
  C244     1.0000 0.47687  0.04014  0.99350  Biso   1.000  C
  C245     1.0000 0.95986  0.52313  0.50650  Biso   1.000  C
  C246     1.0000 0.97687  0.95986  0.00650  Biso   1.000  C
  C247     1.0000 0.54014  0.97687  0.50650  Biso   1.000  C
  C248     1.0000 0.52313  0.54014  0.00650  Biso   1.000  C
  C249     1.0000 0.54014  0.52313  0.50650  Biso   1.000  C
  C250     1.0000 0.97687  0.54014  0.00650  Biso   1.000  C
  C251     1.0000 0.95986  0.97687  0.50650  Biso   1.000  C
  C252     1.0000 0.52313  0.95986  0.00650  Biso   1.000  C
  C253     1.0000 0.04014  0.47687  0.49350  Biso   1.000  C
  C254     1.0000 0.02313  0.04014  0.99350  Biso   1.000  C
  C255     1.0000 0.45986  0.02313  0.49350  Biso   1.000  C
  C256     1.0000 0.47687  0.45986  0.99350  Biso   1.000  C
  C257     1.0000 0.45078  0.48990  0.56450  Biso   1.000  C
  C258     1.0000 0.01010  0.45078  0.06450  Biso   1.000  C
  C259     1.0000 0.04922  0.01010  0.56450  Biso   1.000  C
  C260     1.0000 0.48990  0.04922  0.06450  Biso   1.000  C
  C261     1.0000 0.95078  0.51010  0.43550  Biso   1.000  C
  C262     1.0000 0.98990  0.95078  0.93550  Biso   1.000  C
  C263     1.0000 0.54922  0.98990  0.43550  Biso   1.000  C
  C264     1.0000 0.51010  0.54922  0.93550  Biso   1.000  C
  C265     1.0000 0.54922  0.51010  0.43550  Biso   1.000  C
  C266     1.0000 0.98990  0.54922  0.93550  Biso   1.000  C
  C267     1.0000 0.95078  0.98990  0.43550  Biso   1.000  C
  C268     1.0000 0.51010  0.95078  0.93550  Biso   1.000  C
  C269     1.0000 0.04922  0.48990  0.56450  Biso   1.000  C
  C270     1.0000 0.01010  0.04922  0.06450  Biso   1.000  C
  C271     1.0000 0.45078  0.01010  0.56450  Biso   1.000  C
  C272     1.0000 0.48990  0.45078  0.06450  Biso   1.000  C
  H193     1.0000 0.44950  0.47540  0.60680  Biso   1.000  H
  H194     1.0000 0.02460  0.44950  0.10680  Biso   1.000  H
  H195     1.0000 0.05050  0.02460  0.60680  Biso   1.000  H
  H196     1.0000 0.47540  0.05050  0.10680  Biso   1.000  H
  H197     1.0000 0.94950  0.52460  0.39320  Biso   1.000  H
  H198     1.0000 0.97540  0.94950  0.89320  Biso   1.000  H
  H199     1.0000 0.55050  0.97540  0.39320  Biso   1.000  H
  H200     1.0000 0.52460  0.55050  0.89320  Biso   1.000  H
  H201     1.0000 0.55050  0.52460  0.39320  Biso   1.000  H
  H202     1.0000 0.97540  0.55050  0.89320  Biso   1.000  H
  H203     1.0000 0.94950  0.97540  0.39320  Biso   1.000  H
  H204     1.0000 0.52460  0.94950  0.89320  Biso   1.000  H
  H205     1.0000 0.05050  0.47540  0.60680  Biso   1.000  H
  H206     1.0000 0.02460  0.05050  0.10680  Biso   1.000  H
  H207     1.0000 0.44950  0.02460  0.60680  Biso   1.000  H
  H208     1.0000 0.47540  0.44950  0.10680  Biso   1.000  H
  C273     1.0000 0.44386  0.52259  0.57430  Biso   1.000  C
  C274     1.0000 0.97741  0.44386  0.07430  Biso   1.000  C
  C275     1.0000 0.05614  0.97741  0.57430  Biso   1.000  C
  C276     1.0000 0.52259  0.05614  0.07430  Biso   1.000  C
  C277     1.0000 0.94386  0.47741  0.42570  Biso   1.000  C
  C278     1.0000 0.02259  0.94386  0.92570  Biso   1.000  C
  C279     1.0000 0.55614  0.02259  0.42570  Biso   1.000  C
  C280     1.0000 0.47741  0.55614  0.92570  Biso   1.000  C
  C281     1.0000 0.55614  0.47741  0.42570  Biso   1.000  C
  C282     1.0000 0.02259  0.55614  0.92570  Biso   1.000  C
  C283     1.0000 0.94386  0.02259  0.42570  Biso   1.000  C
  C284     1.0000 0.47741  0.94386  0.92570  Biso   1.000  C
  C285     1.0000 0.05614  0.52259  0.57430  Biso   1.000  C
  C286     1.0000 0.97741  0.05614  0.07430  Biso   1.000  C
  C287     1.0000 0.44386  0.97741  0.57430  Biso   1.000  C
  C288     1.0000 0.52259  0.44386  0.07430  Biso   1.000  C
  C289     1.0000 0.44684  0.54508  0.51390  Biso   1.000  C
  C290     1.0000 0.95492  0.44684  0.01390  Biso   1.000  C
  C291     1.0000 0.05316  0.95492  0.51390  Biso   1.000  C
  C292     1.0000 0.54508  0.05316  0.01390  Biso   1.000  C
  C293     1.0000 0.94684  0.45492  0.48610  Biso   1.000  C
  C294     1.0000 0.04508  0.94684  0.98610  Biso   1.000  C
  C295     1.0000 0.55316  0.04508  0.48610  Biso   1.000  C
  C296     1.0000 0.45492  0.55316  0.98610  Biso   1.000  C
  C297     1.0000 0.55316  0.45492  0.48610  Biso   1.000  C
  C298     1.0000 0.04508  0.55316  0.98610  Biso   1.000  C
  C299     1.0000 0.94684  0.04508  0.48610  Biso   1.000  C
  C300     1.0000 0.45492  0.94684  0.98610  Biso   1.000  C
  C301     1.0000 0.05316  0.54508  0.51390  Biso   1.000  C
  C302     1.0000 0.95492  0.05316  0.01390  Biso   1.000  C
  C303     1.0000 0.44684  0.95492  0.51390  Biso   1.000  C
  C304     1.0000 0.54508  0.44684  0.01390  Biso   1.000  C
  C305     1.0000 0.45564  0.53240  0.44390  Biso   1.000  C
  C306     1.0000 0.96760  0.45564  0.94390  Biso   1.000  C
  C307     1.0000 0.04436  0.96760  0.44390  Biso   1.000  C
  C308     1.0000 0.53240  0.04436  0.94390  Biso   1.000  C
  C309     1.0000 0.95564  0.46760  0.55610  Biso   1.000  C
  C310     1.0000 0.03240  0.95564  0.05610  Biso   1.000  C
  C311     1.0000 0.54436  0.03240  0.55610  Biso   1.000  C
  C312     1.0000 0.46760  0.54436  0.05610  Biso   1.000  C
  C313     1.0000 0.54436  0.46760  0.55610  Biso   1.000  C
  C314     1.0000 0.03240  0.54436  0.05610  Biso   1.000  C
  C315     1.0000 0.95564  0.03240  0.55610  Biso   1.000  C
  C316     1.0000 0.46760  0.95564  0.05610  Biso   1.000  C
  C317     1.0000 0.04436  0.53240  0.44390  Biso   1.000  C
  C318     1.0000 0.96760  0.04436  0.94390  Biso   1.000  C
  C319     1.0000 0.45564  0.96760  0.44390  Biso   1.000  C
  C320     1.0000 0.53240  0.45564  0.94390  Biso   1.000  C
  H209     1.0000 0.45720  0.54720  0.40220  Biso   1.000  H
  H210     1.0000 0.95280  0.45720  0.90220  Biso   1.000  H
  H211     1.0000 0.04280  0.95280  0.40220  Biso   1.000  H
  H212     1.0000 0.54720  0.04280  0.90220  Biso   1.000  H
  H213     1.0000 0.95720  0.45280  0.59780  Biso   1.000  H
  H214     1.0000 0.04720  0.95720  0.09780  Biso   1.000  H
  H215     1.0000 0.54280  0.04720  0.59780  Biso   1.000  H
  H216     1.0000 0.45280  0.54280  0.09780  Biso   1.000  H
  H217     1.0000 0.54280  0.45280  0.59780  Biso   1.000  H
  H218     1.0000 0.04720  0.54280  0.09780  Biso   1.000  H
  H219     1.0000 0.95720  0.04720  0.59780  Biso   1.000  H
  H220     1.0000 0.45280  0.95720  0.09780  Biso   1.000  H
  H221     1.0000 0.04280  0.54720  0.40220  Biso   1.000  H
  H222     1.0000 0.95280  0.04280  0.90220  Biso   1.000  H
  H223     1.0000 0.45720  0.95280  0.40220  Biso   1.000  H
  H224     1.0000 0.54720  0.45720  0.90220  Biso   1.000  H
  C321     1.0000 0.46233  0.49897  0.43190  Biso   1.000  C
  C322     1.0000 0.00103  0.46233  0.93190  Biso   1.000  C
  C323     1.0000 0.03767  0.00103  0.43190  Biso   1.000  C
  C324     1.0000 0.49897  0.03767  0.93190  Biso   1.000  C
  C325     1.0000 0.96233  0.50103  0.56810  Biso   1.000  C
  C326     1.0000 0.99897  0.96233  0.06810  Biso   1.000  C
  C327     1.0000 0.53767  0.99897  0.56810  Biso   1.000  C
  C328     1.0000 0.50103  0.53767  0.06810  Biso   1.000  C
  C329     1.0000 0.53767  0.50103  0.56810  Biso   1.000  C
  C330     1.0000 0.99897  0.53767  0.06810  Biso   1.000  C
  C331     1.0000 0.96233  0.99897  0.56810  Biso   1.000  C
  C332     1.0000 0.50103  0.96233  0.06810  Biso   1.000  C
  C333     1.0000 0.03767  0.49897  0.43190  Biso   1.000  C
  C334     1.0000 0.00103  0.03767  0.93190  Biso   1.000  C
  C335     1.0000 0.46233  0.00103  0.43190  Biso   1.000  C
  C336     1.0000 0.49897  0.46233  0.93190  Biso   1.000  C
  C337     1.0000 0.42790  0.51356  0.70240  Biso   1.000  C
  C338     1.0000 0.98644  0.42790  0.20240  Biso   1.000  C
  C339     1.0000 0.07210  0.98644  0.70240  Biso   1.000  C
  C340     1.0000 0.51356  0.07210  0.20240  Biso   1.000  C
  C341     1.0000 0.92790  0.48644  0.29760  Biso   1.000  C
  C342     1.0000 0.01356  0.92790  0.79760  Biso   1.000  C
  C343     1.0000 0.57210  0.01356  0.29760  Biso   1.000  C
  C344     1.0000 0.48644  0.57210  0.79760  Biso   1.000  C
  C345     1.0000 0.57210  0.48644  0.29760  Biso   1.000  C
  C346     1.0000 0.01356  0.57210  0.79760  Biso   1.000  C
  C347     1.0000 0.92790  0.01356  0.29760  Biso   1.000  C
  C348     1.0000 0.48644  0.92790  0.79760  Biso   1.000  C
  C349     1.0000 0.07210  0.51356  0.70240  Biso   1.000  C
  C350     1.0000 0.98644  0.07210  0.20240  Biso   1.000  C
  C351     1.0000 0.42790  0.98644  0.70240  Biso   1.000  C
  C352     1.0000 0.51356  0.42790  0.20240  Biso   1.000  C
  H225     1.0000 0.42160  0.52590  0.74810  Biso   1.000  H
  H226     1.0000 0.97410  0.42160  0.24810  Biso   1.000  H
  H227     1.0000 0.07840  0.97410  0.74810  Biso   1.000  H
  H228     1.0000 0.52590  0.07840  0.24810  Biso   1.000  H
  H229     1.0000 0.92160  0.47410  0.25190  Biso   1.000  H
  H230     1.0000 0.02590  0.92160  0.75190  Biso   1.000  H
  H231     1.0000 0.57840  0.02590  0.25190  Biso   1.000  H
  H232     1.0000 0.47410  0.57840  0.75190  Biso   1.000  H
  H233     1.0000 0.57840  0.47410  0.25190  Biso   1.000  H
  H234     1.0000 0.02590  0.57840  0.75190  Biso   1.000  H
  H235     1.0000 0.92160  0.02590  0.25190  Biso   1.000  H
  H236     1.0000 0.47410  0.92160  0.75190  Biso   1.000  H
  H237     1.0000 0.07840  0.52590  0.74810  Biso   1.000  H
  H238     1.0000 0.97410  0.07840  0.24810  Biso   1.000  H
  H239     1.0000 0.42160  0.97410  0.74810  Biso   1.000  H
  H240     1.0000 0.52590  0.42160  0.24810  Biso   1.000  H
  H241     1.0000 0.44780  0.50030  0.71270  Biso   1.000  H
  H242     1.0000 0.99970  0.44780  0.21270  Biso   1.000  H
  H243     1.0000 0.05220  0.99970  0.71270  Biso   1.000  H
  H244     1.0000 0.50030  0.05220  0.21270  Biso   1.000  H
  H245     1.0000 0.94780  0.49970  0.28730  Biso   1.000  H
  H246     1.0000 0.00030  0.94780  0.78730  Biso   1.000  H
  H247     1.0000 0.55220  0.00030  0.28730  Biso   1.000  H
  H248     1.0000 0.49970  0.55220  0.78730  Biso   1.000  H
  H249     1.0000 0.55220  0.49970  0.28730  Biso   1.000  H
  H250     1.0000 0.00030  0.55220  0.78730  Biso   1.000  H
  H251     1.0000 0.94780  0.00030  0.28730  Biso   1.000  H
  H252     1.0000 0.49970  0.94780  0.78730  Biso   1.000  H
  H253     1.0000 0.05220  0.50030  0.71270  Biso   1.000  H
  H254     1.0000 0.99970  0.05220  0.21270  Biso   1.000  H
  H255     1.0000 0.44780  0.99970  0.71270  Biso   1.000  H
  H256     1.0000 0.50030  0.44780  0.21270  Biso   1.000  H
  H257     1.0000 0.40970  0.49880  0.68760  Biso   1.000  H
  H258     1.0000 0.00120  0.40970  0.18760  Biso   1.000  H
  H259     1.0000 0.09030  0.00120  0.68760  Biso   1.000  H
  H260     1.0000 0.49880  0.09030  0.18760  Biso   1.000  H
  H261     1.0000 0.90970  0.50120  0.31240  Biso   1.000  H
  H262     1.0000 0.99880  0.90970  0.81240  Biso   1.000  H
  H263     1.0000 0.59030  0.99880  0.31240  Biso   1.000  H
  H264     1.0000 0.50120  0.59030  0.81240  Biso   1.000  H
  H265     1.0000 0.59030  0.50120  0.31240  Biso   1.000  H
  H266     1.0000 0.99880  0.59030  0.81240  Biso   1.000  H
  H267     1.0000 0.90970  0.99880  0.31240  Biso   1.000  H
  H268     1.0000 0.50120  0.90970  0.81240  Biso   1.000  H
  H269     1.0000 0.09030  0.49880  0.68760  Biso   1.000  H
  H270     1.0000 0.00120  0.09030  0.18760  Biso   1.000  H
  H271     1.0000 0.40970  0.00120  0.68760  Biso   1.000  H
  H272     1.0000 0.49880  0.40970  0.18760  Biso   1.000  H
  C353     1.0000 0.44186  0.58170  0.52300  Biso   1.000  C
  C354     1.0000 0.91830  0.44186  0.02300  Biso   1.000  C
  C355     1.0000 0.05814  0.91830  0.52300  Biso   1.000  C
  C356     1.0000 0.58170  0.05814  0.02300  Biso   1.000  C
  C357     1.0000 0.94186  0.41830  0.47700  Biso   1.000  C
  C358     1.0000 0.08170  0.94186  0.97700  Biso   1.000  C
  C359     1.0000 0.55814  0.08170  0.47700  Biso   1.000  C
  C360     1.0000 0.41830  0.55814  0.97700  Biso   1.000  C
  C361     1.0000 0.55814  0.41830  0.47700  Biso   1.000  C
  C362     1.0000 0.08170  0.55814  0.97700  Biso   1.000  C
  C363     1.0000 0.94186  0.08170  0.47700  Biso   1.000  C
  C364     1.0000 0.41830  0.94186  0.97700  Biso   1.000  C
  C365     1.0000 0.05814  0.58170  0.52300  Biso   1.000  C
  C366     1.0000 0.91830  0.05814  0.02300  Biso   1.000  C
  C367     1.0000 0.44186  0.91830  0.52300  Biso   1.000  C
  C368     1.0000 0.58170  0.44186  0.02300  Biso   1.000  C
  C369     1.0000 0.42363  0.59955  0.47170  Biso   1.000  C
  C370     1.0000 0.90045  0.42363  0.97170  Biso   1.000  C
  C371     1.0000 0.07637  0.90045  0.47170  Biso   1.000  C
  C372     1.0000 0.59955  0.07637  0.97170  Biso   1.000  C
  C373     1.0000 0.92363  0.40045  0.52830  Biso   1.000  C
  C374     1.0000 0.09955  0.92363  0.02830  Biso   1.000  C
  C375     1.0000 0.57637  0.09955  0.52830  Biso   1.000  C
  C376     1.0000 0.40045  0.57637  0.02830  Biso   1.000  C
  C377     1.0000 0.57637  0.40045  0.52830  Biso   1.000  C
  C378     1.0000 0.09955  0.57637  0.02830  Biso   1.000  C
  C379     1.0000 0.92363  0.09955  0.52830  Biso   1.000  C
  C380     1.0000 0.40045  0.92363  0.02830  Biso   1.000  C
  C381     1.0000 0.07637  0.59955  0.47170  Biso   1.000  C
  C382     1.0000 0.90045  0.07637  0.97170  Biso   1.000  C
  C383     1.0000 0.42363  0.90045  0.47170  Biso   1.000  C
  C384     1.0000 0.59955  0.42363  0.97170  Biso   1.000  C
  H273     1.0000 0.41230  0.58850  0.43190  Biso   1.000  H
  H274     1.0000 0.91150  0.41230  0.93190  Biso   1.000  H
  H275     1.0000 0.08770  0.91150  0.43190  Biso   1.000  H
  H276     1.0000 0.58850  0.08770  0.93190  Biso   1.000  H
  H277     1.0000 0.91230  0.41150  0.56810  Biso   1.000  H
  H278     1.0000 0.08850  0.91230  0.06810  Biso   1.000  H
  H279     1.0000 0.58770  0.08850  0.56810  Biso   1.000  H
  H280     1.0000 0.41150  0.58770  0.06810  Biso   1.000  H
  H281     1.0000 0.58770  0.41150  0.56810  Biso   1.000  H
  H282     1.0000 0.08850  0.58770  0.06810  Biso   1.000  H
  H283     1.0000 0.91230  0.08850  0.56810  Biso   1.000  H
  H284     1.0000 0.41150  0.91230  0.06810  Biso   1.000  H
  H285     1.0000 0.08770  0.58850  0.43190  Biso   1.000  H
  H286     1.0000 0.91150  0.08770  0.93190  Biso   1.000  H
  H287     1.0000 0.41230  0.91150  0.43190  Biso   1.000  H
  H288     1.0000 0.58850  0.41230  0.93190  Biso   1.000  H
  C385     1.0000 0.42175  0.63389  0.47800  Biso   1.000  C
  C386     1.0000 0.86611  0.42175  0.97800  Biso   1.000  C
  C387     1.0000 0.07825  0.86611  0.47800  Biso   1.000  C
  C388     1.0000 0.63389  0.07825  0.97800  Biso   1.000  C
  C389     1.0000 0.92175  0.36611  0.52200  Biso   1.000  C
  C390     1.0000 0.13389  0.92175  0.02200  Biso   1.000  C
  C391     1.0000 0.57825  0.13389  0.52200  Biso   1.000  C
  C392     1.0000 0.36611  0.57825  0.02200  Biso   1.000  C
  C393     1.0000 0.57825  0.36611  0.52200  Biso   1.000  C
  C394     1.0000 0.13389  0.57825  0.02200  Biso   1.000  C
  C395     1.0000 0.92175  0.13389  0.52200  Biso   1.000  C
  C396     1.0000 0.36611  0.92175  0.02200  Biso   1.000  C
  C397     1.0000 0.07825  0.63389  0.47800  Biso   1.000  C
  C398     1.0000 0.86611  0.07825  0.97800  Biso   1.000  C
  C399     1.0000 0.42175  0.86611  0.47800  Biso   1.000  C
  C400     1.0000 0.63389  0.42175  0.97800  Biso   1.000  C
  H289     1.0000 0.40930  0.64600  0.44170  Biso   1.000  H
  H290     1.0000 0.85400  0.40930  0.94170  Biso   1.000  H
  H291     1.0000 0.09070  0.85400  0.44170  Biso   1.000  H
  H292     1.0000 0.64600  0.09070  0.94170  Biso   1.000  H
  H293     1.0000 0.90930  0.35400  0.55830  Biso   1.000  H
  H294     1.0000 0.14600  0.90930  0.05830  Biso   1.000  H
  H295     1.0000 0.59070  0.14600  0.55830  Biso   1.000  H
  H296     1.0000 0.35400  0.59070  0.05830  Biso   1.000  H
  H297     1.0000 0.59070  0.35400  0.55830  Biso   1.000  H
  H298     1.0000 0.14600  0.59070  0.05830  Biso   1.000  H
  H299     1.0000 0.90930  0.14600  0.55830  Biso   1.000  H
  H300     1.0000 0.35400  0.90930  0.05830  Biso   1.000  H
  H301     1.0000 0.09070  0.64600  0.44170  Biso   1.000  H
  H302     1.0000 0.85400  0.09070  0.94170  Biso   1.000  H
  H303     1.0000 0.40930  0.85400  0.44170  Biso   1.000  H
  H304     1.0000 0.64600  0.40930  0.94170  Biso   1.000  H
  C401     1.0000 0.43741  0.65071  0.53560  Biso   1.000  C
  C402     1.0000 0.84929  0.43741  0.03560  Biso   1.000  C
  C403     1.0000 0.06259  0.84929  0.53560  Biso   1.000  C
  C404     1.0000 0.65071  0.06259  0.03560  Biso   1.000  C
  C405     1.0000 0.93741  0.34929  0.46440  Biso   1.000  C
  C406     1.0000 0.15071  0.93741  0.96440  Biso   1.000  C
  C407     1.0000 0.56259  0.15071  0.46440  Biso   1.000  C
  C408     1.0000 0.34929  0.56259  0.96440  Biso   1.000  C
  C409     1.0000 0.56259  0.34929  0.46440  Biso   1.000  C
  C410     1.0000 0.15071  0.56259  0.96440  Biso   1.000  C
  C411     1.0000 0.93741  0.15071  0.46440  Biso   1.000  C
  C412     1.0000 0.34929  0.93741  0.96440  Biso   1.000  C
  C413     1.0000 0.06259  0.65071  0.53560  Biso   1.000  C
  C414     1.0000 0.84929  0.06259  0.03560  Biso   1.000  C
  C415     1.0000 0.43741  0.84929  0.53560  Biso   1.000  C
  C416     1.0000 0.65071  0.43741  0.03560  Biso   1.000  C
  C417     1.0000 0.45478  0.63282  0.58870  Biso   1.000  C
  C418     1.0000 0.86718  0.45478  0.08870  Biso   1.000  C
  C419     1.0000 0.04522  0.86718  0.58870  Biso   1.000  C
  C420     1.0000 0.63282  0.04522  0.08870  Biso   1.000  C
  C421     1.0000 0.95478  0.36718  0.41130  Biso   1.000  C
  C422     1.0000 0.13282  0.95478  0.91130  Biso   1.000  C
  C423     1.0000 0.54522  0.13282  0.41130  Biso   1.000  C
  C424     1.0000 0.36718  0.54522  0.91130  Biso   1.000  C
  C425     1.0000 0.54522  0.36718  0.41130  Biso   1.000  C
  C426     1.0000 0.13282  0.54522  0.91130  Biso   1.000  C
  C427     1.0000 0.95478  0.13282  0.41130  Biso   1.000  C
  C428     1.0000 0.36718  0.95478  0.91130  Biso   1.000  C
  C429     1.0000 0.04522  0.63282  0.58870  Biso   1.000  C
  C430     1.0000 0.86718  0.04522  0.08870  Biso   1.000  C
  C431     1.0000 0.45478  0.86718  0.58870  Biso   1.000  C
  C432     1.0000 0.63282  0.45478  0.08870  Biso   1.000  C
  H305     1.0000 0.46500  0.64400  0.62990  Biso   1.000  H
  H306     1.0000 0.85600  0.46500  0.12990  Biso   1.000  H
  H307     1.0000 0.03500  0.85600  0.62990  Biso   1.000  H
  H308     1.0000 0.64400  0.03500  0.12990  Biso   1.000  H
  H309     1.0000 0.96500  0.35600  0.37010  Biso   1.000  H
  H310     1.0000 0.14400  0.96500  0.87010  Biso   1.000  H
  H311     1.0000 0.53500  0.14400  0.37010  Biso   1.000  H
  H312     1.0000 0.35600  0.53500  0.87010  Biso   1.000  H
  H313     1.0000 0.53500  0.35600  0.37010  Biso   1.000  H
  H314     1.0000 0.14400  0.53500  0.87010  Biso   1.000  H
  H315     1.0000 0.96500  0.14400  0.37010  Biso   1.000  H
  H316     1.0000 0.35600  0.96500  0.87010  Biso   1.000  H
  H317     1.0000 0.03500  0.64400  0.62990  Biso   1.000  H
  H318     1.0000 0.85600  0.03500  0.12990  Biso   1.000  H
  H319     1.0000 0.46500  0.85600  0.62990  Biso   1.000  H
  H320     1.0000 0.64400  0.46500  0.12990  Biso   1.000  H
  C433     1.0000 0.45742  0.59885  0.58260  Biso   1.000  C
  C434     1.0000 0.90115  0.45742  0.08260  Biso   1.000  C
  C435     1.0000 0.04258  0.90115  0.58260  Biso   1.000  C
  C436     1.0000 0.59885  0.04258  0.08260  Biso   1.000  C
  C437     1.0000 0.95742  0.40115  0.41740  Biso   1.000  C
  C438     1.0000 0.09885  0.95742  0.91740  Biso   1.000  C
  C439     1.0000 0.54258  0.09885  0.41740  Biso   1.000  C
  C440     1.0000 0.40115  0.54258  0.91740  Biso   1.000  C
  C441     1.0000 0.54258  0.40115  0.41740  Biso   1.000  C
  C442     1.0000 0.09885  0.54258  0.91740  Biso   1.000  C
  C443     1.0000 0.95742  0.09885  0.41740  Biso   1.000  C
  C444     1.0000 0.40115  0.95742  0.91740  Biso   1.000  C
  C445     1.0000 0.04258  0.59885  0.58260  Biso   1.000  C
  C446     1.0000 0.90115  0.04258  0.08260  Biso   1.000  C
  C447     1.0000 0.45742  0.90115  0.58260  Biso   1.000  C
  C448     1.0000 0.59885  0.45742  0.08260  Biso   1.000  C
  H321     1.0000 0.46990  0.58690  0.61920  Biso   1.000  H
  H322     1.0000 0.91310  0.46990  0.11920  Biso   1.000  H
  H323     1.0000 0.03010  0.91310  0.61920  Biso   1.000  H
  H324     1.0000 0.58690  0.03010  0.11920  Biso   1.000  H
  H325     1.0000 0.96990  0.41310  0.38080  Biso   1.000  H
  H326     1.0000 0.08690  0.96990  0.88080  Biso   1.000  H
  H327     1.0000 0.53010  0.08690  0.38080  Biso   1.000  H
  H328     1.0000 0.41310  0.53010  0.88080  Biso   1.000  H
  H329     1.0000 0.53010  0.41310  0.38080  Biso   1.000  H
  H330     1.0000 0.08690  0.53010  0.88080  Biso   1.000  H
  H331     1.0000 0.96990  0.08690  0.38080  Biso   1.000  H
  H332     1.0000 0.41310  0.96990  0.88080  Biso   1.000  H
  H333     1.0000 0.03010  0.58690  0.61920  Biso   1.000  H
  H334     1.0000 0.91310  0.03010  0.11920  Biso   1.000  H
  H335     1.0000 0.46990  0.91310  0.61920  Biso   1.000  H
  H336     1.0000 0.58690  0.46990  0.11920  Biso   1.000  H
  C449     1.0000 0.43640  0.68743  0.54310  Biso   1.000  C
  C450     1.0000 0.81257  0.43640  0.04310  Biso   1.000  C
  C451     1.0000 0.06360  0.81257  0.54310  Biso   1.000  C
  C452     1.0000 0.68743  0.06360  0.04310  Biso   1.000  C
  C453     1.0000 0.93640  0.31257  0.45690  Biso   1.000  C
  C454     1.0000 0.18743  0.93640  0.95690  Biso   1.000  C
  C455     1.0000 0.56360  0.18743  0.45690  Biso   1.000  C
  C456     1.0000 0.31257  0.56360  0.95690  Biso   1.000  C
  C457     1.0000 0.56360  0.31257  0.45690  Biso   1.000  C
  C458     1.0000 0.18743  0.56360  0.95690  Biso   1.000  C
  C459     1.0000 0.93640  0.18743  0.45690  Biso   1.000  C
  C460     1.0000 0.31257  0.93640  0.95690  Biso   1.000  C
  C461     1.0000 0.06360  0.68743  0.54310  Biso   1.000  C
  C462     1.0000 0.81257  0.06360  0.04310  Biso   1.000  C
  C463     1.0000 0.43640  0.81257  0.54310  Biso   1.000  C
  C464     1.0000 0.68743  0.43640  0.04310  Biso   1.000  C
  C465     1.0000 0.47229  0.48733  0.35260  Biso   1.000  C
  C466     1.0000 0.01267  0.47229  0.85260  Biso   1.000  C
  C467     1.0000 0.02771  0.01267  0.35260  Biso   1.000  C
  C468     1.0000 0.48733  0.02771  0.85260  Biso   1.000  C
  C469     1.0000 0.97229  0.51267  0.64740  Biso   1.000  C
  C470     1.0000 0.98733  0.97229  0.14740  Biso   1.000  C
  C471     1.0000 0.52771  0.98733  0.64740  Biso   1.000  C
  C472     1.0000 0.51267  0.52771  0.14740  Biso   1.000  C
  C473     1.0000 0.52771  0.51267  0.64740  Biso   1.000  C
  C474     1.0000 0.98733  0.52771  0.14740  Biso   1.000  C
  C475     1.0000 0.97229  0.98733  0.64740  Biso   1.000  C
  C476     1.0000 0.51267  0.97229  0.14740  Biso   1.000  C
  C477     1.0000 0.02771  0.48733  0.35260  Biso   1.000  C
  C478     1.0000 0.01267  0.02771  0.85260  Biso   1.000  C
  C479     1.0000 0.47229  0.01267  0.35260  Biso   1.000  C
  C480     1.0000 0.48733  0.47229  0.85260  Biso   1.000  C
  H337     1.0000 0.48480  0.50540  0.32740  Biso   1.000  H
  H338     1.0000 0.99460  0.48480  0.82740  Biso   1.000  H
  H339     1.0000 0.01520  0.99460  0.32740  Biso   1.000  H
  H340     1.0000 0.50540  0.01520  0.82740  Biso   1.000  H
  H341     1.0000 0.98480  0.49460  0.67260  Biso   1.000  H
  H342     1.0000 0.00540  0.98480  0.17260  Biso   1.000  H
  H343     1.0000 0.51520  0.00540  0.67260  Biso   1.000  H
  H344     1.0000 0.49460  0.51520  0.17260  Biso   1.000  H
  H345     1.0000 0.51520  0.49460  0.67260  Biso   1.000  H
  H346     1.0000 0.00540  0.51520  0.17260  Biso   1.000  H
  H347     1.0000 0.98480  0.00540  0.67260  Biso   1.000  H
  H348     1.0000 0.49460  0.98480  0.17260  Biso   1.000  H
  H349     1.0000 0.01520  0.50540  0.32740  Biso   1.000  H
  H350     1.0000 0.99460  0.01520  0.82740  Biso   1.000  H
  H351     1.0000 0.48480  0.99460  0.32740  Biso   1.000  H
  H352     1.0000 0.50540  0.48480  0.82740  Biso   1.000  H
  H353     1.0000 0.48750  0.46810  0.35760  Biso   1.000  H
  H354     1.0000 0.03190  0.48750  0.85760  Biso   1.000  H
  H355     1.0000 0.01250  0.03190  0.35760  Biso   1.000  H
  H356     1.0000 0.46810  0.01250  0.85760  Biso   1.000  H
  H357     1.0000 0.98750  0.53190  0.64240  Biso   1.000  H
  H358     1.0000 0.96810  0.98750  0.14240  Biso   1.000  H
  H359     1.0000 0.51250  0.96810  0.64240  Biso   1.000  H
  H360     1.0000 0.53190  0.51250  0.14240  Biso   1.000  H
  H361     1.0000 0.51250  0.53190  0.64240  Biso   1.000  H
  H362     1.0000 0.96810  0.51250  0.14240  Biso   1.000  H
  H363     1.0000 0.98750  0.96810  0.64240  Biso   1.000  H
  H364     1.0000 0.53190  0.98750  0.14240  Biso   1.000  H
  H365     1.0000 0.01250  0.46810  0.35760  Biso   1.000  H
  H366     1.0000 0.03190  0.01250  0.85760  Biso   1.000  H
  H367     1.0000 0.48750  0.03190  0.35760  Biso   1.000  H
  H368     1.0000 0.46810  0.48750  0.85760  Biso   1.000  H
  C481     1.0000 0.44364  0.47736  0.30220  Biso   1.000  C
  C482     1.0000 0.02264  0.44364  0.80220  Biso   1.000  C
  C483     1.0000 0.05636  0.02264  0.30220  Biso   1.000  C
  C484     1.0000 0.47736  0.05636  0.80220  Biso   1.000  C
  C485     1.0000 0.94364  0.52264  0.69780  Biso   1.000  C
  C486     1.0000 0.97736  0.94364  0.19780  Biso   1.000  C
  C487     1.0000 0.55636  0.97736  0.69780  Biso   1.000  C
  C488     1.0000 0.52264  0.55636  0.19780  Biso   1.000  C
  C489     1.0000 0.55636  0.52264  0.69780  Biso   1.000  C
  C490     1.0000 0.97736  0.55636  0.19780  Biso   1.000  C
  C491     1.0000 0.94364  0.97736  0.69780  Biso   1.000  C
  C492     1.0000 0.52264  0.94364  0.19780  Biso   1.000  C
  C493     1.0000 0.05636  0.47736  0.30220  Biso   1.000  C
  C494     1.0000 0.02264  0.05636  0.80220  Biso   1.000  C
  C495     1.0000 0.44364  0.02264  0.30220  Biso   1.000  C
  C496     1.0000 0.47736  0.44364  0.80220  Biso   1.000  C
  C497     1.0000 0.42524  0.50352  0.26980  Biso   1.000  C
  C498     1.0000 0.99648  0.42524  0.76980  Biso   1.000  C
  C499     1.0000 0.07476  0.99648  0.26980  Biso   1.000  C
  C500     1.0000 0.50352  0.07476  0.76980  Biso   1.000  C
  C501     1.0000 0.92524  0.49648  0.73020  Biso   1.000  C
  C502     1.0000 0.00352  0.92524  0.23020  Biso   1.000  C
  C503     1.0000 0.57476  0.00352  0.73020  Biso   1.000  C
  C504     1.0000 0.49648  0.57476  0.23020  Biso   1.000  C
  C505     1.0000 0.57476  0.49648  0.73020  Biso   1.000  C
  C506     1.0000 0.00352  0.57476  0.23020  Biso   1.000  C
  C507     1.0000 0.92524  0.00352  0.73020  Biso   1.000  C
  C508     1.0000 0.49648  0.92524  0.23020  Biso   1.000  C
  C509     1.0000 0.07476  0.50352  0.26980  Biso   1.000  C
  C510     1.0000 0.99648  0.07476  0.76980  Biso   1.000  C
  C511     1.0000 0.42524  0.99648  0.26980  Biso   1.000  C
  C512     1.0000 0.50352  0.42524  0.76980  Biso   1.000  C
  H369     1.0000 0.43130  0.52570  0.28150  Biso   1.000  H
  H370     1.0000 0.97430  0.43130  0.78150  Biso   1.000  H
  H371     1.0000 0.06870  0.97430  0.28150  Biso   1.000  H
  H372     1.0000 0.52570  0.06870  0.78150  Biso   1.000  H
  H373     1.0000 0.93130  0.47430  0.71850  Biso   1.000  H
  H374     1.0000 0.02570  0.93130  0.21850  Biso   1.000  H
  H375     1.0000 0.56870  0.02570  0.71850  Biso   1.000  H
  H376     1.0000 0.47430  0.56870  0.21850  Biso   1.000  H
  H377     1.0000 0.56870  0.47430  0.71850  Biso   1.000  H
  H378     1.0000 0.02570  0.56870  0.21850  Biso   1.000  H
  H379     1.0000 0.93130  0.02570  0.71850  Biso   1.000  H
  H380     1.0000 0.47430  0.93130  0.21850  Biso   1.000  H
  H381     1.0000 0.06870  0.52570  0.28150  Biso   1.000  H
  H382     1.0000 0.97430  0.06870  0.78150  Biso   1.000  H
  H383     1.0000 0.43130  0.97430  0.28150  Biso   1.000  H
  H384     1.0000 0.52570  0.43130  0.78150  Biso   1.000  H
  C513     1.0000 0.39868  0.49809  0.22160  Biso   1.000  C
  C514     1.0000 0.00191  0.39868  0.72160  Biso   1.000  C
  C515     1.0000 0.10132  0.00191  0.22160  Biso   1.000  C
  C516     1.0000 0.49809  0.10132  0.72160  Biso   1.000  C
  C517     1.0000 0.89868  0.50191  0.77840  Biso   1.000  C
  C518     1.0000 0.99809  0.89868  0.27840  Biso   1.000  C
  C519     1.0000 0.60132  0.99809  0.77840  Biso   1.000  C
  C520     1.0000 0.50191  0.60132  0.27840  Biso   1.000  C
  C521     1.0000 0.60132  0.50191  0.77840  Biso   1.000  C
  C522     1.0000 0.99809  0.60132  0.27840  Biso   1.000  C
  C523     1.0000 0.89868  0.99809  0.77840  Biso   1.000  C
  C524     1.0000 0.50191  0.89868  0.27840  Biso   1.000  C
  C525     1.0000 0.10132  0.49809  0.22160  Biso   1.000  C
  C526     1.0000 0.00191  0.10132  0.72160  Biso   1.000  C
  C527     1.0000 0.39868  0.00191  0.22160  Biso   1.000  C
  C528     1.0000 0.49809  0.39868  0.72160  Biso   1.000  C
  C529     1.0000 0.39112  0.46563  0.19970  Biso   1.000  C
  C530     1.0000 0.03437  0.39112  0.69970  Biso   1.000  C
  C531     1.0000 0.10888  0.03437  0.19970  Biso   1.000  C
  C532     1.0000 0.46563  0.10888  0.69970  Biso   1.000  C
  C533     1.0000 0.89112  0.53437  0.80030  Biso   1.000  C
  C534     1.0000 0.96563  0.89112  0.30030  Biso   1.000  C
  C535     1.0000 0.60888  0.96563  0.80030  Biso   1.000  C
  C536     1.0000 0.53437  0.60888  0.30030  Biso   1.000  C
  C537     1.0000 0.60888  0.53437  0.80030  Biso   1.000  C
  C538     1.0000 0.96563  0.60888  0.30030  Biso   1.000  C
  C539     1.0000 0.89112  0.96563  0.80030  Biso   1.000  C
  C540     1.0000 0.53437  0.89112  0.30030  Biso   1.000  C
  C541     1.0000 0.10888  0.46563  0.19970  Biso   1.000  C
  C542     1.0000 0.03437  0.10888  0.69970  Biso   1.000  C
  C543     1.0000 0.39112  0.03437  0.19970  Biso   1.000  C
  C544     1.0000 0.46563  0.39112  0.69970  Biso   1.000  C
  C545     1.0000 0.40866  0.44021  0.23330  Biso   1.000  C
  C546     1.0000 0.05979  0.40866  0.73330  Biso   1.000  C
  C547     1.0000 0.09134  0.05979  0.23330  Biso   1.000  C
  C548     1.0000 0.44021  0.09134  0.73330  Biso   1.000  C
  C549     1.0000 0.90866  0.55979  0.76670  Biso   1.000  C
  C550     1.0000 0.94021  0.90866  0.26670  Biso   1.000  C
  C551     1.0000 0.59134  0.94021  0.76670  Biso   1.000  C
  C552     1.0000 0.55979  0.59134  0.26670  Biso   1.000  C
  C553     1.0000 0.59134  0.55979  0.76670  Biso   1.000  C
  C554     1.0000 0.94021  0.59134  0.26670  Biso   1.000  C
  C555     1.0000 0.90866  0.94021  0.76670  Biso   1.000  C
  C556     1.0000 0.55979  0.90866  0.26670  Biso   1.000  C
  C557     1.0000 0.09134  0.44021  0.23330  Biso   1.000  C
  C558     1.0000 0.05979  0.09134  0.73330  Biso   1.000  C
  C559     1.0000 0.40866  0.05979  0.23330  Biso   1.000  C
  C560     1.0000 0.44021  0.40866  0.73330  Biso   1.000  C
  H385     1.0000 0.40320  0.41810  0.21950  Biso   1.000  H
  H386     1.0000 0.08190  0.40320  0.71950  Biso   1.000  H
  H387     1.0000 0.09680  0.08190  0.21950  Biso   1.000  H
  H388     1.0000 0.41810  0.09680  0.71950  Biso   1.000  H
  H389     1.0000 0.90320  0.58190  0.78050  Biso   1.000  H
  H390     1.0000 0.91810  0.90320  0.28050  Biso   1.000  H
  H391     1.0000 0.59680  0.91810  0.78050  Biso   1.000  H
  H392     1.0000 0.58190  0.59680  0.28050  Biso   1.000  H
  H393     1.0000 0.59680  0.58190  0.78050  Biso   1.000  H
  H394     1.0000 0.91810  0.59680  0.28050  Biso   1.000  H
  H395     1.0000 0.90320  0.91810  0.78050  Biso   1.000  H
  H396     1.0000 0.58190  0.90320  0.28050  Biso   1.000  H
  H397     1.0000 0.09680  0.41810  0.21950  Biso   1.000  H
  H398     1.0000 0.08190  0.09680  0.71950  Biso   1.000  H
  H399     1.0000 0.40320  0.08190  0.21950  Biso   1.000  H
  H400     1.0000 0.41810  0.40320  0.71950  Biso   1.000  H
  C561     1.0000 0.43418  0.44492  0.28660  Biso   1.000  C
  C562     1.0000 0.05508  0.43418  0.78660  Biso   1.000  C
  C563     1.0000 0.06582  0.05508  0.28660  Biso   1.000  C
  C564     1.0000 0.44492  0.06582  0.78660  Biso   1.000  C
  C565     1.0000 0.93418  0.55508  0.71340  Biso   1.000  C
  C566     1.0000 0.94492  0.93418  0.21340  Biso   1.000  C
  C567     1.0000 0.56582  0.94492  0.71340  Biso   1.000  C
  C568     1.0000 0.55508  0.56582  0.21340  Biso   1.000  C
  C569     1.0000 0.56582  0.55508  0.71340  Biso   1.000  C
  C570     1.0000 0.94492  0.56582  0.21340  Biso   1.000  C
  C571     1.0000 0.93418  0.94492  0.71340  Biso   1.000  C
  C572     1.0000 0.55508  0.93418  0.21340  Biso   1.000  C
  C573     1.0000 0.06582  0.44492  0.28660  Biso   1.000  C
  C574     1.0000 0.05508  0.06582  0.78660  Biso   1.000  C
  C575     1.0000 0.43418  0.05508  0.28660  Biso   1.000  C
  C576     1.0000 0.44492  0.43418  0.78660  Biso   1.000  C
  C577     1.0000 0.38265  0.55542  0.22310  Biso   1.000  C
  C578     1.0000 0.94458  0.38265  0.72310  Biso   1.000  C
  C579     1.0000 0.11735  0.94458  0.22310  Biso   1.000  C
  C580     1.0000 0.55542  0.11735  0.72310  Biso   1.000  C
  C581     1.0000 0.88265  0.44458  0.77690  Biso   1.000  C
  C582     1.0000 0.05542  0.88265  0.27690  Biso   1.000  C
  C583     1.0000 0.61735  0.05542  0.77690  Biso   1.000  C
  C584     1.0000 0.44458  0.61735  0.27690  Biso   1.000  C
  C585     1.0000 0.61735  0.44458  0.77690  Biso   1.000  C
  C586     1.0000 0.05542  0.61735  0.27690  Biso   1.000  C
  C587     1.0000 0.88265  0.05542  0.77690  Biso   1.000  C
  C588     1.0000 0.44458  0.88265  0.27690  Biso   1.000  C
  C589     1.0000 0.11735  0.55542  0.22310  Biso   1.000  C
  C590     1.0000 0.94458  0.11735  0.72310  Biso   1.000  C
  C591     1.0000 0.38265  0.94458  0.22310  Biso   1.000  C
  C592     1.0000 0.55542  0.38265  0.72310  Biso   1.000  C
  H401     1.0000 0.36670  0.57030  0.19840  Biso   1.000  H
  H402     1.0000 0.92970  0.36670  0.69840  Biso   1.000  H
  H403     1.0000 0.13330  0.92970  0.19840  Biso   1.000  H
  H404     1.0000 0.57030  0.13330  0.69840  Biso   1.000  H
  H405     1.0000 0.86670  0.42970  0.80160  Biso   1.000  H
  H406     1.0000 0.07030  0.86670  0.30160  Biso   1.000  H
  H407     1.0000 0.63330  0.07030  0.80160  Biso   1.000  H
  H408     1.0000 0.42970  0.63330  0.30160  Biso   1.000  H
  H409     1.0000 0.63330  0.42970  0.80160  Biso   1.000  H
  H410     1.0000 0.07030  0.63330  0.30160  Biso   1.000  H
  H411     1.0000 0.86670  0.07030  0.80160  Biso   1.000  H
  H412     1.0000 0.42970  0.86670  0.30160  Biso   1.000  H
  H413     1.0000 0.13330  0.57030  0.19840  Biso   1.000  H
  H414     1.0000 0.92970  0.13330  0.69840  Biso   1.000  H
  H415     1.0000 0.36670  0.92970  0.19840  Biso   1.000  H
  H416     1.0000 0.57030  0.36670  0.69840  Biso   1.000  H
  H417     1.0000 0.40530  0.56350  0.21380  Biso   1.000  H
  H418     1.0000 0.93650  0.40530  0.71380  Biso   1.000  H
  H419     1.0000 0.09470  0.93650  0.21380  Biso   1.000  H
  H420     1.0000 0.56350  0.09470  0.71380  Biso   1.000  H
  H421     1.0000 0.90530  0.43650  0.78620  Biso   1.000  H
  H422     1.0000 0.06350  0.90530  0.28620  Biso   1.000  H
  H423     1.0000 0.59470  0.06350  0.78620  Biso   1.000  H
  H424     1.0000 0.43650  0.59470  0.28620  Biso   1.000  H
  H425     1.0000 0.59470  0.43650  0.78620  Biso   1.000  H
  H426     1.0000 0.06350  0.59470  0.28620  Biso   1.000  H
  H427     1.0000 0.90530  0.06350  0.78620  Biso   1.000  H
  H428     1.0000 0.43650  0.90530  0.28620  Biso   1.000  H
  H429     1.0000 0.09470  0.56350  0.21380  Biso   1.000  H
  H430     1.0000 0.93650  0.09470  0.71380  Biso   1.000  H
  H431     1.0000 0.40530  0.93650  0.21380  Biso   1.000  H
  H432     1.0000 0.56350  0.40530  0.71380  Biso   1.000  H
  H433     1.0000 0.37840  0.55500  0.27770  Biso   1.000  H
  H434     1.0000 0.94500  0.37840  0.77770  Biso   1.000  H
  H435     1.0000 0.12160  0.94500  0.27770  Biso   1.000  H
  H436     1.0000 0.55500  0.12160  0.77770  Biso   1.000  H
  H437     1.0000 0.87840  0.44500  0.72230  Biso   1.000  H
  H438     1.0000 0.05500  0.87840  0.22230  Biso   1.000  H
  H439     1.0000 0.62160  0.05500  0.72230  Biso   1.000  H
  H440     1.0000 0.44500  0.62160  0.22230  Biso   1.000  H
  H441     1.0000 0.62160  0.44500  0.72230  Biso   1.000  H
  H442     1.0000 0.05500  0.62160  0.22230  Biso   1.000  H
  H443     1.0000 0.87840  0.05500  0.72230  Biso   1.000  H
  H444     1.0000 0.44500  0.87840  0.22230  Biso   1.000  H
  H445     1.0000 0.12160  0.55500  0.27770  Biso   1.000  H
  H446     1.0000 0.94500  0.12160  0.77770  Biso   1.000  H
  H447     1.0000 0.37840  0.94500  0.27770  Biso   1.000  H
  H448     1.0000 0.55500  0.37840  0.77770  Biso   1.000  H
  C593     1.0000 0.36547  0.45794  0.14180  Biso   1.000  C
  C594     1.0000 0.04206  0.36547  0.64180  Biso   1.000  C
  C595     1.0000 0.13453  0.04206  0.14180  Biso   1.000  C
  C596     1.0000 0.45794  0.13453  0.64180  Biso   1.000  C
  C597     1.0000 0.86547  0.54206  0.85820  Biso   1.000  C
  C598     1.0000 0.95794  0.86547  0.35820  Biso   1.000  C
  C599     1.0000 0.63453  0.95794  0.85820  Biso   1.000  C
  C600     1.0000 0.54206  0.63453  0.35820  Biso   1.000  C
  C601     1.0000 0.63453  0.54206  0.85820  Biso   1.000  C
  C602     1.0000 0.95794  0.63453  0.35820  Biso   1.000  C
  C603     1.0000 0.86547  0.95794  0.85820  Biso   1.000  C
  C604     1.0000 0.54206  0.86547  0.35820  Biso   1.000  C
  C605     1.0000 0.13453  0.45794  0.14180  Biso   1.000  C
  C606     1.0000 0.04206  0.13453  0.64180  Biso   1.000  C
  C607     1.0000 0.36547  0.04206  0.14180  Biso   1.000  C
  C608     1.0000 0.45794  0.36547  0.64180  Biso   1.000  C
  C609     1.0000 0.34615  0.42936  0.14860  Biso   1.000  C
  C610     1.0000 0.07064  0.34615  0.64860  Biso   1.000  C
  C611     1.0000 0.15385  0.07064  0.14860  Biso   1.000  C
  C612     1.0000 0.42936  0.15385  0.64860  Biso   1.000  C
  C613     1.0000 0.84615  0.57064  0.85140  Biso   1.000  C
  C614     1.0000 0.92936  0.84615  0.35140  Biso   1.000  C
  C615     1.0000 0.65385  0.92936  0.85140  Biso   1.000  C
  C616     1.0000 0.57064  0.65385  0.35140  Biso   1.000  C
  C617     1.0000 0.65385  0.57064  0.85140  Biso   1.000  C
  C618     1.0000 0.92936  0.65385  0.35140  Biso   1.000  C
  C619     1.0000 0.84615  0.92936  0.85140  Biso   1.000  C
  C620     1.0000 0.57064  0.84615  0.35140  Biso   1.000  C
  C621     1.0000 0.15385  0.42936  0.14860  Biso   1.000  C
  C622     1.0000 0.07064  0.15385  0.64860  Biso   1.000  C
  C623     1.0000 0.34615  0.07064  0.14860  Biso   1.000  C
  C624     1.0000 0.42936  0.34615  0.64860  Biso   1.000  C
  H449     1.0000 0.34830  0.41570  0.19220  Biso   1.000  H
  H450     1.0000 0.08430  0.34830  0.69220  Biso   1.000  H
  H451     1.0000 0.15170  0.08430  0.19220  Biso   1.000  H
  H452     1.0000 0.41570  0.15170  0.69220  Biso   1.000  H
  H453     1.0000 0.84830  0.58430  0.80780  Biso   1.000  H
  H454     1.0000 0.91570  0.84830  0.30780  Biso   1.000  H
  H455     1.0000 0.65170  0.91570  0.80780  Biso   1.000  H
  H456     1.0000 0.58430  0.65170  0.30780  Biso   1.000  H
  H457     1.0000 0.65170  0.58430  0.80780  Biso   1.000  H
  H458     1.0000 0.91570  0.65170  0.30780  Biso   1.000  H
  H459     1.0000 0.84830  0.91570  0.80780  Biso   1.000  H
  H460     1.0000 0.58430  0.84830  0.30780  Biso   1.000  H
  H461     1.0000 0.15170  0.41570  0.19220  Biso   1.000  H
  H462     1.0000 0.08430  0.15170  0.69220  Biso   1.000  H
  H463     1.0000 0.34830  0.08430  0.19220  Biso   1.000  H
  H464     1.0000 0.41570  0.34830  0.69220  Biso   1.000  H
  C625     1.0000 0.32357  0.42057  0.09140  Biso   1.000  C
  C626     1.0000 0.07943  0.32357  0.59140  Biso   1.000  C
  C627     1.0000 0.17643  0.07943  0.09140  Biso   1.000  C
  C628     1.0000 0.42057  0.17643  0.59140  Biso   1.000  C
  C629     1.0000 0.82357  0.57943  0.90860  Biso   1.000  C
  C630     1.0000 0.92057  0.82357  0.40860  Biso   1.000  C
  C631     1.0000 0.67643  0.92057  0.90860  Biso   1.000  C
  C632     1.0000 0.57943  0.67643  0.40860  Biso   1.000  C
  C633     1.0000 0.67643  0.57943  0.90860  Biso   1.000  C
  C634     1.0000 0.92057  0.67643  0.40860  Biso   1.000  C
  C635     1.0000 0.82357  0.92057  0.90860  Biso   1.000  C
  C636     1.0000 0.57943  0.82357  0.40860  Biso   1.000  C
  C637     1.0000 0.17643  0.42057  0.09140  Biso   1.000  C
  C638     1.0000 0.07943  0.17643  0.59140  Biso   1.000  C
  C639     1.0000 0.32357  0.07943  0.09140  Biso   1.000  C
  C640     1.0000 0.42057  0.32357  0.59140  Biso   1.000  C
  H465     1.0000 0.31110  0.40060  0.09530  Biso   1.000  H
  H466     1.0000 0.09940  0.31110  0.59530  Biso   1.000  H
  H467     1.0000 0.18890  0.09940  0.09530  Biso   1.000  H
  H468     1.0000 0.40060  0.18890  0.59530  Biso   1.000  H
  H469     1.0000 0.81110  0.59940  0.90470  Biso   1.000  H
  H470     1.0000 0.90060  0.81110  0.40470  Biso   1.000  H
  H471     1.0000 0.68890  0.90060  0.90470  Biso   1.000  H
  H472     1.0000 0.59940  0.68890  0.40470  Biso   1.000  H
  H473     1.0000 0.68890  0.59940  0.90470  Biso   1.000  H
  H474     1.0000 0.90060  0.68890  0.40470  Biso   1.000  H
  H475     1.0000 0.81110  0.90060  0.90470  Biso   1.000  H
  H476     1.0000 0.59940  0.81110  0.40470  Biso   1.000  H
  H477     1.0000 0.18890  0.40060  0.09530  Biso   1.000  H
  H478     1.0000 0.09940  0.18890  0.59530  Biso   1.000  H
  H479     1.0000 0.31110  0.09940  0.09530  Biso   1.000  H
  H480     1.0000 0.40060  0.31110  0.59530  Biso   1.000  H
  C641     1.0000 0.31963  0.44134  0.02880  Biso   1.000  C
  C642     1.0000 0.05866  0.31963  0.52880  Biso   1.000  C
  C643     1.0000 0.18037  0.05866  0.02880  Biso   1.000  C
  C644     1.0000 0.44134  0.18037  0.52880  Biso   1.000  C
  C645     1.0000 0.81963  0.55866  0.97120  Biso   1.000  C
  C646     1.0000 0.94134  0.81963  0.47120  Biso   1.000  C
  C647     1.0000 0.68037  0.94134  0.97120  Biso   1.000  C
  C648     1.0000 0.55866  0.68037  0.47120  Biso   1.000  C
  C649     1.0000 0.68037  0.55866  0.97120  Biso   1.000  C
  C650     1.0000 0.94134  0.68037  0.47120  Biso   1.000  C
  C651     1.0000 0.81963  0.94134  0.97120  Biso   1.000  C
  C652     1.0000 0.55866  0.81963  0.47120  Biso   1.000  C
  C653     1.0000 0.18037  0.44134  0.02880  Biso   1.000  C
  C654     1.0000 0.05866  0.18037  0.52880  Biso   1.000  C
  C655     1.0000 0.31963  0.05866  0.02880  Biso   1.000  C
  C656     1.0000 0.44134  0.31963  0.52880  Biso   1.000  C
  C657     1.0000 0.33812  0.46993  0.02290  Biso   1.000  C
  C658     1.0000 0.03007  0.33812  0.52290  Biso   1.000  C
  C659     1.0000 0.16188  0.03007  0.02290  Biso   1.000  C
  C660     1.0000 0.46993  0.16188  0.52290  Biso   1.000  C
  C661     1.0000 0.83812  0.53007  0.97710  Biso   1.000  C
  C662     1.0000 0.96993  0.83812  0.47710  Biso   1.000  C
  C663     1.0000 0.66188  0.96993  0.97710  Biso   1.000  C
  C664     1.0000 0.53007  0.66188  0.47710  Biso   1.000  C
  C665     1.0000 0.66188  0.53007  0.97710  Biso   1.000  C
  C666     1.0000 0.96993  0.66188  0.47710  Biso   1.000  C
  C667     1.0000 0.83812  0.96993  0.97710  Biso   1.000  C
  C668     1.0000 0.53007  0.83812  0.47710  Biso   1.000  C
  C669     1.0000 0.16188  0.46993  0.02290  Biso   1.000  C
  C670     1.0000 0.03007  0.16188  0.52290  Biso   1.000  C
  C671     1.0000 0.33812  0.03007  0.02290  Biso   1.000  C
  C672     1.0000 0.46993  0.33812  0.52290  Biso   1.000  C
  H481     1.0000 0.33520  0.48410  0.98050  Biso   1.000  H
  H482     1.0000 0.01590  0.33520  0.48050  Biso   1.000  H
  H483     1.0000 0.16480  0.01590  0.98050  Biso   1.000  H
  H484     1.0000 0.48410  0.16480  0.48050  Biso   1.000  H
  H485     1.0000 0.83520  0.51590  0.01950  Biso   1.000  H
  H486     1.0000 0.98410  0.83520  0.51950  Biso   1.000  H
  H487     1.0000 0.66480  0.98410  0.01950  Biso   1.000  H
  H488     1.0000 0.51590  0.66480  0.51950  Biso   1.000  H
  H489     1.0000 0.66480  0.51590  0.01950  Biso   1.000  H
  H490     1.0000 0.98410  0.66480  0.51950  Biso   1.000  H
  H491     1.0000 0.83520  0.98410  0.01950  Biso   1.000  H
  H492     1.0000 0.51590  0.83520  0.51950  Biso   1.000  H
  H493     1.0000 0.16480  0.48410  0.98050  Biso   1.000  H
  H494     1.0000 0.01590  0.16480  0.48050  Biso   1.000  H
  H495     1.0000 0.33520  0.01590  0.98050  Biso   1.000  H
  H496     1.0000 0.48410  0.33520  0.48050  Biso   1.000  H
  C673     1.0000 0.36104  0.47820  0.07870  Biso   1.000  C
  C674     1.0000 0.02180  0.36104  0.57870  Biso   1.000  C
  C675     1.0000 0.13896  0.02180  0.07870  Biso   1.000  C
  C676     1.0000 0.47820  0.13896  0.57870  Biso   1.000  C
  C677     1.0000 0.86104  0.52180  0.92130  Biso   1.000  C
  C678     1.0000 0.97820  0.86104  0.42130  Biso   1.000  C
  C679     1.0000 0.63896  0.97820  0.92130  Biso   1.000  C
  C680     1.0000 0.52180  0.63896  0.42130  Biso   1.000  C
  C681     1.0000 0.63896  0.52180  0.92130  Biso   1.000  C
  C682     1.0000 0.97820  0.63896  0.42130  Biso   1.000  C
  C683     1.0000 0.86104  0.97820  0.92130  Biso   1.000  C
  C684     1.0000 0.52180  0.86104  0.42130  Biso   1.000  C
  C685     1.0000 0.13896  0.47820  0.07870  Biso   1.000  C
  C686     1.0000 0.02180  0.13896  0.57870  Biso   1.000  C
  C687     1.0000 0.36104  0.02180  0.07870  Biso   1.000  C
  C688     1.0000 0.47820  0.36104  0.57870  Biso   1.000  C
  H497     1.0000 0.37380  0.49790  0.07380  Biso   1.000  H
  H498     1.0000 0.00210  0.37380  0.57380  Biso   1.000  H
  H499     1.0000 0.12620  0.00210  0.07380  Biso   1.000  H
  H500     1.0000 0.49790  0.12620  0.57380  Biso   1.000  H
  H501     1.0000 0.87380  0.50210  0.92620  Biso   1.000  H
  H502     1.0000 0.99790  0.87380  0.42620  Biso   1.000  H
  H503     1.0000 0.62620  0.99790  0.92620  Biso   1.000  H
  H504     1.0000 0.50210  0.62620  0.42620  Biso   1.000  H
  H505     1.0000 0.62620  0.50210  0.92620  Biso   1.000  H
  H506     1.0000 0.99790  0.62620  0.42620  Biso   1.000  H
  H507     1.0000 0.87380  0.99790  0.92620  Biso   1.000  H
  H508     1.0000 0.50210  0.87380  0.42620  Biso   1.000  H
  H509     1.0000 0.12620  0.49790  0.07380  Biso   1.000  H
  H510     1.0000 0.00210  0.12620  0.57380  Biso   1.000  H
  H511     1.0000 0.37380  0.00210  0.07380  Biso   1.000  H
  H512     1.0000 0.49790  0.37380  0.57380  Biso   1.000  H
  C689     1.0000 0.29390  0.43334  0.96970  Biso   1.000  C
  C690     1.0000 0.06666  0.29390  0.46970  Biso   1.000  C
  C691     1.0000 0.20610  0.06666  0.96970  Biso   1.000  C
  C692     1.0000 0.43334  0.20610  0.46970  Biso   1.000  C
  C693     1.0000 0.79390  0.56666  0.03030  Biso   1.000  C
  C694     1.0000 0.93334  0.79390  0.53030  Biso   1.000  C
  C695     1.0000 0.70610  0.93334  0.03030  Biso   1.000  C
  C696     1.0000 0.56666  0.70610  0.53030  Biso   1.000  C
  C697     1.0000 0.70610  0.56666  0.03030  Biso   1.000  C
  C698     1.0000 0.93334  0.70610  0.53030  Biso   1.000  C
  C699     1.0000 0.79390  0.93334  0.03030  Biso   1.000  C
  C700     1.0000 0.56666  0.79390  0.53030  Biso   1.000  C
  C701     1.0000 0.20610  0.43334  0.96970  Biso   1.000  C
  C702     1.0000 0.06666  0.20610  0.46970  Biso   1.000  C
  C703     1.0000 0.29390  0.06666  0.96970  Biso   1.000  C
  C704     1.0000 0.43334  0.29390  0.46970  Biso   1.000  C
  C705     1.0000 0.44852  0.41446  0.32620  Biso   1.000  C
  C706     1.0000 0.08554  0.44852  0.82620  Biso   1.000  C
  C707     1.0000 0.05148  0.08554  0.32620  Biso   1.000  C
  C708     1.0000 0.41446  0.05148  0.82620  Biso   1.000  C
  C709     1.0000 0.94852  0.58554  0.67380  Biso   1.000  C
  C710     1.0000 0.91446  0.94852  0.17380  Biso   1.000  C
  C711     1.0000 0.55148  0.91446  0.67380  Biso   1.000  C
  C712     1.0000 0.58554  0.55148  0.17380  Biso   1.000  C
  C713     1.0000 0.55148  0.58554  0.67380  Biso   1.000  C
  C714     1.0000 0.91446  0.55148  0.17380  Biso   1.000  C
  C715     1.0000 0.94852  0.91446  0.67380  Biso   1.000  C
  C716     1.0000 0.58554  0.94852  0.17380  Biso   1.000  C
  C717     1.0000 0.05148  0.41446  0.32620  Biso   1.000  C
  C718     1.0000 0.08554  0.05148  0.82620  Biso   1.000  C
  C719     1.0000 0.44852  0.08554  0.32620  Biso   1.000  C
  C720     1.0000 0.41446  0.44852  0.82620  Biso   1.000  C
  H513     1.0000 0.47190  0.41870  0.34070  Biso   1.000  H
  H514     1.0000 0.08130  0.47190  0.84070  Biso   1.000  H
  H515     1.0000 0.02810  0.08130  0.34070  Biso   1.000  H
  H516     1.0000 0.41870  0.02810  0.84070  Biso   1.000  H
  H517     1.0000 0.97190  0.58130  0.65930  Biso   1.000  H
  H518     1.0000 0.91870  0.97190  0.15930  Biso   1.000  H
  H519     1.0000 0.52810  0.91870  0.65930  Biso   1.000  H
  H520     1.0000 0.58130  0.52810  0.15930  Biso   1.000  H
  H521     1.0000 0.52810  0.58130  0.65930  Biso   1.000  H
  H522     1.0000 0.91870  0.52810  0.15930  Biso   1.000  H
  H523     1.0000 0.97190  0.91870  0.65930  Biso   1.000  H
  H524     1.0000 0.58130  0.97190  0.15930  Biso   1.000  H
  H525     1.0000 0.02810  0.41870  0.34070  Biso   1.000  H
  H526     1.0000 0.08130  0.02810  0.84070  Biso   1.000  H
  H527     1.0000 0.47190  0.08130  0.34070  Biso   1.000  H
  H528     1.0000 0.41870  0.47190  0.84070  Biso   1.000  H
  H529     1.0000 0.44800  0.39510  0.29160  Biso   1.000  H
  H530     1.0000 0.10490  0.44800  0.79160  Biso   1.000  H
  H531     1.0000 0.05200  0.10490  0.29160  Biso   1.000  H
  H532     1.0000 0.39510  0.05200  0.79160  Biso   1.000  H
  H533     1.0000 0.94800  0.60490  0.70840  Biso   1.000  H
  H534     1.0000 0.89510  0.94800  0.20840  Biso   1.000  H
  H535     1.0000 0.55200  0.89510  0.70840  Biso   1.000  H
  H536     1.0000 0.60490  0.55200  0.20840  Biso   1.000  H
  H537     1.0000 0.55200  0.60490  0.70840  Biso   1.000  H
  H538     1.0000 0.89510  0.55200  0.20840  Biso   1.000  H
  H539     1.0000 0.94800  0.89510  0.70840  Biso   1.000  H
  H540     1.0000 0.60490  0.94800  0.20840  Biso   1.000  H
  H541     1.0000 0.05200  0.39510  0.29160  Biso   1.000  H
  H542     1.0000 0.10490  0.05200  0.79160  Biso   1.000  H
  H543     1.0000 0.44800  0.10490  0.29160  Biso   1.000  H
  H544     1.0000 0.39510  0.44800  0.79160  Biso   1.000  H
  O153     1.0000 0.25000  0.33859  0.91330  Biso   1.000  O
  O154     1.0000 0.16141  0.25000  0.41330  Biso   1.000  O
  O155     1.0000 0.25000  0.16141  0.91330  Biso   1.000  O
  O156     1.0000 0.33859  0.25000  0.41330  Biso   1.000  O
  O157     1.0000 0.75000  0.66141  0.08670  Biso   1.000  O
  O158     1.0000 0.83859  0.75000  0.58670  Biso   1.000  O
  O159     1.0000 0.75000  0.83859  0.08670  Biso   1.000  O
  O160     1.0000 0.66141  0.75000  0.58670  Biso   1.000  O
  C721     1.0000 0.23460  0.17050  0.98690  Biso   1.000  C
  C722     1.0000 0.32950  0.23460  0.48690  Biso   1.000  C
  C723     1.0000 0.26540  0.32950  0.98690  Biso   1.000  C
  C724     1.0000 0.17050  0.26540  0.48690  Biso   1.000  C
  C725     1.0000 0.73460  0.82950  0.01310  Biso   1.000  C
  C726     1.0000 0.67050  0.73460  0.51310  Biso   1.000  C
  C727     1.0000 0.76540  0.67050  0.01310  Biso   1.000  C
  C728     1.0000 0.82950  0.76540  0.51310  Biso   1.000  C
  C729     1.0000 0.76540  0.82950  0.01310  Biso   1.000  C
  C730     1.0000 0.67050  0.76540  0.51310  Biso   1.000  C
  C731     1.0000 0.73460  0.67050  0.01310  Biso   1.000  C
  C732     1.0000 0.82950  0.73460  0.51310  Biso   1.000  C
  C733     1.0000 0.26540  0.17050  0.98690  Biso   1.000  C
  C734     1.0000 0.32950  0.26540  0.48690  Biso   1.000  C
  C735     1.0000 0.23460  0.32950  0.98690  Biso   1.000  C
  C736     1.0000 0.17050  0.23460  0.48690  Biso   1.000  C
  H545     1.0000 0.22020  0.15130  0.99910  Biso   1.000  H
  H546     1.0000 0.34870  0.22020  0.49910  Biso   1.000  H
  H547     1.0000 0.27980  0.34870  0.99910  Biso   1.000  H
  H548     1.0000 0.15130  0.27980  0.49910  Biso   1.000  H
  H549     1.0000 0.72020  0.84870  0.00090  Biso   1.000  H
  H550     1.0000 0.65130  0.72020  0.50090  Biso   1.000  H
  H551     1.0000 0.77980  0.65130  0.00090  Biso   1.000  H
  H552     1.0000 0.84870  0.77980  0.50090  Biso   1.000  H
  H553     1.0000 0.77980  0.84870  0.00090  Biso   1.000  H
  H554     1.0000 0.65130  0.77980  0.50090  Biso   1.000  H
  H555     1.0000 0.72020  0.65130  0.00090  Biso   1.000  H
  H556     1.0000 0.84870  0.72020  0.50090  Biso   1.000  H
  H557     1.0000 0.27980  0.15130  0.99910  Biso   1.000  H
  H558     1.0000 0.34870  0.27980  0.49910  Biso   1.000  H
  H559     1.0000 0.22020  0.34870  0.99910  Biso   1.000  H
  H560     1.0000 0.15130  0.22020  0.49910  Biso   1.000  H
  H561     1.0000 0.25320  0.16940  0.02350  Biso   1.000  H
  H562     1.0000 0.33060  0.25320  0.52350  Biso   1.000  H
  H563     1.0000 0.24680  0.33060  0.02350  Biso   1.000  H
  H564     1.0000 0.16940  0.24680  0.52350  Biso   1.000  H
  H565     1.0000 0.75320  0.83060  0.97650  Biso   1.000  H
  H566     1.0000 0.66940  0.75320  0.47650  Biso   1.000  H
  H567     1.0000 0.74680  0.66940  0.97650  Biso   1.000  H
  H568     1.0000 0.83060  0.74680  0.47650  Biso   1.000  H
  H569     1.0000 0.74680  0.83060  0.97650  Biso   1.000  H
  H570     1.0000 0.66940  0.74680  0.47650  Biso   1.000  H
  H571     1.0000 0.75320  0.66940  0.97650  Biso   1.000  H
  H572     1.0000 0.83060  0.75320  0.47650  Biso   1.000  H
  H573     1.0000 0.24680  0.16940  0.02350  Biso   1.000  H
  H574     1.0000 0.33060  0.24680  0.52350  Biso   1.000  H
  H575     1.0000 0.25320  0.33060  0.02350  Biso   1.000  H
  H576     1.0000 0.16940  0.25320  0.52350  Biso   1.000  H
  C737     1.0000 0.21710  0.19660  0.00900  Biso   1.000  C
  C738     1.0000 0.30340  0.21710  0.50900  Biso   1.000  C
  C739     1.0000 0.28290  0.30340  0.00900  Biso   1.000  C
  C740     1.0000 0.19660  0.28290  0.50900  Biso   1.000  C
  C741     1.0000 0.71710  0.80340  0.99100  Biso   1.000  C
  C742     1.0000 0.69660  0.71710  0.49100  Biso   1.000  C
  C743     1.0000 0.78290  0.69660  0.99100  Biso   1.000  C
  C744     1.0000 0.80340  0.78290  0.49100  Biso   1.000  C
  C745     1.0000 0.78290  0.80340  0.99100  Biso   1.000  C
  C746     1.0000 0.69660  0.78290  0.49100  Biso   1.000  C
  C747     1.0000 0.71710  0.69660  0.99100  Biso   1.000  C
  C748     1.0000 0.80340  0.71710  0.49100  Biso   1.000  C
  C749     1.0000 0.28290  0.19660  0.00900  Biso   1.000  C
  C750     1.0000 0.30340  0.28290  0.50900  Biso   1.000  C
  C751     1.0000 0.21710  0.30340  0.00900  Biso   1.000  C
  C752     1.0000 0.19660  0.21710  0.50900  Biso   1.000  C
  H577     1.0000 0.21610  0.19730  0.06410  Biso   1.000  H
  H578     1.0000 0.30270  0.21610  0.56410  Biso   1.000  H
  H579     1.0000 0.28390  0.30270  0.06410  Biso   1.000  H
  H580     1.0000 0.19730  0.28390  0.56410  Biso   1.000  H
  H581     1.0000 0.71610  0.80270  0.93590  Biso   1.000  H
  H582     1.0000 0.69730  0.71610  0.43590  Biso   1.000  H
  H583     1.0000 0.78390  0.69730  0.93590  Biso   1.000  H
  H584     1.0000 0.80270  0.78390  0.43590  Biso   1.000  H
  H585     1.0000 0.78390  0.80270  0.93590  Biso   1.000  H
  H586     1.0000 0.69730  0.78390  0.43590  Biso   1.000  H
  H587     1.0000 0.71610  0.69730  0.93590  Biso   1.000  H
  H588     1.0000 0.80270  0.71610  0.43590  Biso   1.000  H
  H589     1.0000 0.28390  0.19730  0.06410  Biso   1.000  H
  H590     1.0000 0.30270  0.28390  0.56410  Biso   1.000  H
  H591     1.0000 0.21610  0.30270  0.06410  Biso   1.000  H
  H592     1.0000 0.19730  0.21610  0.56410  Biso   1.000  H
  H593     1.0000 0.19460  0.19510  0.98810  Biso   1.000  H
  H594     1.0000 0.30490  0.19460  0.48810  Biso   1.000  H
  H595     1.0000 0.30540  0.30490  0.98810  Biso   1.000  H
  H596     1.0000 0.19510  0.30540  0.48810  Biso   1.000  H
  H597     1.0000 0.69460  0.80490  0.01190  Biso   1.000  H
  H598     1.0000 0.69510  0.69460  0.51190  Biso   1.000  H
  H599     1.0000 0.80540  0.69510  0.01190  Biso   1.000  H
  H600     1.0000 0.80490  0.80540  0.51190  Biso   1.000  H
  H601     1.0000 0.80540  0.80490  0.01190  Biso   1.000  H
  H602     1.0000 0.69510  0.80540  0.51190  Biso   1.000  H
  H603     1.0000 0.69460  0.69510  0.01190  Biso   1.000  H
  H604     1.0000 0.80490  0.69460  0.51190  Biso   1.000  H
  H605     1.0000 0.30540  0.19510  0.98810  Biso   1.000  H
  H606     1.0000 0.30490  0.30540  0.48810  Biso   1.000  H
  H607     1.0000 0.19460  0.30490  0.98810  Biso   1.000  H
  H608     1.0000 0.19510  0.19460  0.48810  Biso   1.000  H
  H609     1.0000 0.22780  0.21690  0.99000  Biso   1.000  H
  H610     1.0000 0.28310  0.22780  0.49000  Biso   1.000  H
  H611     1.0000 0.27220  0.28310  0.99000  Biso   1.000  H
  H612     1.0000 0.21690  0.27220  0.49000  Biso   1.000  H
  H613     1.0000 0.72780  0.78310  0.01000  Biso   1.000  H
  H614     1.0000 0.71690  0.72780  0.51000  Biso   1.000  H
  H615     1.0000 0.77220  0.71690  0.01000  Biso   1.000  H
  H616     1.0000 0.78310  0.77220  0.51000  Biso   1.000  H
  H617     1.0000 0.77220  0.78310  0.01000  Biso   1.000  H
  H618     1.0000 0.71690  0.77220  0.51000  Biso   1.000  H
  H619     1.0000 0.72780  0.71690  0.01000  Biso   1.000  H
  H620     1.0000 0.78310  0.72780  0.51000  Biso   1.000  H
  H621     1.0000 0.27220  0.21690  0.99000  Biso   1.000  H
  H622     1.0000 0.28310  0.27220  0.49000  Biso   1.000  H
  H623     1.0000 0.22780  0.28310  0.99000  Biso   1.000  H
  H624     1.0000 0.21690  0.22780  0.49000  Biso   1.000  H
  C753     1.0000 0.25000  0.18560  0.86000  Biso   1.000  C
  C754     1.0000 0.31440  0.25000  0.36000  Biso   1.000  C
  C755     1.0000 0.25000  0.31440  0.86000  Biso   1.000  C
  C756     1.0000 0.18560  0.25000  0.36000  Biso   1.000  C
  C757     1.0000 0.75000  0.81440  0.14000  Biso   1.000  C
  C758     1.0000 0.68560  0.75000  0.64000  Biso   1.000  C
  C759     1.0000 0.75000  0.68560  0.14000  Biso   1.000  C
  C760     1.0000 0.81440  0.75000  0.64000  Biso   1.000  C
  C761     1.0000 0.23180  0.20150  0.79300  Biso   1.000  C
  C762     1.0000 0.29850  0.23180  0.29300  Biso   1.000  C
  C763     1.0000 0.26820  0.29850  0.79300  Biso   1.000  C
  C764     1.0000 0.20150  0.26820  0.29300  Biso   1.000  C
  C765     1.0000 0.73180  0.79850  0.20700  Biso   1.000  C
  C766     1.0000 0.70150  0.73180  0.70700  Biso   1.000  C
  C767     1.0000 0.76820  0.70150  0.20700  Biso   1.000  C
  C768     1.0000 0.79850  0.76820  0.70700  Biso   1.000  C
  C769     1.0000 0.76820  0.79850  0.20700  Biso   1.000  C
  C770     1.0000 0.70150  0.76820  0.70700  Biso   1.000  C
  C771     1.0000 0.73180  0.70150  0.20700  Biso   1.000  C
  C772     1.0000 0.79850  0.73180  0.70700  Biso   1.000  C
  C773     1.0000 0.26820  0.20150  0.79300  Biso   1.000  C
  C774     1.0000 0.29850  0.26820  0.29300  Biso   1.000  C
  C775     1.0000 0.23180  0.29850  0.79300  Biso   1.000  C
  C776     1.0000 0.20150  0.23180  0.29300  Biso   1.000  C
  H625     1.0000 0.20780  0.19920  0.80080  Biso   1.000  H
  H626     1.0000 0.30080  0.20780  0.30080  Biso   1.000  H
  H627     1.0000 0.29220  0.30080  0.80080  Biso   1.000  H
  H628     1.0000 0.19920  0.29220  0.30080  Biso   1.000  H
  H629     1.0000 0.70780  0.80080  0.19920  Biso   1.000  H
  H630     1.0000 0.69920  0.70780  0.69920  Biso   1.000  H
  H631     1.0000 0.79220  0.69920  0.19920  Biso   1.000  H
  H632     1.0000 0.80080  0.79220  0.69920  Biso   1.000  H
  H633     1.0000 0.79220  0.80080  0.19920  Biso   1.000  H
  H634     1.0000 0.69920  0.79220  0.69920  Biso   1.000  H
  H635     1.0000 0.70780  0.69920  0.19920  Biso   1.000  H
  H636     1.0000 0.80080  0.70780  0.69920  Biso   1.000  H
  H637     1.0000 0.29220  0.19920  0.80080  Biso   1.000  H
  H638     1.0000 0.30080  0.29220  0.30080  Biso   1.000  H
  H639     1.0000 0.20780  0.30080  0.80080  Biso   1.000  H
  H640     1.0000 0.19920  0.20780  0.30080  Biso   1.000  H
  H641     1.0000 0.23830  0.19040  0.74630  Biso   1.000  H
  H642     1.0000 0.30960  0.23830  0.24630  Biso   1.000  H
  H643     1.0000 0.26170  0.30960  0.74630  Biso   1.000  H
  H644     1.0000 0.19040  0.26170  0.24630  Biso   1.000  H
  H645     1.0000 0.73830  0.80960  0.25370  Biso   1.000  H
  H646     1.0000 0.69040  0.73830  0.75370  Biso   1.000  H
  H647     1.0000 0.76170  0.69040  0.25370  Biso   1.000  H
  H648     1.0000 0.80960  0.76170  0.75370  Biso   1.000  H
  H649     1.0000 0.76170  0.80960  0.25370  Biso   1.000  H
  H650     1.0000 0.69040  0.76170  0.75370  Biso   1.000  H
  H651     1.0000 0.73830  0.69040  0.25370  Biso   1.000  H
  H652     1.0000 0.80960  0.73830  0.75370  Biso   1.000  H
  H653     1.0000 0.26170  0.19040  0.74630  Biso   1.000  H
  H654     1.0000 0.30960  0.26170  0.24630  Biso   1.000  H
  H655     1.0000 0.23830  0.30960  0.74630  Biso   1.000  H
  H656     1.0000 0.19040  0.23830  0.24630  Biso   1.000  H
  H657     1.0000 0.23770  0.22510  0.79060  Biso   1.000  H
  H658     1.0000 0.27490  0.23770  0.29060  Biso   1.000  H
  H659     1.0000 0.26230  0.27490  0.79060  Biso   1.000  H
  H660     1.0000 0.22510  0.26230  0.29060  Biso   1.000  H
  H661     1.0000 0.73770  0.77490  0.20940  Biso   1.000  H
  H662     1.0000 0.72510  0.73770  0.70940  Biso   1.000  H
  H663     1.0000 0.76230  0.72510  0.20940  Biso   1.000  H
  H664     1.0000 0.77490  0.76230  0.70940  Biso   1.000  H
  H665     1.0000 0.76230  0.77490  0.20940  Biso   1.000  H
  H666     1.0000 0.72510  0.76230  0.70940  Biso   1.000  H
  H667     1.0000 0.73770  0.72510  0.20940  Biso   1.000  H
  H668     1.0000 0.77490  0.73770  0.70940  Biso   1.000  H
  H669     1.0000 0.26230  0.22510  0.79060  Biso   1.000  H
  H670     1.0000 0.27490  0.26230  0.29060  Biso   1.000  H
  H671     1.0000 0.23770  0.27490  0.79060  Biso   1.000  H
  H672     1.0000 0.22510  0.23770  0.29060  Biso   1.000  H
  O161     1.0000 0.38370  0.75000  0.38740  Biso   1.000  O
  O162     1.0000 0.75000  0.38370  0.88740  Biso   1.000  O
  O163     1.0000 0.11630  0.75000  0.38740  Biso   1.000  O
  O164     1.0000 0.75000  0.11630  0.88740  Biso   1.000  O
  O165     1.0000 0.88370  0.25000  0.61260  Biso   1.000  O
  O166     1.0000 0.25000  0.88370  0.11260  Biso   1.000  O
  O167     1.0000 0.61630  0.25000  0.61260  Biso   1.000  O
  O168     1.0000 0.25000  0.61630  0.11260  Biso   1.000  O
  H673     1.0000 0.37160  0.73300  0.39530  Biso   1.000  H
  H674     1.0000 0.76700  0.37160  0.89530  Biso   1.000  H
  H675     1.0000 0.12840  0.76700  0.39530  Biso   1.000  H
  H676     1.0000 0.73300  0.12840  0.89530  Biso   1.000  H
  H677     1.0000 0.87160  0.26700  0.60470  Biso   1.000  H
  H678     1.0000 0.23300  0.87160  0.10470  Biso   1.000  H
  H679     1.0000 0.62840  0.23300  0.60470  Biso   1.000  H
  H680     1.0000 0.26700  0.62840  0.10470  Biso   1.000  H
  H681     1.0000 0.62840  0.26700  0.60470  Biso   1.000  H
  H682     1.0000 0.23300  0.62840  0.10470  Biso   1.000  H
  H683     1.0000 0.87160  0.23300  0.60470  Biso   1.000  H
  H684     1.0000 0.26700  0.87160  0.10470  Biso   1.000  H
  H685     1.0000 0.12840  0.73300  0.39530  Biso   1.000  H
  H686     1.0000 0.76700  0.12840  0.89530  Biso   1.000  H
  H687     1.0000 0.37160  0.76700  0.39530  Biso   1.000  H
  H688     1.0000 0.73300  0.37160  0.89530  Biso   1.000  H
  N1       1.0000 0.46010  0.75910  0.42800  Biso   1.000  N
  N2       1.0000 0.74090  0.46010  0.92800  Biso   1.000  N
  N3       1.0000 0.03990  0.74090  0.42800  Biso   1.000  N
  N4       1.0000 0.75910  0.03990  0.92800  Biso   1.000  N
  N5       1.0000 0.96010  0.24090  0.57200  Biso   1.000  N
  N6       1.0000 0.25910  0.96010  0.07200  Biso   1.000  N
  N7       1.0000 0.53990  0.25910  0.57200  Biso   1.000  N
  N8       1.0000 0.24090  0.53990  0.07200  Biso   1.000  N
  N9       1.0000 0.53990  0.24090  0.57200  Biso   1.000  N
  N10      1.0000 0.25910  0.53990  0.07200  Biso   1.000  N
  N11      1.0000 0.96010  0.25910  0.57200  Biso   1.000  N
  N12      1.0000 0.24090  0.96010  0.07200  Biso   1.000  N
  N13      1.0000 0.03990  0.75910  0.42800  Biso   1.000  N
  N14      1.0000 0.74090  0.03990  0.92800  Biso   1.000  N
  N15      1.0000 0.46010  0.74090  0.42800  Biso   1.000  N
  N16      1.0000 0.75910  0.46010  0.92800  Biso   1.000  N
  C777     1.0000 0.48790  0.74250  0.43140  Biso   1.000  C
  C778     1.0000 0.75750  0.48790  0.93140  Biso   1.000  C
  C779     1.0000 0.01210  0.75750  0.43140  Biso   1.000  C
  C780     1.0000 0.74250  0.01210  0.93140  Biso   1.000  C
  C781     1.0000 0.98790  0.25750  0.56860  Biso   1.000  C
  C782     1.0000 0.24250  0.98790  0.06860  Biso   1.000  C
  C783     1.0000 0.51210  0.24250  0.56860  Biso   1.000  C
  C784     1.0000 0.25750  0.51210  0.06860  Biso   1.000  C
  C785     1.0000 0.51210  0.25750  0.56860  Biso   1.000  C
  C786     1.0000 0.24250  0.51210  0.06860  Biso   1.000  C
  C787     1.0000 0.98790  0.24250  0.56860  Biso   1.000  C
  C788     1.0000 0.25750  0.98790  0.06860  Biso   1.000  C
  C789     1.0000 0.01210  0.74250  0.43140  Biso   1.000  C
  C790     1.0000 0.75750  0.01210  0.93140  Biso   1.000  C
  C791     1.0000 0.48790  0.75750  0.43140  Biso   1.000  C
  C792     1.0000 0.74250  0.48790  0.93140  Biso   1.000  C
  H689     1.0000 0.48990  0.72480  0.46660  Biso   1.000  H
  H690     1.0000 0.77520  0.48990  0.96660  Biso   1.000  H
  H691     1.0000 0.01010  0.77520  0.46660  Biso   1.000  H
  H692     1.0000 0.72480  0.01010  0.96660  Biso   1.000  H
  H693     1.0000 0.98990  0.27520  0.53340  Biso   1.000  H
  H694     1.0000 0.22480  0.98990  0.03340  Biso   1.000  H
  H695     1.0000 0.51010  0.22480  0.53340  Biso   1.000  H
  H696     1.0000 0.27520  0.51010  0.03340  Biso   1.000  H
  H697     1.0000 0.51010  0.27520  0.53340  Biso   1.000  H
  H698     1.0000 0.22480  0.51010  0.03340  Biso   1.000  H
  H699     1.0000 0.98990  0.22480  0.53340  Biso   1.000  H
  H700     1.0000 0.27520  0.98990  0.03340  Biso   1.000  H
  H701     1.0000 0.01010  0.72480  0.46660  Biso   1.000  H
  H702     1.0000 0.77520  0.01010  0.96660  Biso   1.000  H
  H703     1.0000 0.48990  0.77520  0.46660  Biso   1.000  H
  H704     1.0000 0.72480  0.48990  0.96660  Biso   1.000  H
  C793     1.0000 0.51420  0.75000  0.38550  Biso   1.000  C
  C794     1.0000 0.75000  0.51420  0.88550  Biso   1.000  C
  C795     1.0000 0.98580  0.75000  0.38550  Biso   1.000  C
  C796     1.0000 0.75000  0.98580  0.88550  Biso   1.000  C
  C797     1.0000 0.01420  0.25000  0.61450  Biso   1.000  C
  C798     1.0000 0.25000  0.01420  0.11450  Biso   1.000  C
  C799     1.0000 0.48580  0.25000  0.61450  Biso   1.000  C
  C800     1.0000 0.25000  0.48580  0.11450  Biso   1.000  C
  H705     1.0000 0.53450  0.76160  0.39290  Biso   1.000  H
  H706     1.0000 0.73840  0.53450  0.89290  Biso   1.000  H
  H707     1.0000 0.96550  0.73840  0.39290  Biso   1.000  H
  H708     1.0000 0.76160  0.96550  0.89290  Biso   1.000  H
  H709     1.0000 0.03450  0.23840  0.60710  Biso   1.000  H
  H710     1.0000 0.26160  0.03450  0.10710  Biso   1.000  H
  H711     1.0000 0.46550  0.26160  0.60710  Biso   1.000  H
  H712     1.0000 0.23840  0.46550  0.10710  Biso   1.000  H
  H713     1.0000 0.46550  0.23840  0.60710  Biso   1.000  H
  H714     1.0000 0.26160  0.46550  0.10710  Biso   1.000  H
  H715     1.0000 0.03450  0.26160  0.60710  Biso   1.000  H
  H716     1.0000 0.23840  0.03450  0.10710  Biso   1.000  H
  H717     1.0000 0.96550  0.76160  0.39290  Biso   1.000  H
  H718     1.0000 0.73840  0.96550  0.89290  Biso   1.000  H
  H719     1.0000 0.53450  0.73840  0.39290  Biso   1.000  H
  H720     1.0000 0.76160  0.53450  0.89290  Biso   1.000  H
  C801     1.0000 0.51280  0.77270  0.33130  Biso   1.000  C
  C802     1.0000 0.72730  0.51280  0.83130  Biso   1.000  C
  C803     1.0000 0.98720  0.72730  0.33130  Biso   1.000  C
  C804     1.0000 0.77270  0.98720  0.83130  Biso   1.000  C
  C805     1.0000 0.01280  0.22730  0.66870  Biso   1.000  C
  C806     1.0000 0.27270  0.01280  0.16870  Biso   1.000  C
  C807     1.0000 0.48720  0.27270  0.66870  Biso   1.000  C
  C808     1.0000 0.22730  0.48720  0.16870  Biso   1.000  C
  C809     1.0000 0.48720  0.22730  0.66870  Biso   1.000  C
  C810     1.0000 0.27270  0.48720  0.16870  Biso   1.000  C
  C811     1.0000 0.01280  0.27270  0.66870  Biso   1.000  C
  C812     1.0000 0.22730  0.01280  0.16870  Biso   1.000  C
  C813     1.0000 0.98720  0.77270  0.33130  Biso   1.000  C
  C814     1.0000 0.72730  0.98720  0.83130  Biso   1.000  C
  C815     1.0000 0.51280  0.72730  0.33130  Biso   1.000  C
  C816     1.0000 0.77270  0.51280  0.83130  Biso   1.000  C
  H721     1.0000 0.53070  0.77660  0.29750  Biso   1.000  H
  H722     1.0000 0.72340  0.53070  0.79750  Biso   1.000  H
  H723     1.0000 0.96930  0.72340  0.29750  Biso   1.000  H
  H724     1.0000 0.77660  0.96930  0.79750  Biso   1.000  H
  H725     1.0000 0.03070  0.22340  0.70250  Biso   1.000  H
  H726     1.0000 0.27660  0.03070  0.20250  Biso   1.000  H
  H727     1.0000 0.46930  0.27660  0.70250  Biso   1.000  H
  H728     1.0000 0.22340  0.46930  0.20250  Biso   1.000  H
  H729     1.0000 0.46930  0.22340  0.70250  Biso   1.000  H
  H730     1.0000 0.27660  0.46930  0.20250  Biso   1.000  H
  H731     1.0000 0.03070  0.27660  0.70250  Biso   1.000  H
  H732     1.0000 0.22340  0.03070  0.20250  Biso   1.000  H
  H733     1.0000 0.96930  0.77660  0.29750  Biso   1.000  H
  H734     1.0000 0.72340  0.96930  0.79750  Biso   1.000  H
  H735     1.0000 0.53070  0.72340  0.29750  Biso   1.000  H
  H736     1.0000 0.77660  0.53070  0.79750  Biso   1.000  H
  C817     1.0000 0.48430  0.78970  0.32760  Biso   1.000  C
  C818     1.0000 0.71030  0.48430  0.82760  Biso   1.000  C
  C819     1.0000 0.01570  0.71030  0.32760  Biso   1.000  C
  C820     1.0000 0.78970  0.01570  0.82760  Biso   1.000  C
  C821     1.0000 0.98430  0.21030  0.67240  Biso   1.000  C
  C822     1.0000 0.28970  0.98430  0.17240  Biso   1.000  C
  C823     1.0000 0.51570  0.28970  0.67240  Biso   1.000  C
  C824     1.0000 0.21030  0.51570  0.17240  Biso   1.000  C
  C825     1.0000 0.51570  0.21030  0.67240  Biso   1.000  C
  C826     1.0000 0.28970  0.51570  0.17240  Biso   1.000  C
  C827     1.0000 0.98430  0.28970  0.67240  Biso   1.000  C
  C828     1.0000 0.21030  0.98430  0.17240  Biso   1.000  C
  C829     1.0000 0.01570  0.78970  0.32760  Biso   1.000  C
  C830     1.0000 0.71030  0.01570  0.82760  Biso   1.000  C
  C831     1.0000 0.48430  0.71030  0.32760  Biso   1.000  C
  C832     1.0000 0.78970  0.48430  0.82760  Biso   1.000  C
  H737     1.0000 0.48240  0.80630  0.28980  Biso   1.000  H
  H738     1.0000 0.69370  0.48240  0.78980  Biso   1.000  H
  H739     1.0000 0.01760  0.69370  0.28980  Biso   1.000  H
  H740     1.0000 0.80630  0.01760  0.78980  Biso   1.000  H
  H741     1.0000 0.98240  0.19370  0.71020  Biso   1.000  H
  H742     1.0000 0.30630  0.98240  0.21020  Biso   1.000  H
  H743     1.0000 0.51760  0.30630  0.71020  Biso   1.000  H
  H744     1.0000 0.19370  0.51760  0.21020  Biso   1.000  H
  H745     1.0000 0.51760  0.19370  0.71020  Biso   1.000  H
  H746     1.0000 0.30630  0.51760  0.21020  Biso   1.000  H
  H747     1.0000 0.98240  0.30630  0.71020  Biso   1.000  H
  H748     1.0000 0.19370  0.98240  0.21020  Biso   1.000  H
  H749     1.0000 0.01760  0.80630  0.28980  Biso   1.000  H
  H750     1.0000 0.69370  0.01760  0.78980  Biso   1.000  H
  H751     1.0000 0.48240  0.69370  0.28980  Biso   1.000  H
  H752     1.0000 0.80630  0.48240  0.78980  Biso   1.000  H
  C833     1.0000 0.45840  0.78460  0.37400  Biso   1.000  C
  C834     1.0000 0.71540  0.45840  0.87400  Biso   1.000  C
  C835     1.0000 0.04160  0.71540  0.37400  Biso   1.000  C
  C836     1.0000 0.78460  0.04160  0.87400  Biso   1.000  C
  C837     1.0000 0.95840  0.21540  0.62600  Biso   1.000  C
  C838     1.0000 0.28460  0.95840  0.12600  Biso   1.000  C
  C839     1.0000 0.54160  0.28460  0.62600  Biso   1.000  C
  C840     1.0000 0.21540  0.54160  0.12600  Biso   1.000  C
  C841     1.0000 0.54160  0.21540  0.62600  Biso   1.000  C
  C842     1.0000 0.28460  0.54160  0.12600  Biso   1.000  C
  C843     1.0000 0.95840  0.28460  0.62600  Biso   1.000  C
  C844     1.0000 0.21540  0.95840  0.12600  Biso   1.000  C
  C845     1.0000 0.04160  0.78460  0.37400  Biso   1.000  C
  C846     1.0000 0.71540  0.04160  0.87400  Biso   1.000  C
  C847     1.0000 0.45840  0.71540  0.37400  Biso   1.000  C
  C848     1.0000 0.78460  0.45840  0.87400  Biso   1.000  C
  H753     1.0000 0.43910  0.79810  0.37030  Biso   1.000  H
  H754     1.0000 0.70190  0.43910  0.87030  Biso   1.000  H
  H755     1.0000 0.06090  0.70190  0.37030  Biso   1.000  H
  H756     1.0000 0.79810  0.06090  0.87030  Biso   1.000  H
  H757     1.0000 0.93910  0.20190  0.62970  Biso   1.000  H
  H758     1.0000 0.29810  0.93910  0.12970  Biso   1.000  H
  H759     1.0000 0.56090  0.29810  0.62970  Biso   1.000  H
  H760     1.0000 0.20190  0.56090  0.12970  Biso   1.000  H
  H761     1.0000 0.56090  0.20190  0.62970  Biso   1.000  H
  H762     1.0000 0.29810  0.56090  0.12970  Biso   1.000  H
  H763     1.0000 0.93910  0.29810  0.62970  Biso   1.000  H
  H764     1.0000 0.20190  0.93910  0.12970  Biso   1.000  H
  H765     1.0000 0.06090  0.79810  0.37030  Biso   1.000  H
  H766     1.0000 0.70190  0.06090  0.87030  Biso   1.000  H
  H767     1.0000 0.43910  0.70190  0.37030  Biso   1.000  H
  H768     1.0000 0.79810  0.43910  0.87030  Biso   1.000  H
  N17      1.0000 0.38460  0.75790  0.56690  Biso   1.000  N
  N18      1.0000 0.74210  0.38460  0.06690  Biso   1.000  N
  N19      1.0000 0.11540  0.74210  0.56690  Biso   1.000  N
  N20      1.0000 0.75790  0.11540  0.06690  Biso   1.000  N
  N21      1.0000 0.88460  0.24210  0.43310  Biso   1.000  N
  N22      1.0000 0.25790  0.88460  0.93310  Biso   1.000  N
  N23      1.0000 0.61540  0.25790  0.43310  Biso   1.000  N
  N24      1.0000 0.24210  0.61540  0.93310  Biso   1.000  N
  N25      1.0000 0.61540  0.24210  0.43310  Biso   1.000  N
  N26      1.0000 0.25790  0.61540  0.93310  Biso   1.000  N
  N27      1.0000 0.88460  0.25790  0.43310  Biso   1.000  N
  N28      1.0000 0.24210  0.88460  0.93310  Biso   1.000  N
  N29      1.0000 0.11540  0.75790  0.56690  Biso   1.000  N
  N30      1.0000 0.74210  0.11540  0.06690  Biso   1.000  N
  N31      1.0000 0.38460  0.74210  0.56690  Biso   1.000  N
  N32      1.0000 0.75790  0.38460  0.06690  Biso   1.000  N
  C849     1.0000 0.38750  0.74930  0.64170  Biso   1.000  C
  C850     1.0000 0.75070  0.38750  0.14170  Biso   1.000  C
  C851     1.0000 0.11250  0.75070  0.64170  Biso   1.000  C
  C852     1.0000 0.74930  0.11250  0.14170  Biso   1.000  C
  C853     1.0000 0.88750  0.25070  0.35830  Biso   1.000  C
  C854     1.0000 0.24930  0.88750  0.85830  Biso   1.000  C
  C855     1.0000 0.61250  0.24930  0.35830  Biso   1.000  C
  C856     1.0000 0.25070  0.61250  0.85830  Biso   1.000  C
  C857     1.0000 0.61250  0.25070  0.35830  Biso   1.000  C
  C858     1.0000 0.24930  0.61250  0.85830  Biso   1.000  C
  C859     1.0000 0.88750  0.24930  0.35830  Biso   1.000  C
  C860     1.0000 0.25070  0.88750  0.85830  Biso   1.000  C
  C861     1.0000 0.11250  0.74930  0.64170  Biso   1.000  C
  C862     1.0000 0.75070  0.11250  0.14170  Biso   1.000  C
  C863     1.0000 0.38750  0.75070  0.64170  Biso   1.000  C
  C864     1.0000 0.74930  0.38750  0.14170  Biso   1.000  C
  H769     1.0000 0.40710  0.76180  0.65790  Biso   1.000  H
  H770     1.0000 0.73820  0.40710  0.15790  Biso   1.000  H
  H771     1.0000 0.09290  0.73820  0.65790  Biso   1.000  H
  H772     1.0000 0.76180  0.09290  0.15790  Biso   1.000  H
  H773     1.0000 0.90710  0.23820  0.34210  Biso   1.000  H
  H774     1.0000 0.26180  0.90710  0.84210  Biso   1.000  H
  H775     1.0000 0.59290  0.26180  0.34210  Biso   1.000  H
  H776     1.0000 0.23820  0.59290  0.84210  Biso   1.000  H
  H777     1.0000 0.59290  0.23820  0.34210  Biso   1.000  H
  H778     1.0000 0.26180  0.59290  0.84210  Biso   1.000  H
  H779     1.0000 0.90710  0.26180  0.34210  Biso   1.000  H
  H780     1.0000 0.23820  0.90710  0.84210  Biso   1.000  H
  H781     1.0000 0.09290  0.76180  0.65790  Biso   1.000  H
  H782     1.0000 0.73820  0.09290  0.15790  Biso   1.000  H
  H783     1.0000 0.40710  0.73820  0.65790  Biso   1.000  H
  H784     1.0000 0.76180  0.40710  0.15790  Biso   1.000  H
  C865     1.0000 0.36330  0.75620  0.69420  Biso   1.000  C
  C866     1.0000 0.74380  0.36330  0.19420  Biso   1.000  C
  C867     1.0000 0.13670  0.74380  0.69420  Biso   1.000  C
  C868     1.0000 0.75620  0.13670  0.19420  Biso   1.000  C
  C869     1.0000 0.86330  0.24380  0.30580  Biso   1.000  C
  C870     1.0000 0.25620  0.86330  0.80580  Biso   1.000  C
  C871     1.0000 0.63670  0.25620  0.30580  Biso   1.000  C
  C872     1.0000 0.24380  0.63670  0.80580  Biso   1.000  C
  C873     1.0000 0.63670  0.24380  0.30580  Biso   1.000  C
  C874     1.0000 0.25620  0.63670  0.80580  Biso   1.000  C
  C875     1.0000 0.86330  0.25620  0.30580  Biso   1.000  C
  C876     1.0000 0.24380  0.86330  0.80580  Biso   1.000  C
  C877     1.0000 0.13670  0.75620  0.69420  Biso   1.000  C
  C878     1.0000 0.74380  0.13670  0.19420  Biso   1.000  C
  C879     1.0000 0.36330  0.74380  0.69420  Biso   1.000  C
  C880     1.0000 0.75620  0.36330  0.19420  Biso   1.000  C
  H785     1.0000 0.36510  0.75180  0.74470  Biso   1.000  H
  H786     1.0000 0.74820  0.36510  0.24470  Biso   1.000  H
  H787     1.0000 0.13490  0.74820  0.74470  Biso   1.000  H
  H788     1.0000 0.75180  0.13490  0.24470  Biso   1.000  H
  H789     1.0000 0.86510  0.24820  0.25530  Biso   1.000  H
  H790     1.0000 0.25180  0.86510  0.75530  Biso   1.000  H
  H791     1.0000 0.63490  0.25180  0.25530  Biso   1.000  H
  H792     1.0000 0.24820  0.63490  0.75530  Biso   1.000  H
  H793     1.0000 0.63490  0.24820  0.25530  Biso   1.000  H
  H794     1.0000 0.25180  0.63490  0.75530  Biso   1.000  H
  H795     1.0000 0.86510  0.25180  0.25530  Biso   1.000  H
  H796     1.0000 0.24820  0.86510  0.75530  Biso   1.000  H
  H797     1.0000 0.13490  0.75180  0.74470  Biso   1.000  H
  H798     1.0000 0.74820  0.13490  0.24470  Biso   1.000  H
  H799     1.0000 0.36510  0.74820  0.74470  Biso   1.000  H
  H800     1.0000 0.75180  0.36510  0.24470  Biso   1.000  H
  C881     1.0000 0.33610  0.77510  0.67200  Biso   1.000  C
  C882     1.0000 0.72490  0.33610  0.17200  Biso   1.000  C
  C883     1.0000 0.16390  0.72490  0.67200  Biso   1.000  C
  C884     1.0000 0.77510  0.16390  0.17200  Biso   1.000  C
  C885     1.0000 0.83610  0.22490  0.32800  Biso   1.000  C
  C886     1.0000 0.27510  0.83610  0.82800  Biso   1.000  C
  C887     1.0000 0.66390  0.27510  0.32800  Biso   1.000  C
  C888     1.0000 0.22490  0.66390  0.82800  Biso   1.000  C
  C889     1.0000 0.66390  0.22490  0.32800  Biso   1.000  C
  C890     1.0000 0.27510  0.66390  0.82800  Biso   1.000  C
  C891     1.0000 0.83610  0.27510  0.32800  Biso   1.000  C
  C892     1.0000 0.22490  0.83610  0.82800  Biso   1.000  C
  C893     1.0000 0.16390  0.77510  0.67200  Biso   1.000  C
  C894     1.0000 0.72490  0.16390  0.17200  Biso   1.000  C
  C895     1.0000 0.33610  0.72490  0.67200  Biso   1.000  C
  C896     1.0000 0.77510  0.33610  0.17200  Biso   1.000  C
  H801     1.0000 0.31950  0.78090  0.70790  Biso   1.000  H
  H802     1.0000 0.71910  0.31950  0.20790  Biso   1.000  H
  H803     1.0000 0.18050  0.71910  0.70790  Biso   1.000  H
  H804     1.0000 0.78090  0.18050  0.20790  Biso   1.000  H
  H805     1.0000 0.81950  0.21910  0.29210  Biso   1.000  H
  H806     1.0000 0.28090  0.81950  0.79210  Biso   1.000  H
  H807     1.0000 0.68050  0.28090  0.29210  Biso   1.000  H
  H808     1.0000 0.21910  0.68050  0.79210  Biso   1.000  H
  H809     1.0000 0.68050  0.21910  0.29210  Biso   1.000  H
  H810     1.0000 0.28090  0.68050  0.79210  Biso   1.000  H
  H811     1.0000 0.81950  0.28090  0.29210  Biso   1.000  H
  H812     1.0000 0.21910  0.81950  0.79210  Biso   1.000  H
  H813     1.0000 0.18050  0.78090  0.70790  Biso   1.000  H
  H814     1.0000 0.71910  0.18050  0.20790  Biso   1.000  H
  H815     1.0000 0.31950  0.71910  0.70790  Biso   1.000  H
  H816     1.0000 0.78090  0.31950  0.20790  Biso   1.000  H
  C897     1.0000 0.33320  0.78540  0.59720  Biso   1.000  C
  C898     1.0000 0.71460  0.33320  0.09720  Biso   1.000  C
  C899     1.0000 0.16680  0.71460  0.59720  Biso   1.000  C
  C900     1.0000 0.78540  0.16680  0.09720  Biso   1.000  C
  C901     1.0000 0.83320  0.21460  0.40280  Biso   1.000  C
  C902     1.0000 0.28540  0.83320  0.90280  Biso   1.000  C
  C903     1.0000 0.66680  0.28540  0.40280  Biso   1.000  C
  C904     1.0000 0.21460  0.66680  0.90280  Biso   1.000  C
  C905     1.0000 0.66680  0.21460  0.40280  Biso   1.000  C
  C906     1.0000 0.28540  0.66680  0.90280  Biso   1.000  C
  C907     1.0000 0.83320  0.28540  0.40280  Biso   1.000  C
  C908     1.0000 0.21460  0.83320  0.90280  Biso   1.000  C
  C909     1.0000 0.16680  0.78540  0.59720  Biso   1.000  C
  C910     1.0000 0.71460  0.16680  0.09720  Biso   1.000  C
  C911     1.0000 0.33320  0.71460  0.59720  Biso   1.000  C
  C912     1.0000 0.78540  0.33320  0.09720  Biso   1.000  C
  H817     1.0000 0.31460  0.79830  0.58190  Biso   1.000  H
  H818     1.0000 0.70170  0.31460  0.08190  Biso   1.000  H
  H819     1.0000 0.18540  0.70170  0.58190  Biso   1.000  H
  H820     1.0000 0.79830  0.18540  0.08190  Biso   1.000  H
  H821     1.0000 0.81460  0.20170  0.41810  Biso   1.000  H
  H822     1.0000 0.29830  0.81460  0.91810  Biso   1.000  H
  H823     1.0000 0.68540  0.29830  0.41810  Biso   1.000  H
  H824     1.0000 0.20170  0.68540  0.91810  Biso   1.000  H
  H825     1.0000 0.68540  0.20170  0.41810  Biso   1.000  H
  H826     1.0000 0.29830  0.68540  0.91810  Biso   1.000  H
  H827     1.0000 0.81460  0.29830  0.41810  Biso   1.000  H
  H828     1.0000 0.20170  0.81460  0.91810  Biso   1.000  H
  H829     1.0000 0.18540  0.79830  0.58190  Biso   1.000  H
  H830     1.0000 0.70170  0.18540  0.08190  Biso   1.000  H
  H831     1.0000 0.31460  0.70170  0.58190  Biso   1.000  H
  H832     1.0000 0.79830  0.31460  0.08190  Biso   1.000  H
  C913     1.0000 0.35740  0.77680  0.54460  Biso   1.000  C
  C914     1.0000 0.72320  0.35740  0.04460  Biso   1.000  C
  C915     1.0000 0.14260  0.72320  0.54460  Biso   1.000  C
  C916     1.0000 0.77680  0.14260  0.04460  Biso   1.000  C
  C917     1.0000 0.85740  0.22320  0.45540  Biso   1.000  C
  C918     1.0000 0.27680  0.85740  0.95540  Biso   1.000  C
  C919     1.0000 0.64260  0.27680  0.45540  Biso   1.000  C
  C920     1.0000 0.22320  0.64260  0.95540  Biso   1.000  C
  C921     1.0000 0.64260  0.22320  0.45540  Biso   1.000  C
  C922     1.0000 0.27680  0.64260  0.95540  Biso   1.000  C
  C923     1.0000 0.85740  0.27680  0.45540  Biso   1.000  C
  C924     1.0000 0.22320  0.85740  0.95540  Biso   1.000  C
  C925     1.0000 0.14260  0.77680  0.54460  Biso   1.000  C
  C926     1.0000 0.72320  0.14260  0.04460  Biso   1.000  C
  C927     1.0000 0.35740  0.72320  0.54460  Biso   1.000  C
  C928     1.0000 0.77680  0.35740  0.04460  Biso   1.000  C
  H833     1.0000 0.35540  0.78390  0.49350  Biso   1.000  H
  H834     1.0000 0.71610  0.35540  0.99350  Biso   1.000  H
  H835     1.0000 0.14460  0.71610  0.49350  Biso   1.000  H
  H836     1.0000 0.78390  0.14460  0.99350  Biso   1.000  H
  H837     1.0000 0.85540  0.21610  0.50650  Biso   1.000  H
  H838     1.0000 0.28390  0.85540  0.00650  Biso   1.000  H
  H839     1.0000 0.64460  0.28390  0.50650  Biso   1.000  H
  H840     1.0000 0.21610  0.64460  0.00650  Biso   1.000  H
  H841     1.0000 0.64460  0.21610  0.50650  Biso   1.000  H
  H842     1.0000 0.28390  0.64460  0.00650  Biso   1.000  H
  H843     1.0000 0.85540  0.28390  0.50650  Biso   1.000  H
  H844     1.0000 0.21610  0.85540  0.00650  Biso   1.000  H
  H845     1.0000 0.14460  0.78390  0.49350  Biso   1.000  H
  H846     1.0000 0.71610  0.14460  0.99350  Biso   1.000  H
  H847     1.0000 0.35540  0.71610  0.49350  Biso   1.000  H
  H848     1.0000 0.78390  0.35540  0.99350  Biso   1.000  H
