data_image0
_cell_length_a       16.125
_cell_length_b       25.632
_cell_length_c       30.125
_cell_angle_alpha    90
_cell_angle_beta     95.55
_cell_angle_gamma    90

_symmetry_space_group_name_H-M    "P 1"
_symmetry_int_tables_number       1

loop_
  _symmetry_equiv_pos_as_xyz
  'x, y, z'

loop_
  _atom_site_label
  _atom_site_occupancy
  _atom_site_fract_x
  _atom_site_fract_y
  _atom_site_fract_z
  _atom_site_thermal_displace_type
  _atom_site_B_iso_or_equiv
  _atom_site_type_symbol
  Cu1      1.0000 0.44749  0.22632  0.76378  Biso   1.000  Cu
  Cu2      1.0000 0.55251  0.72632  0.73622  Biso   1.000  Cu
  Cu3      1.0000 0.55251  0.77368  0.23622  Biso   1.000  Cu
  Cu4      1.0000 0.44749  0.27368  0.26378  Biso   1.000  Cu
  Cu5      1.0000 0.94496  0.24296  0.51386  Biso   1.000  Cu
  Cu6      1.0000 0.05504  0.74296  0.98614  Biso   1.000  Cu
  Cu7      1.0000 0.05504  0.75704  0.48614  Biso   1.000  Cu
  Cu8      1.0000 0.94496  0.25704  0.01386  Biso   1.000  Cu
  Cu9      1.0000 0.15734  0.97674  0.66722  Biso   1.000  Cu
  Cu10     1.0000 0.84266  0.47674  0.83278  Biso   1.000  Cu
  Cu11     1.0000 0.84266  0.02326  0.33278  Biso   1.000  Cu
  Cu12     1.0000 0.15734  0.52326  0.16722  Biso   1.000  Cu
  Ca1      1.0000 0.11793  0.19467  0.68221  Biso   1.000  Ca
  Ca2      1.0000 0.88207  0.69467  0.81779  Biso   1.000  Ca
  Ca3      1.0000 0.88207  0.80533  0.31779  Biso   1.000  Ca
  Ca4      1.0000 0.11793  0.30533  0.18221  Biso   1.000  Ca
  Ca5      1.0000 0.77950  0.25919  0.84023  Biso   1.000  Ca
  Ca6      1.0000 0.22050  0.75919  0.65977  Biso   1.000  Ca
  Ca7      1.0000 0.22050  0.74081  0.15977  Biso   1.000  Ca
  Ca8      1.0000 0.77950  0.24081  0.34023  Biso   1.000  Ca
  S1       1.0000 0.10889  0.26963  0.77663  Biso   1.000  S
  S2       1.0000 0.89111  0.76963  0.72337  Biso   1.000  S
  S3       1.0000 0.89111  0.73037  0.22337  Biso   1.000  S
  S4       1.0000 0.10889  0.23037  0.27663  Biso   1.000  S
  S5       1.0000 0.80515  0.18393  0.74464  Biso   1.000  S
  S6       1.0000 0.19485  0.68393  0.75536  Biso   1.000  S
  S7       1.0000 0.19485  0.81607  0.25536  Biso   1.000  S
  S8       1.0000 0.80515  0.31607  0.24464  Biso   1.000  S
  O1       1.0000 0.77780  0.06620  0.14700  Biso   1.000  O
  O2       1.0000 0.22220  0.56620  0.35300  Biso   1.000  O
  O3       1.0000 0.22220  0.93380  0.85300  Biso   1.000  O
  O4       1.0000 0.77780  0.43380  0.64700  Biso   1.000  O
  C1       1.0000 0.89270  0.11890  0.19800  Biso   1.000  C
  C2       1.0000 0.10730  0.61890  0.30200  Biso   1.000  C
  C3       1.0000 0.10730  0.88110  0.80200  Biso   1.000  C
  C4       1.0000 0.89270  0.38110  0.69800  Biso   1.000  C
  H1       1.0000 0.91250  0.15370  0.19410  Biso   1.000  H
  H2       1.0000 0.08750  0.65370  0.30590  Biso   1.000  H
  H3       1.0000 0.08750  0.84630  0.80590  Biso   1.000  H
  H4       1.0000 0.91250  0.34630  0.69410  Biso   1.000  H
  H5       1.0000 0.92090  0.09530  0.17970  Biso   1.000  H
  H6       1.0000 0.07910  0.59530  0.32030  Biso   1.000  H
  H7       1.0000 0.07910  0.90470  0.82030  Biso   1.000  H
  H8       1.0000 0.92090  0.40470  0.67970  Biso   1.000  H
  H9       1.0000 0.90370  0.10890  0.22880  Biso   1.000  H
  H10      1.0000 0.09630  0.60890  0.27120  Biso   1.000  H
  H11      1.0000 0.09630  0.89110  0.77120  Biso   1.000  H
  H12      1.0000 0.90370  0.39110  0.72880  Biso   1.000  H
  S9       1.0000 0.76380  0.11579  0.17938  Biso   1.000  S
  S10      1.0000 0.23620  0.61579  0.32062  Biso   1.000  S
  S11      1.0000 0.23620  0.88421  0.82062  Biso   1.000  S
  S12      1.0000 0.76380  0.38421  0.67938  Biso   1.000  S
  C5       1.0000 0.72970  0.09170  0.23000  Biso   1.000  C
  C6       1.0000 0.27030  0.59170  0.27000  Biso   1.000  C
  C7       1.0000 0.27030  0.90830  0.77000  Biso   1.000  C
  C8       1.0000 0.72970  0.40830  0.73000  Biso   1.000  C
  H13      1.0000 0.67840  0.10840  0.23540  Biso   1.000  H
  H14      1.0000 0.32160  0.60840  0.26460  Biso   1.000  H
  H15      1.0000 0.32160  0.89160  0.76460  Biso   1.000  H
  H16      1.0000 0.67840  0.39160  0.73540  Biso   1.000  H
  H17      1.0000 0.77120  0.09900  0.25420  Biso   1.000  H
  H18      1.0000 0.22880  0.59900  0.24580  Biso   1.000  H
  H19      1.0000 0.22880  0.90100  0.74580  Biso   1.000  H
  H20      1.0000 0.77120  0.40100  0.75420  Biso   1.000  H
  H21      1.0000 0.72130  0.05470  0.22770  Biso   1.000  H
  H22      1.0000 0.27870  0.55470  0.27230  Biso   1.000  H
  H23      1.0000 0.27870  0.94530  0.77230  Biso   1.000  H
  H24      1.0000 0.72130  0.44530  0.72770  Biso   1.000  H
  S13      1.0000 0.44240  0.81470  0.52921  Biso   1.000  S
  S14      1.0000 0.55760  0.31470  0.97079  Biso   1.000  S
  S15      1.0000 0.55760  0.18530  0.47079  Biso   1.000  S
  S16      1.0000 0.44240  0.68530  0.02921  Biso   1.000  S
  S17      1.0000 0.23450  0.37569  0.64050  Biso   1.000  S
  S18      1.0000 0.76550  0.87569  0.85950  Biso   1.000  S
  S19      1.0000 0.76550  0.62431  0.35950  Biso   1.000  S
  S20      1.0000 0.23450  0.12431  0.14050  Biso   1.000  S
  O5       1.0000 0.24250  0.24401  0.68510  Biso   1.000  O
  O6       1.0000 0.75750  0.74401  0.81490  Biso   1.000  O
  O7       1.0000 0.75750  0.75599  0.31490  Biso   1.000  O
  O8       1.0000 0.24250  0.25599  0.18510  Biso   1.000  O
  O9       1.0000 0.37190  0.25501  0.71625  Biso   1.000  O
  O10      1.0000 0.62810  0.75501  0.78375  Biso   1.000  O
  O11      1.0000 0.62810  0.74499  0.28375  Biso   1.000  O
  O12      1.0000 0.37190  0.24499  0.21625  Biso   1.000  O
  O13      1.0000 0.21580  0.17116  0.74735  Biso   1.000  O
  O14      1.0000 0.78420  0.67116  0.75265  Biso   1.000  O
  O15      1.0000 0.78420  0.82884  0.25265  Biso   1.000  O
  O16      1.0000 0.21580  0.32884  0.24735  Biso   1.000  O
  O17      1.0000 0.53270  0.18931  0.80239  Biso   1.000  O
  O18      1.0000 0.46730  0.68931  0.69761  Biso   1.000  O
  O19      1.0000 0.46730  0.81069  0.19761  Biso   1.000  O
  O20      1.0000 0.53270  0.31069  0.30239  Biso   1.000  O
  O21      1.0000 0.66070  0.20327  0.83416  Biso   1.000  O
  O22      1.0000 0.33930  0.70327  0.66584  Biso   1.000  O
  O23      1.0000 0.33930  0.79673  0.16584  Biso   1.000  O
  O24      1.0000 0.66070  0.29673  0.33416  Biso   1.000  O
  O25      1.0000 0.67140  0.29113  0.78529  Biso   1.000  O
  O26      1.0000 0.32860  0.79113  0.71471  Biso   1.000  O
  O27      1.0000 0.32860  0.70887  0.21471  Biso   1.000  O
  O28      1.0000 0.67140  0.20887  0.28529  Biso   1.000  O
  O29      1.0000 0.05930  0.24178  0.54179  Biso   1.000  O
  O30      1.0000 0.94070  0.74178  0.95821  Biso   1.000  O
  O31      1.0000 0.94070  0.75822  0.45821  Biso   1.000  O
  O32      1.0000 0.05930  0.25822  0.04179  Biso   1.000  O
  O33      1.0000 0.12730  0.22984  0.60854  Biso   1.000  O
  O34      1.0000 0.87270  0.72984  0.89146  Biso   1.000  O
  O35      1.0000 0.87270  0.77016  0.39146  Biso   1.000  O
  O36      1.0000 0.12730  0.27016  0.10854  Biso   1.000  O
  O37      1.0000 0.98280  0.20611  0.64224  Biso   1.000  O
  O38      1.0000 0.01720  0.70611  0.85776  Biso   1.000  O
  O39      1.0000 0.01720  0.79389  0.35776  Biso   1.000  O
  O40      1.0000 0.98280  0.29389  0.14224  Biso   1.000  O
  O41      1.0000 0.83250  0.25630  0.48533  Biso   1.000  O
  O42      1.0000 0.16750  0.75630  0.01467  Biso   1.000  O
  O43      1.0000 0.16750  0.74370  0.51467  Biso   1.000  O
  O44      1.0000 0.83250  0.24370  0.98533  Biso   1.000  O
  O45      1.0000 0.76780  0.26732  0.41712  Biso   1.000  O
  O46      1.0000 0.23220  0.76732  0.08288  Biso   1.000  O
  O47      1.0000 0.23220  0.73268  0.58288  Biso   1.000  O
  O48      1.0000 0.76780  0.23268  0.91712  Biso   1.000  O
  O49      1.0000 0.91230  0.24746  0.38176  Biso   1.000  O
  O50      1.0000 0.08770  0.74746  0.11824  Biso   1.000  O
  O51      1.0000 0.08770  0.75254  0.61824  Biso   1.000  O
  O52      1.0000 0.91230  0.25254  0.88176  Biso   1.000  O
  O53      1.0000 0.11920  0.91285  0.69327  Biso   1.000  O
  O54      1.0000 0.88080  0.41285  0.80673  Biso   1.000  O
  O55      1.0000 0.88080  0.08715  0.30673  Biso   1.000  O
  O56      1.0000 0.11920  0.58715  0.19327  Biso   1.000  O
  O57      1.0000 0.14810  0.82739  0.69464  Biso   1.000  O
  O58      1.0000 0.85190  0.32739  0.80536  Biso   1.000  O
  O59      1.0000 0.85190  0.17261  0.30536  Biso   1.000  O
  O60      1.0000 0.14810  0.67261  0.19464  Biso   1.000  O
  O61      1.0000 0.24730  0.84204  0.62783  Biso   1.000  O
  O62      1.0000 0.75270  0.34204  0.87217  Biso   1.000  O
  O63      1.0000 0.75270  0.15796  0.37217  Biso   1.000  O
  O64      1.0000 0.24730  0.65796  0.12783  Biso   1.000  O
  O65      1.0000 0.20140  0.04041  0.64320  Biso   1.000  O
  O66      1.0000 0.79860  0.54041  0.85680  Biso   1.000  O
  O67      1.0000 0.79860  0.95959  0.35680  Biso   1.000  O
  O68      1.0000 0.20140  0.45959  0.14320  Biso   1.000  O
  O69      1.0000 0.18420  0.12632  0.64661  Biso   1.000  O
  O70      1.0000 0.81580  0.62632  0.85339  Biso   1.000  O
  O71      1.0000 0.81580  0.87368  0.35339  Biso   1.000  O
  O72      1.0000 0.18420  0.37368  0.14661  Biso   1.000  O
  O73      1.0000 0.06130  0.11246  0.70081  Biso   1.000  O
  O74      1.0000 0.93870  0.61246  0.79919  Biso   1.000  O
  O75      1.0000 0.93870  0.88754  0.29919  Biso   1.000  O
  O76      1.0000 0.06130  0.38754  0.20081  Biso   1.000  O
  O77      1.0000 0.06690  0.25349  0.73161  Biso   1.000  O
  O78      1.0000 0.93310  0.75349  0.76839  Biso   1.000  O
  O79      1.0000 0.93310  0.74651  0.26839  Biso   1.000  O
  O80      1.0000 0.06690  0.24651  0.23161  Biso   1.000  O
  O81      1.0000 0.83040  0.19989  0.79055  Biso   1.000  O
  O82      1.0000 0.16960  0.69989  0.70945  Biso   1.000  O
  O83      1.0000 0.16960  0.80011  0.20945  Biso   1.000  O
  O84      1.0000 0.83040  0.30011  0.29055  Biso   1.000  O
  O85      1.0000 0.47720  0.85420  0.49620  Biso   1.000  O
  O86      1.0000 0.52280  0.35420  0.00380  Biso   1.000  O
  O87      1.0000 0.52280  0.14580  0.50380  Biso   1.000  O
  O88      1.0000 0.47720  0.64580  0.99620  Biso   1.000  O
  O89      1.0000 0.25820  0.38610  0.68830  Biso   1.000  O
  O90      1.0000 0.74180  0.88610  0.81170  Biso   1.000  O
  O91      1.0000 0.74180  0.61390  0.31170  Biso   1.000  O
  O92      1.0000 0.25820  0.11390  0.18830  Biso   1.000  O
  N1       1.0000 0.35410  0.18242  0.77591  Biso   1.000  N
  N2       1.0000 0.64590  0.68242  0.72409  Biso   1.000  N
  N3       1.0000 0.64590  0.81758  0.22409  Biso   1.000  N
  N4       1.0000 0.35410  0.31758  0.27591  Biso   1.000  N
  N5       1.0000 0.53330  0.27872  0.75910  Biso   1.000  N
  N6       1.0000 0.46670  0.77872  0.74090  Biso   1.000  N
  N7       1.0000 0.46670  0.72128  0.24090  Biso   1.000  N
  N8       1.0000 0.53330  0.22128  0.25910  Biso   1.000  N
  N9       1.0000 0.91470  0.22450  0.57233  Biso   1.000  N
  N10      1.0000 0.08530  0.72450  0.92767  Biso   1.000  N
  N11      1.0000 0.08530  0.77550  0.42767  Biso   1.000  N
  N12      1.0000 0.91470  0.27550  0.07233  Biso   1.000  N
  N13      1.0000 0.97760  0.24460  0.45324  Biso   1.000  N
  N14      1.0000 0.02240  0.74460  0.04676  Biso   1.000  N
  N15      1.0000 0.02240  0.75540  0.54676  Biso   1.000  N
  N16      1.0000 0.97760  0.25540  0.95324  Biso   1.000  N
  N17      1.0000 0.22610  0.93091  0.63507  Biso   1.000  N
  N18      1.0000 0.77390  0.43091  0.86493  Biso   1.000  N
  N19      1.0000 0.77390  0.06909  0.36493  Biso   1.000  N
  N20      1.0000 0.22610  0.56909  0.13507  Biso   1.000  N
  N21      1.0000 0.08540  0.02405  0.69661  Biso   1.000  N
  N22      1.0000 0.91460  0.52405  0.80339  Biso   1.000  N
  N23      1.0000 0.91460  0.97595  0.30339  Biso   1.000  N
  N24      1.0000 0.08540  0.47595  0.19661  Biso   1.000  N
  C9       1.0000 0.30060  0.23310  0.71336  Biso   1.000  C
  C10      1.0000 0.69940  0.73310  0.78664  Biso   1.000  C
  C11      1.0000 0.69940  0.76690  0.28664  Biso   1.000  C
  C12      1.0000 0.30060  0.26690  0.21336  Biso   1.000  C
  C13      1.0000 0.28650  0.19176  0.74818  Biso   1.000  C
  C14      1.0000 0.71350  0.69176  0.75182  Biso   1.000  C
  C15      1.0000 0.71350  0.80824  0.25182  Biso   1.000  C
  C16      1.0000 0.28650  0.30824  0.24818  Biso   1.000  C
  C17      1.0000 0.35130  0.14650  0.81248  Biso   1.000  C
  C18      1.0000 0.64870  0.64650  0.68752  Biso   1.000  C
  C19      1.0000 0.64870  0.85350  0.18752  Biso   1.000  C
  C20      1.0000 0.35130  0.35350  0.31248  Biso   1.000  C
  C21      1.0000 0.36120  0.16710  0.85591  Biso   1.000  C
  C22      1.0000 0.63880  0.66710  0.64409  Biso   1.000  C
  C23      1.0000 0.63880  0.83290  0.14409  Biso   1.000  C
  C24      1.0000 0.36120  0.33290  0.35591  Biso   1.000  C
  C25      1.0000 0.35960  0.13060  0.89104  Biso   1.000  C
  C26      1.0000 0.64040  0.63060  0.60896  Biso   1.000  C
  C27      1.0000 0.64040  0.86940  0.10896  Biso   1.000  C
  C28      1.0000 0.35960  0.36940  0.39104  Biso   1.000  C
  H25      1.0000 0.36670  0.14290  0.92020  Biso   1.000  H
  H26      1.0000 0.63330  0.64290  0.57980  Biso   1.000  H
  H27      1.0000 0.63330  0.85710  0.07980  Biso   1.000  H
  H28      1.0000 0.36670  0.35710  0.42020  Biso   1.000  H
  C29      1.0000 0.34820  0.07840  0.88440  Biso   1.000  C
  C30      1.0000 0.65180  0.57840  0.61560  Biso   1.000  C
  C31      1.0000 0.65180  0.92160  0.11560  Biso   1.000  C
  C32      1.0000 0.34820  0.42160  0.38440  Biso   1.000  C
  H29      1.0000 0.34510  0.05570  0.90830  Biso   1.000  H
  H30      1.0000 0.65490  0.55570  0.59170  Biso   1.000  H
  H31      1.0000 0.65490  0.94430  0.09170  Biso   1.000  H
  H32      1.0000 0.34510  0.44430  0.40830  Biso   1.000  H
  C33      1.0000 0.34180  0.06090  0.84290  Biso   1.000  C
  C34      1.0000 0.65820  0.56090  0.65710  Biso   1.000  C
  C35      1.0000 0.65820  0.93910  0.15710  Biso   1.000  C
  C36      1.0000 0.34180  0.43910  0.34290  Biso   1.000  C
  H33      1.0000 0.33660  0.02510  0.83840  Biso   1.000  H
  H34      1.0000 0.66340  0.52510  0.66160  Biso   1.000  H
  H35      1.0000 0.66340  0.97490  0.16160  Biso   1.000  H
  H36      1.0000 0.33660  0.47490  0.33840  Biso   1.000  H
  C37      1.0000 0.34220  0.09370  0.80491  Biso   1.000  C
  C38      1.0000 0.65780  0.59370  0.69509  Biso   1.000  C
  C39      1.0000 0.65780  0.90630  0.19509  Biso   1.000  C
  C40      1.0000 0.34220  0.40630  0.30491  Biso   1.000  C
  C41      1.0000 0.33770  0.07100  0.75864  Biso   1.000  C
  C42      1.0000 0.66230  0.57100  0.74136  Biso   1.000  C
  C43      1.0000 0.66230  0.92900  0.24136  Biso   1.000  C
  C44      1.0000 0.33770  0.42900  0.25864  Biso   1.000  C
  H37      1.0000 0.33130  0.03380  0.76020  Biso   1.000  H
  H38      1.0000 0.66870  0.53380  0.73980  Biso   1.000  H
  H39      1.0000 0.66870  0.96620  0.23980  Biso   1.000  H
  H40      1.0000 0.33130  0.46620  0.26020  Biso   1.000  H
  H41      1.0000 0.38810  0.07900  0.74550  Biso   1.000  H
  H42      1.0000 0.61190  0.57900  0.75450  Biso   1.000  H
  H43      1.0000 0.61190  0.92100  0.25450  Biso   1.000  H
  H44      1.0000 0.38810  0.42100  0.24550  Biso   1.000  H
  H45      1.0000 0.29100  0.08560  0.74070  Biso   1.000  H
  H46      1.0000 0.70900  0.58560  0.75930  Biso   1.000  H
  H47      1.0000 0.70900  0.91440  0.25930  Biso   1.000  H
  H48      1.0000 0.29100  0.41440  0.24070  Biso   1.000  H
  C45      1.0000 0.37730  0.22310  0.86420  Biso   1.000  C
  C46      1.0000 0.62270  0.72310  0.63580  Biso   1.000  C
  C47      1.0000 0.62270  0.77690  0.13580  Biso   1.000  C
  C48      1.0000 0.37730  0.27690  0.36420  Biso   1.000  C
  H49      1.0000 0.38260  0.22960  0.89570  Biso   1.000  H
  H50      1.0000 0.61740  0.72960  0.60430  Biso   1.000  H
  H51      1.0000 0.61740  0.77040  0.10430  Biso   1.000  H
  H52      1.0000 0.38260  0.27040  0.39570  Biso   1.000  H
  H53      1.0000 0.33190  0.24320  0.85010  Biso   1.000  H
  H54      1.0000 0.66810  0.74320  0.64990  Biso   1.000  H
  H55      1.0000 0.66810  0.75680  0.14990  Biso   1.000  H
  H56      1.0000 0.33190  0.25680  0.35010  Biso   1.000  H
  H57      1.0000 0.42800  0.23290  0.85200  Biso   1.000  H
  H58      1.0000 0.57200  0.73290  0.64800  Biso   1.000  H
  H59      1.0000 0.57200  0.76710  0.14800  Biso   1.000  H
  H60      1.0000 0.42800  0.26710  0.35200  Biso   1.000  H
  C49      1.0000 0.59950  0.21504  0.80805  Biso   1.000  C
  C50      1.0000 0.40050  0.71504  0.69195  Biso   1.000  C
  C51      1.0000 0.40050  0.78496  0.19195  Biso   1.000  C
  C52      1.0000 0.59950  0.28496  0.30805  Biso   1.000  C
  C53      1.0000 0.60450  0.26644  0.78228  Biso   1.000  C
  C54      1.0000 0.39550  0.76644  0.71772  Biso   1.000  C
  C55      1.0000 0.39550  0.73356  0.21772  Biso   1.000  C
  C56      1.0000 0.60450  0.23356  0.28228  Biso   1.000  C
  C57      1.0000 0.52530  0.32720  0.73505  Biso   1.000  C
  C58      1.0000 0.47470  0.82720  0.76495  Biso   1.000  C
  C59      1.0000 0.47470  0.67280  0.26495  Biso   1.000  C
  C60      1.0000 0.52530  0.17280  0.23505  Biso   1.000  C
  C61      1.0000 0.50260  0.37160  0.75590  Biso   1.000  C
  C62      1.0000 0.49740  0.87160  0.74410  Biso   1.000  C
  C63      1.0000 0.49740  0.62840  0.24410  Biso   1.000  C
  C64      1.0000 0.50260  0.12840  0.25590  Biso   1.000  C
  C65      1.0000 0.49320  0.41920  0.73240  Biso   1.000  C
  C66      1.0000 0.50680  0.91920  0.76760  Biso   1.000  C
  C67      1.0000 0.50680  0.58080  0.26760  Biso   1.000  C
  C68      1.0000 0.49320  0.08080  0.23240  Biso   1.000  C
  H61      1.0000 0.47770  0.44920  0.74690  Biso   1.000  H
  H62      1.0000 0.52230  0.94920  0.75310  Biso   1.000  H
  H63      1.0000 0.52230  0.55080  0.25310  Biso   1.000  H
  H64      1.0000 0.47770  0.05080  0.24690  Biso   1.000  H
  C69      1.0000 0.50680  0.42100  0.68910  Biso   1.000  C
  C70      1.0000 0.49320  0.92100  0.81090  Biso   1.000  C
  C71      1.0000 0.49320  0.57900  0.31090  Biso   1.000  C
  C72      1.0000 0.50680  0.07900  0.18910  Biso   1.000  C
  H65      1.0000 0.50540  0.45260  0.67390  Biso   1.000  H
  H66      1.0000 0.49460  0.95260  0.82610  Biso   1.000  H
  H67      1.0000 0.49460  0.54740  0.32610  Biso   1.000  H
  H68      1.0000 0.50540  0.04740  0.17390  Biso   1.000  H
  C73      1.0000 0.52260  0.37590  0.66790  Biso   1.000  C
  C74      1.0000 0.47740  0.87590  0.83210  Biso   1.000  C
  C75      1.0000 0.47740  0.62410  0.33210  Biso   1.000  C
  C76      1.0000 0.52260  0.12410  0.16790  Biso   1.000  C
  H69      1.0000 0.52760  0.37720  0.63740  Biso   1.000  H
  H70      1.0000 0.47240  0.87720  0.86260  Biso   1.000  H
  H71      1.0000 0.47240  0.62280  0.36260  Biso   1.000  H
  H72      1.0000 0.52760  0.12280  0.13740  Biso   1.000  H
  C77      1.0000 0.53180  0.32730  0.68950  Biso   1.000  C
  C78      1.0000 0.46820  0.82730  0.81050  Biso   1.000  C
  C79      1.0000 0.46820  0.67270  0.31050  Biso   1.000  C
  C80      1.0000 0.53180  0.17270  0.18950  Biso   1.000  C
  C81      1.0000 0.49950  0.36940  0.80630  Biso   1.000  C
  C82      1.0000 0.50050  0.86940  0.69370  Biso   1.000  C
  C83      1.0000 0.50050  0.63060  0.19370  Biso   1.000  C
  C84      1.0000 0.49950  0.13060  0.30630  Biso   1.000  C
  H73      1.0000 0.48490  0.40310  0.81700  Biso   1.000  H
  H74      1.0000 0.51510  0.90310  0.68300  Biso   1.000  H
  H75      1.0000 0.51510  0.59690  0.18300  Biso   1.000  H
  H76      1.0000 0.48490  0.09690  0.31700  Biso   1.000  H
  H77      1.0000 0.55310  0.35930  0.82040  Biso   1.000  H
  H78      1.0000 0.44690  0.85930  0.67960  Biso   1.000  H
  H79      1.0000 0.44690  0.64070  0.17960  Biso   1.000  H
  H80      1.0000 0.55310  0.14070  0.32040  Biso   1.000  H
  H81      1.0000 0.45850  0.34430  0.81330  Biso   1.000  H
  H82      1.0000 0.54150  0.84430  0.68670  Biso   1.000  H
  H83      1.0000 0.54150  0.65570  0.18670  Biso   1.000  H
  H84      1.0000 0.45850  0.15570  0.31330  Biso   1.000  H
  C85      1.0000 0.54780  0.27790  0.66530  Biso   1.000  C
  C86      1.0000 0.45220  0.77790  0.83470  Biso   1.000  C
  C87      1.0000 0.45220  0.72210  0.33470  Biso   1.000  C
  C88      1.0000 0.54780  0.22210  0.16530  Biso   1.000  C
  H85      1.0000 0.52510  0.24900  0.68030  Biso   1.000  H
  H86      1.0000 0.47490  0.74900  0.81970  Biso   1.000  H
  H87      1.0000 0.47490  0.75100  0.31970  Biso   1.000  H
  H88      1.0000 0.52510  0.25100  0.18030  Biso   1.000  H
  H89      1.0000 0.60680  0.27320  0.66480  Biso   1.000  H
  H90      1.0000 0.39320  0.77320  0.83520  Biso   1.000  H
  H91      1.0000 0.39320  0.72680  0.33520  Biso   1.000  H
  H92      1.0000 0.60680  0.22680  0.16480  Biso   1.000  H
  H93      1.0000 0.52190  0.28000  0.63530  Biso   1.000  H
  H94      1.0000 0.47810  0.78000  0.86470  Biso   1.000  H
  H95      1.0000 0.47810  0.72000  0.36470  Biso   1.000  H
  H96      1.0000 0.52190  0.22000  0.13530  Biso   1.000  H
  C89      1.0000 0.06290  0.23160  0.58333  Biso   1.000  C
  C90      1.0000 0.93710  0.73160  0.91667  Biso   1.000  C
  C91      1.0000 0.93710  0.76840  0.41667  Biso   1.000  C
  C92      1.0000 0.06290  0.26840  0.08333  Biso   1.000  C
  C93      1.0000 0.97980  0.21900  0.60248  Biso   1.000  C
  C94      1.0000 0.02020  0.71900  0.89752  Biso   1.000  C
  C95      1.0000 0.02020  0.78100  0.39752  Biso   1.000  C
  C96      1.0000 0.97980  0.28100  0.10248  Biso   1.000  C
  C97      1.0000 0.83570  0.21590  0.58499  Biso   1.000  C
  C98      1.0000 0.16430  0.71590  0.91501  Biso   1.000  C
  C99      1.0000 0.16430  0.78410  0.41501  Biso   1.000  C
  C100     1.0000 0.83570  0.28410  0.08499  Biso   1.000  C
  C101     1.0000 0.77860  0.26160  0.58830  Biso   1.000  C
  C102     1.0000 0.22140  0.76160  0.91170  Biso   1.000  C
  C103     1.0000 0.22140  0.73840  0.41170  Biso   1.000  C
  C104     1.0000 0.77860  0.23840  0.08830  Biso   1.000  C
  C105     1.0000 0.70220  0.25260  0.59850  Biso   1.000  C
  C106     1.0000 0.29780  0.75260  0.90150  Biso   1.000  C
  C107     1.0000 0.29780  0.74740  0.40150  Biso   1.000  C
  C108     1.0000 0.70220  0.24740  0.09850  Biso   1.000  C
  H97      1.0000 0.66540  0.28000  0.60150  Biso   1.000  H
  H98      1.0000 0.33460  0.78000  0.89850  Biso   1.000  H
  H99      1.0000 0.33460  0.72000  0.39850  Biso   1.000  H
  H100     1.0000 0.66540  0.22000  0.10150  Biso   1.000  H
  C109     1.0000 0.67640  0.19860  0.60510  Biso   1.000  C
  C110     1.0000 0.32360  0.69860  0.89490  Biso   1.000  C
  C111     1.0000 0.32360  0.80140  0.39490  Biso   1.000  C
  C112     1.0000 0.67640  0.30140  0.10510  Biso   1.000  C
  H101     1.0000 0.62140  0.19310  0.61070  Biso   1.000  H
  H102     1.0000 0.37860  0.69310  0.88930  Biso   1.000  H
  H103     1.0000 0.37860  0.80690  0.38930  Biso   1.000  H
  H104     1.0000 0.62140  0.30690  0.11070  Biso   1.000  H
  C113     1.0000 0.72810  0.15410  0.60370  Biso   1.000  C
  C114     1.0000 0.27190  0.65410  0.89630  Biso   1.000  C
  C115     1.0000 0.27190  0.84590  0.39630  Biso   1.000  C
  C116     1.0000 0.72810  0.34590  0.10370  Biso   1.000  C
  H105     1.0000 0.71050  0.12040  0.60930  Biso   1.000  H
  H106     1.0000 0.28950  0.62040  0.89070  Biso   1.000  H
  H107     1.0000 0.28950  0.87960  0.39070  Biso   1.000  H
  H108     1.0000 0.71050  0.37960  0.10930  Biso   1.000  H
  C117     1.0000 0.81520  0.16700  0.59190  Biso   1.000  C
  C118     1.0000 0.18480  0.66700  0.90810  Biso   1.000  C
  C119     1.0000 0.18480  0.83300  0.40810  Biso   1.000  C
  C120     1.0000 0.81520  0.33300  0.09190  Biso   1.000  C
  C121     1.0000 0.86840  0.11990  0.58970  Biso   1.000  C
  C122     1.0000 0.13160  0.61990  0.91030  Biso   1.000  C
  C123     1.0000 0.13160  0.88010  0.41030  Biso   1.000  C
  C124     1.0000 0.86840  0.38010  0.08970  Biso   1.000  C
  H109     1.0000 0.83800  0.08960  0.59760  Biso   1.000  H
  H110     1.0000 0.16200  0.58960  0.90240  Biso   1.000  H
  H111     1.0000 0.16200  0.91040  0.40240  Biso   1.000  H
  H112     1.0000 0.83800  0.41040  0.09760  Biso   1.000  H
  H113     1.0000 0.91760  0.12370  0.61020  Biso   1.000  H
  H114     1.0000 0.08240  0.62370  0.88980  Biso   1.000  H
  H115     1.0000 0.08240  0.87630  0.38980  Biso   1.000  H
  H116     1.0000 0.91760  0.37630  0.11020  Biso   1.000  H
  H117     1.0000 0.88420  0.11590  0.56000  Biso   1.000  H
  H118     1.0000 0.11580  0.61590  0.94000  Biso   1.000  H
  H119     1.0000 0.11580  0.88410  0.44000  Biso   1.000  H
  H120     1.0000 0.88420  0.38410  0.06000  Biso   1.000  H
  C125     1.0000 0.80720  0.31380  0.57930  Biso   1.000  C
  C126     1.0000 0.19280  0.81380  0.92070  Biso   1.000  C
  C127     1.0000 0.19280  0.68620  0.42070  Biso   1.000  C
  C128     1.0000 0.80720  0.18620  0.07930  Biso   1.000  C
  H121     1.0000 0.86330  0.31220  0.57120  Biso   1.000  H
  H122     1.0000 0.13670  0.81220  0.92880  Biso   1.000  H
  H123     1.0000 0.13670  0.68780  0.42880  Biso   1.000  H
  H124     1.0000 0.86330  0.18780  0.07120  Biso   1.000  H
  H125     1.0000 0.80570  0.33490  0.60550  Biso   1.000  H
  H126     1.0000 0.19430  0.83490  0.89450  Biso   1.000  H
  H127     1.0000 0.19430  0.66510  0.39450  Biso   1.000  H
  H128     1.0000 0.80570  0.16510  0.10550  Biso   1.000  H
  H129     1.0000 0.77170  0.32880  0.55520  Biso   1.000  H
  H130     1.0000 0.22830  0.82880  0.94480  Biso   1.000  H
  H131     1.0000 0.22830  0.67120  0.44480  Biso   1.000  H
  H132     1.0000 0.77170  0.17120  0.05520  Biso   1.000  H
  C129     1.0000 0.83040  0.25830  0.44296  Biso   1.000  C
  C130     1.0000 0.16960  0.75830  0.05704  Biso   1.000  C
  C131     1.0000 0.16960  0.74170  0.55704  Biso   1.000  C
  C132     1.0000 0.83040  0.24170  0.94296  Biso   1.000  C
  C133     1.0000 0.91240  0.24950  0.42331  Biso   1.000  C
  C134     1.0000 0.08760  0.74950  0.07669  Biso   1.000  C
  C135     1.0000 0.08760  0.75050  0.57669  Biso   1.000  C
  C136     1.0000 0.91240  0.25050  0.92331  Biso   1.000  C
  C137     1.0000 0.05700  0.23260  0.43824  Biso   1.000  C
  C138     1.0000 0.94300  0.73260  0.06176  Biso   1.000  C
  C139     1.0000 0.94300  0.76740  0.56176  Biso   1.000  C
  C140     1.0000 0.05700  0.26740  0.93824  Biso   1.000  C
  C141     1.0000 0.12070  0.26970  0.44230  Biso   1.000  C
  C142     1.0000 0.87930  0.76970  0.05770  Biso   1.000  C
  C143     1.0000 0.87930  0.73030  0.55770  Biso   1.000  C
  C144     1.0000 0.12070  0.23030  0.94230  Biso   1.000  C
  C145     1.0000 0.19610  0.25650  0.42540  Biso   1.000  C
  C146     1.0000 0.80390  0.75650  0.07460  Biso   1.000  C
  C147     1.0000 0.80390  0.74350  0.57460  Biso   1.000  C
  C148     1.0000 0.19610  0.24350  0.92540  Biso   1.000  C
  H133     1.0000 0.23790  0.28150  0.42560  Biso   1.000  H
  H134     1.0000 0.76210  0.78150  0.07440  Biso   1.000  H
  H135     1.0000 0.76210  0.71850  0.57440  Biso   1.000  H
  H136     1.0000 0.23790  0.21850  0.92560  Biso   1.000  H
  C149     1.0000 0.21010  0.20770  0.40850  Biso   1.000  C
  C150     1.0000 0.78990  0.70770  0.09150  Biso   1.000  C
  C151     1.0000 0.78990  0.79230  0.59150  Biso   1.000  C
  C152     1.0000 0.21010  0.29230  0.90850  Biso   1.000  C
  H137     1.0000 0.26150  0.19960  0.39870  Biso   1.000  H
  H138     1.0000 0.73850  0.69960  0.10130  Biso   1.000  H
  H139     1.0000 0.73850  0.80040  0.60130  Biso   1.000  H
  H140     1.0000 0.26150  0.30040  0.89870  Biso   1.000  H
  C153     1.0000 0.14750  0.17110  0.40630  Biso   1.000  C
  C154     1.0000 0.85250  0.67110  0.09370  Biso   1.000  C
  C155     1.0000 0.85250  0.82890  0.59370  Biso   1.000  C
  C156     1.0000 0.14750  0.32890  0.90630  Biso   1.000  C
  H141     1.0000 0.15670  0.13840  0.39450  Biso   1.000  H
  H142     1.0000 0.84330  0.63840  0.10550  Biso   1.000  H
  H143     1.0000 0.84330  0.86160  0.60550  Biso   1.000  H
  H144     1.0000 0.15670  0.36160  0.89450  Biso   1.000  H
  C157     1.0000 0.07100  0.18210  0.42144  Biso   1.000  C
  C158     1.0000 0.92900  0.68210  0.07856  Biso   1.000  C
  C159     1.0000 0.92900  0.81790  0.57856  Biso   1.000  C
  C160     1.0000 0.07100  0.31790  0.92144  Biso   1.000  C
  C161     1.0000 0.00480  0.14310  0.41810  Biso   1.000  C
  C162     1.0000 0.99520  0.64310  0.08190  Biso   1.000  C
  C163     1.0000 0.99520  0.85690  0.58190  Biso   1.000  C
  C164     1.0000 0.00480  0.35690  0.91810  Biso   1.000  C
  H145     1.0000 0.95610  0.15740  0.42950  Biso   1.000  H
  H146     1.0000 0.04390  0.65740  0.07050  Biso   1.000  H
  H147     1.0000 0.04390  0.84260  0.57050  Biso   1.000  H
  H148     1.0000 0.95610  0.34260  0.92950  Biso   1.000  H
  H149     1.0000 0.02290  0.11290  0.43510  Biso   1.000  H
  H150     1.0000 0.97710  0.61290  0.06490  Biso   1.000  H
  H151     1.0000 0.97710  0.88710  0.56490  Biso   1.000  H
  H152     1.0000 0.02290  0.38710  0.93510  Biso   1.000  H
  H153     1.0000 0.99180  0.13350  0.38740  Biso   1.000  H
  H154     1.0000 0.00820  0.63350  0.11260  Biso   1.000  H
  H155     1.0000 0.00820  0.86650  0.61260  Biso   1.000  H
  H156     1.0000 0.99180  0.36650  0.88740  Biso   1.000  H
  C165     1.0000 0.10610  0.32080  0.46240  Biso   1.000  C
  C166     1.0000 0.89390  0.82080  0.03760  Biso   1.000  C
  C167     1.0000 0.89390  0.67920  0.53760  Biso   1.000  C
  C168     1.0000 0.10610  0.17920  0.96240  Biso   1.000  C
  H157     1.0000 0.15550  0.34180  0.46250  Biso   1.000  H
  H158     1.0000 0.84450  0.84180  0.03750  Biso   1.000  H
  H159     1.0000 0.84450  0.65820  0.53750  Biso   1.000  H
  H160     1.0000 0.15550  0.15820  0.96250  Biso   1.000  H
  H161     1.0000 0.09260  0.31590  0.49250  Biso   1.000  H
  H162     1.0000 0.90740  0.81590  0.00750  Biso   1.000  H
  H163     1.0000 0.90740  0.68410  0.50750  Biso   1.000  H
  H164     1.0000 0.09260  0.18410  0.99250  Biso   1.000  H
  H165     1.0000 0.06070  0.33810  0.44540  Biso   1.000  H
  H166     1.0000 0.93930  0.83810  0.05460  Biso   1.000  H
  H167     1.0000 0.93930  0.66190  0.55460  Biso   1.000  H
  H168     1.0000 0.06070  0.16190  0.94540  Biso   1.000  H
  C169     1.0000 0.15570  0.87230  0.68052  Biso   1.000  C
  C170     1.0000 0.84430  0.37230  0.81948  Biso   1.000  C
  C171     1.0000 0.84430  0.12770  0.31948  Biso   1.000  C
  C172     1.0000 0.15570  0.62770  0.18052  Biso   1.000  C
  C173     1.0000 0.21530  0.88049  0.64346  Biso   1.000  C
  C174     1.0000 0.78470  0.38049  0.85654  Biso   1.000  C
  C175     1.0000 0.78470  0.11951  0.35654  Biso   1.000  C
  C176     1.0000 0.21530  0.61951  0.14346  Biso   1.000  C
  C177     1.0000 0.28350  0.94537  0.60409  Biso   1.000  C
  C178     1.0000 0.71650  0.44537  0.89591  Biso   1.000  C
  C179     1.0000 0.71650  0.05463  0.39591  Biso   1.000  C
  C180     1.0000 0.28350  0.55463  0.10409  Biso   1.000  C
  C181     1.0000 0.26400  0.93770  0.55851  Biso   1.000  C
  C182     1.0000 0.73600  0.43770  0.94149  Biso   1.000  C
  C183     1.0000 0.73600  0.06230  0.44149  Biso   1.000  C
  C184     1.0000 0.26400  0.56230  0.05851  Biso   1.000  C
  C185     1.0000 0.32170  0.95180  0.52950  Biso   1.000  C
  C186     1.0000 0.67830  0.45180  0.97050  Biso   1.000  C
  C187     1.0000 0.67830  0.04820  0.47050  Biso   1.000  C
  C188     1.0000 0.32170  0.54820  0.02950  Biso   1.000  C
  H169     1.0000 0.31060  0.94550  0.49910  Biso   1.000  H
  H170     1.0000 0.68940  0.44550  0.00090  Biso   1.000  H
  H171     1.0000 0.68940  0.05450  0.50090  Biso   1.000  H
  H172     1.0000 0.31060  0.55450  0.99910  Biso   1.000  H
  C189     1.0000 0.39660  0.97540  0.54570  Biso   1.000  C
  C190     1.0000 0.60340  0.47540  0.95430  Biso   1.000  C
  C191     1.0000 0.60340  0.02460  0.45430  Biso   1.000  C
  C192     1.0000 0.39660  0.52460  0.04570  Biso   1.000  C
  H173     1.0000 0.43430  0.98590  0.52600  Biso   1.000  H
  H174     1.0000 0.56570  0.48590  0.97400  Biso   1.000  H
  H175     1.0000 0.56570  0.01410  0.47400  Biso   1.000  H
  H176     1.0000 0.43430  0.51410  0.02600  Biso   1.000  H
  C193     1.0000 0.41440  0.98310  0.59030  Biso   1.000  C
  C194     1.0000 0.58560  0.48310  0.90970  Biso   1.000  C
  C195     1.0000 0.58560  0.01690  0.40970  Biso   1.000  C
  C196     1.0000 0.41440  0.51690  0.09030  Biso   1.000  C
  H177     1.0000 0.46510  0.99810  0.60070  Biso   1.000  H
  H178     1.0000 0.53490  0.49810  0.89930  Biso   1.000  H
  H179     1.0000 0.53490  0.00190  0.39930  Biso   1.000  H
  H180     1.0000 0.46510  0.50190  0.10070  Biso   1.000  H
  C197     1.0000 0.35910  0.96920  0.62080  Biso   1.000  C
  C198     1.0000 0.64090  0.46920  0.87920  Biso   1.000  C
  C199     1.0000 0.64090  0.03080  0.37920  Biso   1.000  C
  C200     1.0000 0.35910  0.53080  0.12080  Biso   1.000  C
  C201     1.0000 0.37630  0.98080  0.66940  Biso   1.000  C
  C202     1.0000 0.62370  0.48080  0.83060  Biso   1.000  C
  C203     1.0000 0.62370  0.01920  0.33060  Biso   1.000  C
  C204     1.0000 0.37630  0.51920  0.16940  Biso   1.000  C
  H181     1.0000 0.33090  0.96850  0.68490  Biso   1.000  H
  H182     1.0000 0.66910  0.46850  0.81510  Biso   1.000  H
  H183     1.0000 0.66910  0.03150  0.31510  Biso   1.000  H
  H184     1.0000 0.33090  0.53150  0.18490  Biso   1.000  H
  H185     1.0000 0.42680  0.96360  0.68090  Biso   1.000  H
  H186     1.0000 0.57320  0.46360  0.81910  Biso   1.000  H
  H187     1.0000 0.57320  0.03640  0.31910  Biso   1.000  H
  H188     1.0000 0.42680  0.53640  0.18090  Biso   1.000  H
  H189     1.0000 0.38240  0.01780  0.67360  Biso   1.000  H
  H190     1.0000 0.61760  0.51780  0.82640  Biso   1.000  H
  H191     1.0000 0.61760  0.98220  0.32640  Biso   1.000  H
  H192     1.0000 0.38240  0.48220  0.17360  Biso   1.000  H
  C205     1.0000 0.18280  0.91360  0.54088  Biso   1.000  C
  C206     1.0000 0.81720  0.41360  0.95912  Biso   1.000  C
  C207     1.0000 0.81720  0.08640  0.45912  Biso   1.000  C
  C208     1.0000 0.18280  0.58640  0.04088  Biso   1.000  C
  H193     1.0000 0.18010  0.91130  0.50900  Biso   1.000  H
  H194     1.0000 0.81990  0.41130  0.99100  Biso   1.000  H
  H195     1.0000 0.81990  0.08870  0.49100  Biso   1.000  H
  H196     1.0000 0.18010  0.58870  0.00900  Biso   1.000  H
  H197     1.0000 0.17860  0.87920  0.55320  Biso   1.000  H
  H198     1.0000 0.82140  0.37920  0.94680  Biso   1.000  H
  H199     1.0000 0.82140  0.12080  0.44680  Biso   1.000  H
  H200     1.0000 0.17860  0.62080  0.05320  Biso   1.000  H
  H201     1.0000 0.13760  0.93470  0.54920  Biso   1.000  H
  H202     1.0000 0.86240  0.43470  0.95080  Biso   1.000  H
  H203     1.0000 0.86240  0.06530  0.45080  Biso   1.000  H
  H204     1.0000 0.13760  0.56530  0.04920  Biso   1.000  H
  C209     1.0000 0.16730  0.08174  0.65685  Biso   1.000  C
  C210     1.0000 0.83270  0.58174  0.84315  Biso   1.000  C
  C211     1.0000 0.83270  0.91826  0.34315  Biso   1.000  C
  C212     1.0000 0.16730  0.41826  0.15685  Biso   1.000  C
  C213     1.0000 0.09860  0.07329  0.68733  Biso   1.000  C
  C214     1.0000 0.90140  0.57329  0.81267  Biso   1.000  C
  C215     1.0000 0.90140  0.92671  0.31267  Biso   1.000  C
  C216     1.0000 0.09860  0.42671  0.18733  Biso   1.000  C
  C217     1.0000 0.02620  0.01072  0.72690  Biso   1.000  C
  C218     1.0000 0.97380  0.51072  0.77310  Biso   1.000  C
  C219     1.0000 0.97380  0.98928  0.27310  Biso   1.000  C
  C220     1.0000 0.02620  0.48928  0.22690  Biso   1.000  C
  C221     1.0000 0.95260  0.98620  0.71110  Biso   1.000  C
  C222     1.0000 0.04740  0.48620  0.78890  Biso   1.000  C
  C223     1.0000 0.04740  0.01380  0.28890  Biso   1.000  C
  C224     1.0000 0.95260  0.51380  0.21110  Biso   1.000  C
  C225     1.0000 0.89710  0.97270  0.74260  Biso   1.000  C
  C226     1.0000 0.10290  0.47270  0.75740  Biso   1.000  C
  C227     1.0000 0.10290  0.02730  0.25740  Biso   1.000  C
  C228     1.0000 0.89710  0.52730  0.24260  Biso   1.000  C
  H205     1.0000 0.84680  0.95670  0.73290  Biso   1.000  H
  H206     1.0000 0.15320  0.45670  0.76710  Biso   1.000  H
  H207     1.0000 0.15320  0.04330  0.26710  Biso   1.000  H
  H208     1.0000 0.84680  0.54330  0.23290  Biso   1.000  H
  C229     1.0000 0.91570  0.98260  0.78760  Biso   1.000  C
  C230     1.0000 0.08430  0.48260  0.71240  Biso   1.000  C
  C231     1.0000 0.08430  0.01740  0.21240  Biso   1.000  C
  C232     1.0000 0.91570  0.51740  0.28760  Biso   1.000  C
  H209     1.0000 0.87840  0.97270  0.80780  Biso   1.000  H
  H210     1.0000 0.12160  0.47270  0.69220  Biso   1.000  H
  H211     1.0000 0.12160  0.02730  0.19220  Biso   1.000  H
  H212     1.0000 0.87840  0.52730  0.30780  Biso   1.000  H
  C233     1.0000 0.98770  0.00660  0.80260  Biso   1.000  C
  C234     1.0000 0.01230  0.50660  0.69740  Biso   1.000  C
  C235     1.0000 0.01230  0.99340  0.19740  Biso   1.000  C
  C236     1.0000 0.98770  0.49340  0.30260  Biso   1.000  C
  H213     1.0000 0.99930  0.01380  0.83280  Biso   1.000  H
  H214     1.0000 0.00070  0.51380  0.66720  Biso   1.000  H
  H215     1.0000 0.00070  0.98620  0.16720  Biso   1.000  H
  H216     1.0000 0.99930  0.48620  0.33280  Biso   1.000  H
  C237     1.0000 0.04560  0.02110  0.77200  Biso   1.000  C
  C238     1.0000 0.95440  0.52110  0.72800  Biso   1.000  C
  C239     1.0000 0.95440  0.97890  0.22800  Biso   1.000  C
  C240     1.0000 0.04560  0.47890  0.27200  Biso   1.000  C
  C241     1.0000 0.12450  0.04780  0.79000  Biso   1.000  C
  C242     1.0000 0.87550  0.54780  0.71000  Biso   1.000  C
  C243     1.0000 0.87550  0.95220  0.21000  Biso   1.000  C
  C244     1.0000 0.12450  0.45220  0.29000  Biso   1.000  C
  H217     1.0000 0.15700  0.05620  0.76590  Biso   1.000  H
  H218     1.0000 0.84300  0.55620  0.73410  Biso   1.000  H
  H219     1.0000 0.84300  0.94380  0.23410  Biso   1.000  H
  H220     1.0000 0.15700  0.44380  0.26590  Biso   1.000  H
  H221     1.0000 0.11110  0.07930  0.80500  Biso   1.000  H
  H222     1.0000 0.88890  0.57930  0.69500  Biso   1.000  H
  H223     1.0000 0.88890  0.92070  0.19500  Biso   1.000  H
  H224     1.0000 0.11110  0.42070  0.30500  Biso   1.000  H
  H225     1.0000 0.15590  0.02520  0.81070  Biso   1.000  H
  H226     1.0000 0.84410  0.52520  0.68930  Biso   1.000  H
  H227     1.0000 0.84410  0.97480  0.18930  Biso   1.000  H
  H228     1.0000 0.15590  0.47480  0.31070  Biso   1.000  H
  C245     1.0000 0.93580  0.97480  0.66350  Biso   1.000  C
  C246     1.0000 0.06420  0.47480  0.83650  Biso   1.000  C
  C247     1.0000 0.06420  0.02520  0.33650  Biso   1.000  C
  C248     1.0000 0.93580  0.52520  0.16350  Biso   1.000  C
  H229     1.0000 0.88240  0.95820  0.65810  Biso   1.000  H
  H230     1.0000 0.11760  0.45820  0.84190  Biso   1.000  H
  H231     1.0000 0.11760  0.04180  0.34190  Biso   1.000  H
  H232     1.0000 0.88240  0.54180  0.15810  Biso   1.000  H
  H233     1.0000 0.93560  0.00670  0.64680  Biso   1.000  H
  H234     1.0000 0.06440  0.50670  0.85320  Biso   1.000  H
  H235     1.0000 0.06440  0.99330  0.35320  Biso   1.000  H
  H236     1.0000 0.93560  0.49330  0.14680  Biso   1.000  H
  H237     1.0000 0.97820  0.95210  0.65430  Biso   1.000  H
  H238     1.0000 0.02180  0.45210  0.84570  Biso   1.000  H
  H239     1.0000 0.02180  0.04790  0.34570  Biso   1.000  H
  H240     1.0000 0.97820  0.54790  0.15430  Biso   1.000  H
  C249     1.0000 0.05160  0.32510  0.79190  Biso   1.000  C
  C250     1.0000 0.94840  0.82510  0.70810  Biso   1.000  C
  C251     1.0000 0.94840  0.67490  0.20810  Biso   1.000  C
  C252     1.0000 0.05160  0.17490  0.29190  Biso   1.000  C
  H241     1.0000 0.06460  0.35440  0.77400  Biso   1.000  H
  H242     1.0000 0.93540  0.85440  0.72600  Biso   1.000  H
  H243     1.0000 0.93540  0.64560  0.22600  Biso   1.000  H
  H244     1.0000 0.06460  0.14560  0.27400  Biso   1.000  H
  H245     1.0000 0.06630  0.33300  0.82280  Biso   1.000  H
  H246     1.0000 0.93370  0.83300  0.67720  Biso   1.000  H
  H247     1.0000 0.93370  0.66700  0.17720  Biso   1.000  H
  H248     1.0000 0.06630  0.16700  0.32280  Biso   1.000  H
  H249     1.0000 0.99300  0.31770  0.78710  Biso   1.000  H
  H250     1.0000 0.00700  0.81770  0.71290  Biso   1.000  H
  H251     1.0000 0.00700  0.68230  0.21290  Biso   1.000  H
  H252     1.0000 0.99300  0.18230  0.28710  Biso   1.000  H
  C253     1.0000 0.07320  0.22390  0.81520  Biso   1.000  C
  C254     1.0000 0.92680  0.72390  0.68480  Biso   1.000  C
  C255     1.0000 0.92680  0.77610  0.18480  Biso   1.000  C
  C256     1.0000 0.07320  0.27610  0.31520  Biso   1.000  C
  H253     1.0000 0.09860  0.19060  0.81120  Biso   1.000  H
  H254     1.0000 0.90140  0.69060  0.68880  Biso   1.000  H
  H255     1.0000 0.90140  0.80940  0.18880  Biso   1.000  H
  H256     1.0000 0.09860  0.30940  0.31120  Biso   1.000  H
  H257     1.0000 0.01370  0.22060  0.81000  Biso   1.000  H
  H258     1.0000 0.98630  0.72060  0.69000  Biso   1.000  H
  H259     1.0000 0.98630  0.77940  0.19000  Biso   1.000  H
  H260     1.0000 0.01370  0.27940  0.31000  Biso   1.000  H
  H261     1.0000 0.08790  0.23590  0.84510  Biso   1.000  H
  H262     1.0000 0.91210  0.73590  0.65490  Biso   1.000  H
  H263     1.0000 0.91210  0.76410  0.15490  Biso   1.000  H
  H264     1.0000 0.08790  0.26410  0.34510  Biso   1.000  H
  C257     1.0000 0.87980  0.13690  0.73000  Biso   1.000  C
  C258     1.0000 0.12020  0.63690  0.77000  Biso   1.000  C
  C259     1.0000 0.12020  0.86310  0.27000  Biso   1.000  C
  C260     1.0000 0.87980  0.36310  0.23000  Biso   1.000  C
  H265     1.0000 0.85190  0.10990  0.71220  Biso   1.000  H
  H266     1.0000 0.14810  0.60990  0.78780  Biso   1.000  H
  H267     1.0000 0.14810  0.89010  0.28780  Biso   1.000  H
  H268     1.0000 0.85190  0.39010  0.21220  Biso   1.000  H
  H269     1.0000 0.90740  0.12190  0.75670  Biso   1.000  H
  H270     1.0000 0.09260  0.62190  0.74330  Biso   1.000  H
  H271     1.0000 0.09260  0.87810  0.24330  Biso   1.000  H
  H272     1.0000 0.90740  0.37810  0.25670  Biso   1.000  H
  H273     1.0000 0.92010  0.15360  0.71340  Biso   1.000  H
  H274     1.0000 0.07990  0.65360  0.78660  Biso   1.000  H
  H275     1.0000 0.07990  0.84640  0.28660  Biso   1.000  H
  H276     1.0000 0.92010  0.34640  0.21340  Biso   1.000  H
  C261     1.0000 0.83640  0.23670  0.71130  Biso   1.000  C
  C262     1.0000 0.16360  0.73670  0.78870  Biso   1.000  C
  C263     1.0000 0.16360  0.76330  0.28870  Biso   1.000  C
  C264     1.0000 0.83640  0.26330  0.21130  Biso   1.000  C
  H277     1.0000 0.79060  0.24690  0.69040  Biso   1.000  H
  H278     1.0000 0.20940  0.74690  0.80960  Biso   1.000  H
  H279     1.0000 0.20940  0.75310  0.30960  Biso   1.000  H
  H280     1.0000 0.79060  0.25310  0.19040  Biso   1.000  H
  H281     1.0000 0.88230  0.22580  0.69540  Biso   1.000  H
  H282     1.0000 0.11770  0.72580  0.80460  Biso   1.000  H
  H283     1.0000 0.11770  0.77420  0.30460  Biso   1.000  H
  H284     1.0000 0.88230  0.27420  0.19540  Biso   1.000  H
  H285     1.0000 0.85330  0.26570  0.73010  Biso   1.000  H
  H286     1.0000 0.14670  0.76570  0.76990  Biso   1.000  H
  H287     1.0000 0.14670  0.73430  0.26990  Biso   1.000  H
  H288     1.0000 0.85330  0.23430  0.23010  Biso   1.000  H
  C265     1.0000 0.44310  0.83110  0.58510  Biso   1.000  C
  C266     1.0000 0.55690  0.33110  0.91490  Biso   1.000  C
  C267     1.0000 0.55690  0.16890  0.41490  Biso   1.000  C
  C268     1.0000 0.44310  0.66890  0.08510  Biso   1.000  C
  H289     1.0000 0.49960  0.83460  0.59810  Biso   1.000  H
  H290     1.0000 0.50040  0.33460  0.90190  Biso   1.000  H
  H291     1.0000 0.50040  0.16540  0.40190  Biso   1.000  H
  H292     1.0000 0.49960  0.66540  0.09810  Biso   1.000  H
  H293     1.0000 0.41570  0.80430  0.60050  Biso   1.000  H
  H294     1.0000 0.58430  0.30430  0.89950  Biso   1.000  H
  H295     1.0000 0.58430  0.19570  0.39950  Biso   1.000  H
  H296     1.0000 0.41570  0.69570  0.10050  Biso   1.000  H
  H297     1.0000 0.41440  0.86360  0.58780  Biso   1.000  H
  H298     1.0000 0.58560  0.36360  0.91220  Biso   1.000  H
  H299     1.0000 0.58560  0.13640  0.41220  Biso   1.000  H
  H300     1.0000 0.41440  0.63640  0.08780  Biso   1.000  H
  C269     1.0000 0.33400  0.81090  0.51670  Biso   1.000  C
  C270     1.0000 0.66600  0.31090  0.98330  Biso   1.000  C
  C271     1.0000 0.66600  0.18910  0.48330  Biso   1.000  C
  C272     1.0000 0.33400  0.68910  0.01670  Biso   1.000  C
  H301     1.0000 0.32150  0.80240  0.48570  Biso   1.000  H
  H302     1.0000 0.67850  0.30240  0.01430  Biso   1.000  H
  H303     1.0000 0.67850  0.19760  0.51430  Biso   1.000  H
  H304     1.0000 0.32150  0.69760  0.98570  Biso   1.000  H
  H305     1.0000 0.30930  0.84380  0.52280  Biso   1.000  H
  H306     1.0000 0.69070  0.34380  0.97720  Biso   1.000  H
  H307     1.0000 0.69070  0.15620  0.47720  Biso   1.000  H
  H308     1.0000 0.30930  0.65620  0.02280  Biso   1.000  H
  H309     1.0000 0.31200  0.78430  0.53470  Biso   1.000  H
  H310     1.0000 0.68800  0.28430  0.96530  Biso   1.000  H
  H311     1.0000 0.68800  0.21570  0.46530  Biso   1.000  H
  H312     1.0000 0.31200  0.71570  0.03470  Biso   1.000  H
  C273     1.0000 0.13190  0.35280  0.64750  Biso   1.000  C
  C274     1.0000 0.86810  0.85280  0.85250  Biso   1.000  C
  C275     1.0000 0.86810  0.64720  0.35250  Biso   1.000  C
  C276     1.0000 0.13190  0.14720  0.14750  Biso   1.000  C
  H313     1.0000 0.13310  0.31570  0.65140  Biso   1.000  H
  H314     1.0000 0.86690  0.81570  0.84860  Biso   1.000  H
  H315     1.0000 0.86690  0.68430  0.34860  Biso   1.000  H
  H316     1.0000 0.13310  0.18430  0.15140  Biso   1.000  H
  H317     1.0000 0.09520  0.36160  0.62160  Biso   1.000  H
  H318     1.0000 0.90480  0.86160  0.87840  Biso   1.000  H
  H319     1.0000 0.90480  0.63840  0.37840  Biso   1.000  H
  H320     1.0000 0.09520  0.13840  0.12160  Biso   1.000  H
  H321     1.0000 0.11250  0.36900  0.67330  Biso   1.000  H
  H322     1.0000 0.88750  0.86900  0.82670  Biso   1.000  H
  H323     1.0000 0.88750  0.63100  0.32670  Biso   1.000  H
  H324     1.0000 0.11250  0.13100  0.17330  Biso   1.000  H
  C277     1.0000 0.21780  0.43450  0.63340  Biso   1.000  C
  C278     1.0000 0.78220  0.93450  0.86660  Biso   1.000  C
  C279     1.0000 0.78220  0.56550  0.36660  Biso   1.000  C
  C280     1.0000 0.21780  0.06550  0.13340  Biso   1.000  C
  H325     1.0000 0.25160  0.44760  0.61140  Biso   1.000  H
  H326     1.0000 0.74840  0.94760  0.88860  Biso   1.000  H
  H327     1.0000 0.74840  0.55240  0.38860  Biso   1.000  H
  H328     1.0000 0.25160  0.05240  0.11140  Biso   1.000  H
  H329     1.0000 0.23140  0.45270  0.66100  Biso   1.000  H
  H330     1.0000 0.76860  0.95270  0.83900  Biso   1.000  H
  H331     1.0000 0.76860  0.54730  0.33900  Biso   1.000  H
  H332     1.0000 0.23140  0.04730  0.16100  Biso   1.000  H
  H333     1.0000 0.16010  0.43990  0.62350  Biso   1.000  H
  H334     1.0000 0.83990  0.93990  0.87650  Biso   1.000  H
  H335     1.0000 0.83990  0.56010  0.37650  Biso   1.000  H
  H336     1.0000 0.16010  0.06010  0.12350  Biso   1.000  H
  O93      1.0000 0.83290  0.03790  0.03940  Biso   1.000  O
  O94      1.0000 0.16710  0.53790  0.46060  Biso   1.000  O
  O95      1.0000 0.16710  0.96210  0.96060  Biso   1.000  O
  O96      1.0000 0.83290  0.46210  0.53940  Biso   1.000  O
  O97      1.0000 0.00800  0.36030  0.55260  Biso   1.000  O
  O98      1.0000 0.99200  0.86030  0.94740  Biso   1.000  O
  O99      1.0000 0.99200  0.63970  0.44740  Biso   1.000  O
  O100     1.0000 0.00800  0.13970  0.05260  Biso   1.000  O
  N25      1.0000 0.30970  0.35140  0.04067  Biso   1.000  N
  N26      1.0000 0.69030  0.85140  0.45933  Biso   1.000  N
  N27      1.0000 0.69030  0.64860  0.95933  Biso   1.000  N
  N28      1.0000 0.30970  0.14860  0.54067  Biso   1.000  N
  C281     1.0000 0.35320  0.39220  0.01540  Biso   1.000  C
  C282     1.0000 0.64680  0.89220  0.48460  Biso   1.000  C
  C283     1.0000 0.64680  0.60780  0.98460  Biso   1.000  C
  C284     1.0000 0.35320  0.10780  0.51540  Biso   1.000  C
  H337     1.0000 0.41290  0.38750  0.02160  Biso   1.000  H
  H338     1.0000 0.58710  0.88750  0.47840  Biso   1.000  H
  H339     1.0000 0.58710  0.61250  0.97840  Biso   1.000  H
  H340     1.0000 0.41290  0.11250  0.52160  Biso   1.000  H
  H341     1.0000 0.33930  0.42630  0.02640  Biso   1.000  H
  H342     1.0000 0.66070  0.92630  0.47360  Biso   1.000  H
  H343     1.0000 0.66070  0.57370  0.97360  Biso   1.000  H
  H344     1.0000 0.33930  0.07370  0.52640  Biso   1.000  H
  C285     1.0000 0.33110  0.39080  0.96520  Biso   1.000  C
  C286     1.0000 0.66890  0.89080  0.53480  Biso   1.000  C
  C287     1.0000 0.66890  0.60920  0.03480  Biso   1.000  C
  C288     1.0000 0.33110  0.10920  0.46520  Biso   1.000  C
  H345     1.0000 0.27090  0.39120  0.95900  Biso   1.000  H
  H346     1.0000 0.72910  0.89120  0.54100  Biso   1.000  H
  H347     1.0000 0.72910  0.60880  0.04100  Biso   1.000  H
  H348     1.0000 0.27090  0.10880  0.45900  Biso   1.000  H
  H349     1.0000 0.35150  0.35850  0.95350  Biso   1.000  H
  H350     1.0000 0.64850  0.85850  0.54650  Biso   1.000  H
  H351     1.0000 0.64850  0.64150  0.04650  Biso   1.000  H
  H352     1.0000 0.35150  0.14150  0.45350  Biso   1.000  H
  C289     1.0000 0.36780  0.43690  0.94140  Biso   1.000  C
  C290     1.0000 0.63220  0.93690  0.55860  Biso   1.000  C
  C291     1.0000 0.63220  0.56310  0.05860  Biso   1.000  C
  C292     1.0000 0.36780  0.06310  0.44140  Biso   1.000  C
  H353     1.0000 0.34800  0.46910  0.95360  Biso   1.000  H
  H354     1.0000 0.65200  0.96910  0.54640  Biso   1.000  H
  H355     1.0000 0.65200  0.53090  0.04640  Biso   1.000  H
  H356     1.0000 0.34800  0.03090  0.45360  Biso   1.000  H
  H357     1.0000 0.42800  0.43630  0.94750  Biso   1.000  H
  H358     1.0000 0.57200  0.93630  0.55250  Biso   1.000  H
  H359     1.0000 0.57200  0.56370  0.05250  Biso   1.000  H
  H360     1.0000 0.42800  0.06370  0.44750  Biso   1.000  H
  C293     1.0000 0.34640  0.43710  0.89240  Biso   1.000  C
  C294     1.0000 0.65360  0.93710  0.60760  Biso   1.000  C
  C295     1.0000 0.65360  0.56290  0.10760  Biso   1.000  C
  C296     1.0000 0.34640  0.06290  0.39240  Biso   1.000  C
  H361     1.0000 0.37080  0.46710  0.87970  Biso   1.000  H
  H362     1.0000 0.62920  0.96710  0.62030  Biso   1.000  H
  H363     1.0000 0.62920  0.53290  0.12030  Biso   1.000  H
  H364     1.0000 0.37080  0.03290  0.37970  Biso   1.000  H
  H365     1.0000 0.28700  0.43830  0.88600  Biso   1.000  H
  H366     1.0000 0.71300  0.93830  0.61400  Biso   1.000  H
  H367     1.0000 0.71300  0.56170  0.11400  Biso   1.000  H
  H368     1.0000 0.28700  0.06170  0.38600  Biso   1.000  H
  H369     1.0000 0.36760  0.40590  0.87990  Biso   1.000  H
  H370     1.0000 0.63240  0.90590  0.62010  Biso   1.000  H
  H371     1.0000 0.63240  0.59410  0.12010  Biso   1.000  H
  H372     1.0000 0.36760  0.09410  0.37990  Biso   1.000  H
  C297     1.0000 0.33450  0.35980  0.09130  Biso   1.000  C
  C298     1.0000 0.66550  0.85980  0.40870  Biso   1.000  C
  C299     1.0000 0.66550  0.64020  0.90870  Biso   1.000  C
  C300     1.0000 0.33450  0.14020  0.59130  Biso   1.000  C
  H373     1.0000 0.31530  0.39410  0.09920  Biso   1.000  H
  H374     1.0000 0.68470  0.89410  0.40080  Biso   1.000  H
  H375     1.0000 0.68470  0.60590  0.90080  Biso   1.000  H
  H376     1.0000 0.31530  0.10590  0.59920  Biso   1.000  H
  H377     1.0000 0.30440  0.33450  0.10750  Biso   1.000  H
  H378     1.0000 0.69560  0.83450  0.39250  Biso   1.000  H
  H379     1.0000 0.69560  0.66550  0.89250  Biso   1.000  H
  H380     1.0000 0.30440  0.16550  0.60750  Biso   1.000  H
  C301     1.0000 0.42300  0.35570  0.10690  Biso   1.000  C
  C302     1.0000 0.57700  0.85570  0.39310  Biso   1.000  C
  C303     1.0000 0.57700  0.64430  0.89310  Biso   1.000  C
  C304     1.0000 0.42300  0.14430  0.60690  Biso   1.000  C
  H381     1.0000 0.45480  0.38100  0.09160  Biso   1.000  H
  H382     1.0000 0.54520  0.88100  0.40840  Biso   1.000  H
  H383     1.0000 0.54520  0.61900  0.90840  Biso   1.000  H
  H384     1.0000 0.45480  0.11900  0.59160  Biso   1.000  H
  H385     1.0000 0.44350  0.32110  0.10080  Biso   1.000  H
  H386     1.0000 0.55650  0.82110  0.39920  Biso   1.000  H
  H387     1.0000 0.55650  0.67890  0.89920  Biso   1.000  H
  H388     1.0000 0.44350  0.17890  0.60080  Biso   1.000  H
  C305     1.0000 0.43250  0.36640  0.15760  Biso   1.000  C
  C306     1.0000 0.56750  0.86640  0.34240  Biso   1.000  C
  C307     1.0000 0.56750  0.63360  0.84240  Biso   1.000  C
  C308     1.0000 0.43250  0.13360  0.65760  Biso   1.000  C
  H389     1.0000 0.40680  0.39970  0.16280  Biso   1.000  H
  H390     1.0000 0.59320  0.89970  0.33720  Biso   1.000  H
  H391     1.0000 0.59320  0.60030  0.83720  Biso   1.000  H
  H392     1.0000 0.40680  0.10030  0.66280  Biso   1.000  H
  H393     1.0000 0.40150  0.33990  0.17200  Biso   1.000  H
  H394     1.0000 0.59850  0.83990  0.32800  Biso   1.000  H
  H395     1.0000 0.59850  0.66010  0.82800  Biso   1.000  H
  H396     1.0000 0.40150  0.16010  0.67200  Biso   1.000  H
  C309     1.0000 0.51760  0.36730  0.17940  Biso   1.000  C
  C310     1.0000 0.48240  0.86730  0.32060  Biso   1.000  C
  C311     1.0000 0.48240  0.63270  0.82060  Biso   1.000  C
  C312     1.0000 0.51760  0.13270  0.67940  Biso   1.000  C
  H397     1.0000 0.51610  0.37270  0.21090  Biso   1.000  H
  H398     1.0000 0.48390  0.87270  0.28910  Biso   1.000  H
  H399     1.0000 0.48390  0.62730  0.78910  Biso   1.000  H
  H400     1.0000 0.51610  0.12730  0.71090  Biso   1.000  H
  H401     1.0000 0.54810  0.39510  0.16720  Biso   1.000  H
  H402     1.0000 0.45190  0.89510  0.33280  Biso   1.000  H
  H403     1.0000 0.45190  0.60490  0.83280  Biso   1.000  H
  H404     1.0000 0.54810  0.10490  0.66720  Biso   1.000  H
  H405     1.0000 0.54440  0.33460  0.17450  Biso   1.000  H
  H406     1.0000 0.45560  0.83460  0.32550  Biso   1.000  H
  H407     1.0000 0.45560  0.66540  0.82550  Biso   1.000  H
  H408     1.0000 0.54440  0.16540  0.67450  Biso   1.000  H
  C313     1.0000 0.21720  0.35280  0.03350  Biso   1.000  C
  C314     1.0000 0.78280  0.85280  0.46650  Biso   1.000  C
  C315     1.0000 0.78280  0.64720  0.96650  Biso   1.000  C
  C316     1.0000 0.21720  0.14720  0.53350  Biso   1.000  C
  H409     1.0000 0.19970  0.33810  0.00450  Biso   1.000  H
  H410     1.0000 0.80030  0.83810  0.49550  Biso   1.000  H
  H411     1.0000 0.80030  0.66190  0.99550  Biso   1.000  H
  H412     1.0000 0.19970  0.16190  0.50450  Biso   1.000  H
  H413     1.0000 0.19480  0.33090  0.05580  Biso   1.000  H
  H414     1.0000 0.80520  0.83090  0.44420  Biso   1.000  H
  H415     1.0000 0.80520  0.66910  0.94420  Biso   1.000  H
  H416     1.0000 0.19480  0.16910  0.55580  Biso   1.000  H
  C317     1.0000 0.18160  0.40510  0.03600  Biso   1.000  C
  C318     1.0000 0.81840  0.90510  0.46400  Biso   1.000  C
  C319     1.0000 0.81840  0.59490  0.96400  Biso   1.000  C
  C320     1.0000 0.18160  0.09490  0.53600  Biso   1.000  C
  H417     1.0000 0.19300  0.42490  0.00990  Biso   1.000  H
  H418     1.0000 0.80700  0.92490  0.49010  Biso   1.000  H
  H419     1.0000 0.80700  0.57510  0.99010  Biso   1.000  H
  H420     1.0000 0.19300  0.07510  0.50990  Biso   1.000  H
  H421     1.0000 0.20780  0.42300  0.06210  Biso   1.000  H
  H422     1.0000 0.79220  0.92300  0.43790  Biso   1.000  H
  H423     1.0000 0.79220  0.57700  0.93790  Biso   1.000  H
  H424     1.0000 0.20780  0.07700  0.56210  Biso   1.000  H
  C321     1.0000 0.08700  0.40270  0.03870  Biso   1.000  C
  C322     1.0000 0.91300  0.90270  0.46130  Biso   1.000  C
  C323     1.0000 0.91300  0.59730  0.96130  Biso   1.000  C
  C324     1.0000 0.08700  0.09730  0.53870  Biso   1.000  C
  H425     1.0000 0.07560  0.38190  0.06440  Biso   1.000  H
  H426     1.0000 0.92440  0.88190  0.43560  Biso   1.000  H
  H427     1.0000 0.92440  0.61810  0.93560  Biso   1.000  H
  H428     1.0000 0.07560  0.11810  0.56440  Biso   1.000  H
  H429     1.0000 0.06080  0.38570  0.01220  Biso   1.000  H
  H430     1.0000 0.93920  0.88570  0.48780  Biso   1.000  H
  H431     1.0000 0.93920  0.61430  0.98780  Biso   1.000  H
  H432     1.0000 0.06080  0.11430  0.51220  Biso   1.000  H
  C325     1.0000 0.04920  0.45770  0.04280  Biso   1.000  C
  C326     1.0000 0.95080  0.95770  0.45720  Biso   1.000  C
  C327     1.0000 0.95080  0.54230  0.95720  Biso   1.000  C
  C328     1.0000 0.04920  0.04230  0.54280  Biso   1.000  C
  H433     1.0000 0.99040  0.45480  0.04500  Biso   1.000  H
  H434     1.0000 0.00960  0.95480  0.45500  Biso   1.000  H
  H435     1.0000 0.00960  0.54520  0.95500  Biso   1.000  H
  H436     1.0000 0.99040  0.04520  0.54500  Biso   1.000  H
  H437     1.0000 0.05870  0.47790  0.01690  Biso   1.000  H
  H438     1.0000 0.94130  0.97790  0.48310  Biso   1.000  H
  H439     1.0000 0.94130  0.52210  0.98310  Biso   1.000  H
  H440     1.0000 0.05870  0.02210  0.51690  Biso   1.000  H
  H441     1.0000 0.07510  0.47460  0.06900  Biso   1.000  H
  H442     1.0000 0.92490  0.97460  0.43100  Biso   1.000  H
  H443     1.0000 0.92490  0.52540  0.93100  Biso   1.000  H
  H444     1.0000 0.07510  0.02540  0.56900  Biso   1.000  H
  C329     1.0000 0.33890  0.29550  0.02860  Biso   1.000  C
  C330     1.0000 0.66110  0.79550  0.47140  Biso   1.000  C
  C331     1.0000 0.66110  0.70450  0.97140  Biso   1.000  C
  C332     1.0000 0.33890  0.20450  0.52860  Biso   1.000  C
  H445     1.0000 0.32750  0.29110  0.99660  Biso   1.000  H
  H446     1.0000 0.67250  0.79110  0.50340  Biso   1.000  H
  H447     1.0000 0.67250  0.70890  0.00340  Biso   1.000  H
  H448     1.0000 0.32750  0.20890  0.49660  Biso   1.000  H
  H449     1.0000 0.39890  0.29390  0.03540  Biso   1.000  H
  H450     1.0000 0.60110  0.79390  0.46460  Biso   1.000  H
  H451     1.0000 0.60110  0.70610  0.96460  Biso   1.000  H
  H452     1.0000 0.39890  0.20610  0.53540  Biso   1.000  H
  C333     1.0000 0.30330  0.25180  0.04990  Biso   1.000  C
  C334     1.0000 0.69670  0.75180  0.45010  Biso   1.000  C
  C335     1.0000 0.69670  0.74820  0.95010  Biso   1.000  C
  C336     1.0000 0.30330  0.24820  0.54990  Biso   1.000  C
  H453     1.0000 0.24430  0.25000  0.04010  Biso   1.000  H
  H454     1.0000 0.75570  0.75000  0.45990  Biso   1.000  H
  H455     1.0000 0.75570  0.75000  0.95990  Biso   1.000  H
  H456     1.0000 0.24430  0.25000  0.54010  Biso   1.000  H
  H457     1.0000 0.30900  0.25740  0.08190  Biso   1.000  H
  H458     1.0000 0.69100  0.75740  0.41810  Biso   1.000  H
  H459     1.0000 0.69100  0.74260  0.91810  Biso   1.000  H
  H460     1.0000 0.30900  0.24260  0.58190  Biso   1.000  H
  C337     1.0000 0.34380  0.20020  0.03980  Biso   1.000  C
  C338     1.0000 0.65620  0.70020  0.46020  Biso   1.000  C
  C339     1.0000 0.65620  0.79980  0.96020  Biso   1.000  C
  C340     1.0000 0.34380  0.29980  0.53980  Biso   1.000  C
  H461     1.0000 0.34360  0.19610  0.00780  Biso   1.000  H
  H462     1.0000 0.65640  0.69610  0.49220  Biso   1.000  H
  H463     1.0000 0.65640  0.80390  0.99220  Biso   1.000  H
  H464     1.0000 0.34360  0.30390  0.50780  Biso   1.000  H
  H465     1.0000 0.31190  0.17180  0.05090  Biso   1.000  H
  H466     1.0000 0.68810  0.67180  0.44910  Biso   1.000  H
  H467     1.0000 0.68810  0.82820  0.94910  Biso   1.000  H
  H468     1.0000 0.31190  0.32820  0.55090  Biso   1.000  H
  C341     1.0000 0.43370  0.19780  0.06170  Biso   1.000  C
  C342     1.0000 0.56630  0.69780  0.43830  Biso   1.000  C
  C343     1.0000 0.56630  0.80220  0.93830  Biso   1.000  C
  C344     1.0000 0.43370  0.30220  0.56170  Biso   1.000  C
  H469     1.0000 0.46200  0.16890  0.04970  Biso   1.000  H
  H470     1.0000 0.53800  0.66890  0.45030  Biso   1.000  H
  H471     1.0000 0.53800  0.83110  0.95030  Biso   1.000  H
  H472     1.0000 0.46200  0.33110  0.54970  Biso   1.000  H
  H473     1.0000 0.43330  0.19360  0.09330  Biso   1.000  H
  H474     1.0000 0.56670  0.69360  0.40670  Biso   1.000  H
  H475     1.0000 0.56670  0.80640  0.90670  Biso   1.000  H
  H476     1.0000 0.43330  0.30640  0.59330  Biso   1.000  H
  H477     1.0000 0.46200  0.22960  0.05570  Biso   1.000  H
  H478     1.0000 0.53800  0.72960  0.44430  Biso   1.000  H
  H479     1.0000 0.53800  0.77040  0.94430  Biso   1.000  H
  H480     1.0000 0.46200  0.27040  0.55570  Biso   1.000  H
  N29      1.0000 0.32220  0.56564  0.61234  Biso   1.000  N
  N30      1.0000 0.67780  0.06564  0.88766  Biso   1.000  N
  N31      1.0000 0.67780  0.43436  0.38766  Biso   1.000  N
  N32      1.0000 0.32220  0.93436  0.11234  Biso   1.000  N
  C345     1.0000 0.35070  0.57720  0.65990  Biso   1.000  C
  C346     1.0000 0.64930  0.07720  0.84010  Biso   1.000  C
  C347     1.0000 0.64930  0.42280  0.34010  Biso   1.000  C
  C348     1.0000 0.35070  0.92280  0.15990  Biso   1.000  C
  H481     1.0000 0.33040  0.61160  0.66690  Biso   1.000  H
  H482     1.0000 0.66960  0.11160  0.83310  Biso   1.000  H
  H483     1.0000 0.66960  0.38840  0.33310  Biso   1.000  H
  H484     1.0000 0.33040  0.88840  0.16690  Biso   1.000  H
  H485     1.0000 0.41110  0.57890  0.66290  Biso   1.000  H
  H486     1.0000 0.58890  0.07890  0.83710  Biso   1.000  H
  H487     1.0000 0.58890  0.42110  0.33710  Biso   1.000  H
  H488     1.0000 0.41110  0.92110  0.16290  Biso   1.000  H
  C349     1.0000 0.32430  0.53890  0.69510  Biso   1.000  C
  C350     1.0000 0.67570  0.03890  0.80490  Biso   1.000  C
  C351     1.0000 0.67570  0.46110  0.30490  Biso   1.000  C
  C352     1.0000 0.32430  0.96110  0.19510  Biso   1.000  C
  H489     1.0000 0.26400  0.53860  0.69430  Biso   1.000  H
  H490     1.0000 0.73600  0.03860  0.80570  Biso   1.000  H
  H491     1.0000 0.73600  0.46140  0.30570  Biso   1.000  H
  H492     1.0000 0.26400  0.96140  0.19430  Biso   1.000  H
  H493     1.0000 0.34230  0.50400  0.68810  Biso   1.000  H
  H494     1.0000 0.65770  0.00400  0.81190  Biso   1.000  H
  H495     1.0000 0.65770  0.49600  0.31190  Biso   1.000  H
  H496     1.0000 0.34230  0.99600  0.18810  Biso   1.000  H
  C353     1.0000 0.36130  0.55390  0.74060  Biso   1.000  C
  C354     1.0000 0.63870  0.05390  0.75940  Biso   1.000  C
  C355     1.0000 0.63870  0.44610  0.25940  Biso   1.000  C
  C356     1.0000 0.36130  0.94610  0.24060  Biso   1.000  C
  H497     1.0000 0.35060  0.59070  0.74510  Biso   1.000  H
  H498     1.0000 0.64940  0.09070  0.75490  Biso   1.000  H
  H499     1.0000 0.64940  0.40930  0.25490  Biso   1.000  H
  H500     1.0000 0.35060  0.90930  0.24510  Biso   1.000  H
  H501     1.0000 0.42130  0.54940  0.74200  Biso   1.000  H
  H502     1.0000 0.57870  0.04940  0.75800  Biso   1.000  H
  H503     1.0000 0.57870  0.45060  0.25800  Biso   1.000  H
  H504     1.0000 0.42130  0.95060  0.24200  Biso   1.000  H
  C357     1.0000 0.32810  0.52270  0.77920  Biso   1.000  C
  C358     1.0000 0.67190  0.02270  0.72080  Biso   1.000  C
  C359     1.0000 0.67190  0.47730  0.22080  Biso   1.000  C
  C360     1.0000 0.32810  0.97730  0.27920  Biso   1.000  C
  H505     1.0000 0.35580  0.53420  0.80720  Biso   1.000  H
  H506     1.0000 0.64420  0.03420  0.69280  Biso   1.000  H
  H507     1.0000 0.64420  0.46580  0.19280  Biso   1.000  H
  H508     1.0000 0.35580  0.96580  0.30720  Biso   1.000  H
  H509     1.0000 0.33880  0.48620  0.77540  Biso   1.000  H
  H510     1.0000 0.66120  0.98620  0.72460  Biso   1.000  H
  H511     1.0000 0.66120  0.51380  0.22460  Biso   1.000  H
  H512     1.0000 0.33880  0.01380  0.27540  Biso   1.000  H
  H513     1.0000 0.26920  0.52820  0.77910  Biso   1.000  H
  H514     1.0000 0.73080  0.02820  0.72090  Biso   1.000  H
  H515     1.0000 0.73080  0.47180  0.22090  Biso   1.000  H
  H516     1.0000 0.26920  0.97180  0.27910  Biso   1.000  H
  C361     1.0000 0.34240  0.61240  0.58500  Biso   1.000  C
  C362     1.0000 0.65760  0.11240  0.91500  Biso   1.000  C
  C363     1.0000 0.65760  0.38760  0.41500  Biso   1.000  C
  C364     1.0000 0.34240  0.88760  0.08500  Biso   1.000  C
  H517     1.0000 0.31750  0.60400  0.55530  Biso   1.000  H
  H518     1.0000 0.68250  0.10400  0.94470  Biso   1.000  H
  H519     1.0000 0.68250  0.39600  0.44470  Biso   1.000  H
  H520     1.0000 0.31750  0.89600  0.05530  Biso   1.000  H
  H521     1.0000 0.30770  0.63980  0.59560  Biso   1.000  H
  H522     1.0000 0.69230  0.13980  0.90440  Biso   1.000  H
  H523     1.0000 0.69230  0.36020  0.40440  Biso   1.000  H
  H524     1.0000 0.30770  0.86020  0.09560  Biso   1.000  H
  C365     1.0000 0.42080  0.64020  0.57680  Biso   1.000  C
  C366     1.0000 0.57920  0.14020  0.92320  Biso   1.000  C
  C367     1.0000 0.57920  0.35980  0.42320  Biso   1.000  C
  C368     1.0000 0.42080  0.85980  0.07680  Biso   1.000  C
  H525     1.0000 0.43030  0.66290  0.60250  Biso   1.000  H
  H526     1.0000 0.56970  0.16290  0.89750  Biso   1.000  H
  H527     1.0000 0.56970  0.33710  0.39750  Biso   1.000  H
  H528     1.0000 0.43030  0.83710  0.10250  Biso   1.000  H
  H529     1.0000 0.46270  0.61310  0.58140  Biso   1.000  H
  H530     1.0000 0.53730  0.11310  0.91860  Biso   1.000  H
  H531     1.0000 0.53730  0.38690  0.41860  Biso   1.000  H
  H532     1.0000 0.46270  0.88690  0.08140  Biso   1.000  H
  C369     1.0000 0.45040  0.67120  0.54110  Biso   1.000  C
  C370     1.0000 0.54960  0.17120  0.95890  Biso   1.000  C
  C371     1.0000 0.54960  0.32880  0.45890  Biso   1.000  C
  C372     1.0000 0.45040  0.82880  0.04110  Biso   1.000  C
  H533     1.0000 0.46110  0.70710  0.55000  Biso   1.000  H
  H534     1.0000 0.53890  0.20710  0.95000  Biso   1.000  H
  H535     1.0000 0.53890  0.29290  0.45000  Biso   1.000  H
  H536     1.0000 0.46110  0.79290  0.05000  Biso   1.000  H
  H537     1.0000 0.49970  0.65630  0.53010  Biso   1.000  H
  H538     1.0000 0.50030  0.15630  0.96990  Biso   1.000  H
  H539     1.0000 0.50030  0.34370  0.46990  Biso   1.000  H
  H540     1.0000 0.49970  0.84370  0.03010  Biso   1.000  H
  C373     1.0000 0.37840  0.66630  0.50980  Biso   1.000  C
  C374     1.0000 0.62160  0.16630  0.99020  Biso   1.000  C
  C375     1.0000 0.62160  0.33370  0.49020  Biso   1.000  C
  C376     1.0000 0.37840  0.83370  0.00980  Biso   1.000  C
  H541     1.0000 0.37700  0.69450  0.48880  Biso   1.000  H
  H542     1.0000 0.62300  0.19450  0.01120  Biso   1.000  H
  H543     1.0000 0.62300  0.30550  0.51120  Biso   1.000  H
  H544     1.0000 0.37700  0.80550  0.98880  Biso   1.000  H
  H545     1.0000 0.32910  0.66720  0.52530  Biso   1.000  H
  H546     1.0000 0.67090  0.16720  0.97470  Biso   1.000  H
  H547     1.0000 0.67090  0.33280  0.47470  Biso   1.000  H
  H548     1.0000 0.32910  0.83280  0.02530  Biso   1.000  H
  H549     1.0000 0.38070  0.63370  0.49410  Biso   1.000  H
  H550     1.0000 0.61930  0.13370  0.00590  Biso   1.000  H
  H551     1.0000 0.61930  0.36630  0.50590  Biso   1.000  H
  H552     1.0000 0.38070  0.86630  0.99410  Biso   1.000  H
  C377     1.0000 0.22900  0.55760  0.60590  Biso   1.000  C
  C378     1.0000 0.77100  0.05760  0.89410  Biso   1.000  C
  C379     1.0000 0.77100  0.44240  0.39410  Biso   1.000  C
  C380     1.0000 0.22900  0.94240  0.10590  Biso   1.000  C
  H553     1.0000 0.21670  0.52480  0.61990  Biso   1.000  H
  H554     1.0000 0.78330  0.02480  0.88010  Biso   1.000  H
  H555     1.0000 0.78330  0.47520  0.38010  Biso   1.000  H
  H556     1.0000 0.21670  0.97520  0.11990  Biso   1.000  H
  H557     1.0000 0.21310  0.55380  0.57420  Biso   1.000  H
  H558     1.0000 0.78690  0.05380  0.92580  Biso   1.000  H
  H559     1.0000 0.78690  0.44620  0.42580  Biso   1.000  H
  H560     1.0000 0.21310  0.94620  0.07420  Biso   1.000  H
  C381     1.0000 0.17330  0.59920  0.62350  Biso   1.000  C
  C382     1.0000 0.82670  0.09920  0.87650  Biso   1.000  C
  C383     1.0000 0.82670  0.40080  0.37650  Biso   1.000  C
  C384     1.0000 0.17330  0.90080  0.12350  Biso   1.000  C
  H561     1.0000 0.18840  0.63310  0.61240  Biso   1.000  H
  H562     1.0000 0.81160  0.13310  0.88760  Biso   1.000  H
  H563     1.0000 0.81160  0.36690  0.38760  Biso   1.000  H
  H564     1.0000 0.18840  0.86690  0.11240  Biso   1.000  H
  H565     1.0000 0.18190  0.60000  0.65580  Biso   1.000  H
  H566     1.0000 0.81810  0.10000  0.84420  Biso   1.000  H
  H567     1.0000 0.81810  0.40000  0.34420  Biso   1.000  H
  H568     1.0000 0.18190  0.90000  0.15580  Biso   1.000  H
  C385     1.0000 0.08170  0.58840  0.60900  Biso   1.000  C
  C386     1.0000 0.91830  0.08840  0.89100  Biso   1.000  C
  C387     1.0000 0.91830  0.41160  0.39100  Biso   1.000  C
  C388     1.0000 0.08170  0.91160  0.10900  Biso   1.000  C
  H569     1.0000 0.07030  0.55190  0.61410  Biso   1.000  H
  H570     1.0000 0.92970  0.05190  0.88590  Biso   1.000  H
  H571     1.0000 0.92970  0.44810  0.38590  Biso   1.000  H
  H572     1.0000 0.07030  0.94810  0.11410  Biso   1.000  H
  H573     1.0000 0.07120  0.59490  0.57720  Biso   1.000  H
  H574     1.0000 0.92880  0.09490  0.92280  Biso   1.000  H
  H575     1.0000 0.92880  0.40510  0.42280  Biso   1.000  H
  H576     1.0000 0.07120  0.90510  0.07720  Biso   1.000  H
  C389     1.0000 0.02200  0.62160  0.63350  Biso   1.000  C
  C390     1.0000 0.97800  0.12160  0.86650  Biso   1.000  C
  C391     1.0000 0.97800  0.37840  0.36650  Biso   1.000  C
  C392     1.0000 0.02200  0.87840  0.13350  Biso   1.000  C
  H577     1.0000 0.96560  0.61310  0.62290  Biso   1.000  H
  H578     1.0000 0.03440  0.11310  0.87710  Biso   1.000  H
  H579     1.0000 0.03440  0.38690  0.37710  Biso   1.000  H
  H580     1.0000 0.96560  0.88690  0.12290  Biso   1.000  H
  H581     1.0000 0.03200  0.65790  0.62810  Biso   1.000  H
  H582     1.0000 0.96800  0.15790  0.87190  Biso   1.000  H
  H583     1.0000 0.96800  0.34210  0.37190  Biso   1.000  H
  H584     1.0000 0.03200  0.84210  0.12810  Biso   1.000  H
  H585     1.0000 0.03090  0.61480  0.66490  Biso   1.000  H
  H586     1.0000 0.96910  0.11480  0.83510  Biso   1.000  H
  H587     1.0000 0.96910  0.38520  0.33510  Biso   1.000  H
  H588     1.0000 0.03090  0.88520  0.16490  Biso   1.000  H
  C393     1.0000 0.36440  0.51670  0.59840  Biso   1.000  C
  C394     1.0000 0.63560  0.01670  0.90160  Biso   1.000  C
  C395     1.0000 0.63560  0.48330  0.40160  Biso   1.000  C
  C396     1.0000 0.36440  0.98330  0.09840  Biso   1.000  C
  H589     1.0000 0.42400  0.52270  0.60300  Biso   1.000  H
  H590     1.0000 0.57600  0.02270  0.89700  Biso   1.000  H
  H591     1.0000 0.57600  0.47730  0.39700  Biso   1.000  H
  H592     1.0000 0.42400  0.97730  0.10300  Biso   1.000  H
  H593     1.0000 0.35170  0.48930  0.61890  Biso   1.000  H
  H594     1.0000 0.64830  0.98930  0.88110  Biso   1.000  H
  H595     1.0000 0.64830  0.51070  0.38110  Biso   1.000  H
  H596     1.0000 0.35170  0.01070  0.11890  Biso   1.000  H
  C397     1.0000 0.34720  0.49760  0.55610  Biso   1.000  C
  C398     1.0000 0.65280  0.99760  0.94390  Biso   1.000  C
  C399     1.0000 0.65280  0.50240  0.44390  Biso   1.000  C
  C400     1.0000 0.34720  0.00240  0.05610  Biso   1.000  C
  H597     1.0000 0.35730  0.52400  0.53420  Biso   1.000  H
  H598     1.0000 0.64270  0.02400  0.96580  Biso   1.000  H
  H599     1.0000 0.64270  0.47600  0.46580  Biso   1.000  H
  H600     1.0000 0.35730  0.97600  0.03420  Biso   1.000  H
  H601     1.0000 0.28940  0.48670  0.55120  Biso   1.000  H
  H602     1.0000 0.71060  0.98670  0.94880  Biso   1.000  H
  H603     1.0000 0.71060  0.51330  0.44880  Biso   1.000  H
  H604     1.0000 0.28940  0.01330  0.05120  Biso   1.000  H
  C401     1.0000 0.40490  0.45110  0.55210  Biso   1.000  C
  C402     1.0000 0.59510  0.95110  0.94790  Biso   1.000  C
  C403     1.0000 0.59510  0.54890  0.44790  Biso   1.000  C
  C404     1.0000 0.40490  0.04890  0.05210  Biso   1.000  C
  H605     1.0000 0.46130  0.46020  0.56350  Biso   1.000  H
  H606     1.0000 0.53870  0.96020  0.93650  Biso   1.000  H
  H607     1.0000 0.53870  0.53980  0.43650  Biso   1.000  H
  H608     1.0000 0.46130  0.03980  0.06350  Biso   1.000  H
  H609     1.0000 0.38690  0.42200  0.56940  Biso   1.000  H
  H610     1.0000 0.61310  0.92200  0.93060  Biso   1.000  H
  H611     1.0000 0.61310  0.57800  0.43060  Biso   1.000  H
  H612     1.0000 0.38690  0.07800  0.06940  Biso   1.000  H
  C405     1.0000 0.40250  0.43650  0.50550  Biso   1.000  C
  C406     1.0000 0.59750  0.93650  0.99450  Biso   1.000  C
  C407     1.0000 0.59750  0.56350  0.49450  Biso   1.000  C
  C408     1.0000 0.40250  0.06350  0.00550  Biso   1.000  C
  H613     1.0000 0.43980  0.40780  0.50240  Biso   1.000  H
  H614     1.0000 0.56020  0.90780  0.99760  Biso   1.000  H
  H615     1.0000 0.56020  0.59220  0.49760  Biso   1.000  H
  H616     1.0000 0.43980  0.09220  0.00240  Biso   1.000  H
  H617     1.0000 0.41910  0.46570  0.48850  Biso   1.000  H
  H618     1.0000 0.58090  0.96570  0.01150  Biso   1.000  H
  H619     1.0000 0.58090  0.53430  0.51150  Biso   1.000  H
  H620     1.0000 0.41910  0.03430  0.98850  Biso   1.000  H
  H621     1.0000 0.34680  0.42630  0.49480  Biso   1.000  H
  H622     1.0000 0.65320  0.92630  0.00520  Biso   1.000  H
  H623     1.0000 0.65320  0.57370  0.50520  Biso   1.000  H
  H624     1.0000 0.34680  0.07370  0.99480  Biso   1.000  H
  C409     1.0000 0.45090  0.50650  0.59220  Biso   1.000  C
  C410     1.0000 0.54910  0.00650  0.90780  Biso   1.000  C
  C411     1.0000 0.54910  0.49350  0.40780  Biso   1.000  C
  C412     1.0000 0.45090  0.99350  0.09220  Biso   1.000  C
  C413     1.0000 0.47980  0.45530  0.57360  Biso   1.000  C
  C414     1.0000 0.52020  0.95530  0.92640  Biso   1.000  C
  C415     1.0000 0.52020  0.54470  0.42640  Biso   1.000  C
  C416     1.0000 0.47980  0.04470  0.07360  Biso   1.000  C
  C417     1.0000 0.57280  0.45090  0.57040  Biso   1.000  C
  C418     1.0000 0.42720  0.95090  0.92960  Biso   1.000  C
  C419     1.0000 0.42720  0.54910  0.42960  Biso   1.000  C
  C420     1.0000 0.57280  0.04910  0.07040  Biso   1.000  C
  H625     1.0000 0.44290  0.22580  0.08270  Biso   1.000  H
  H626     1.0000 0.55710  0.72580  0.41730  Biso   1.000  H
  H627     1.0000 0.55710  0.77420  0.91730  Biso   1.000  H
  H628     1.0000 0.44290  0.27420  0.58270  Biso   1.000  H
  H629     1.0000 0.47160  0.20120  0.03910  Biso   1.000  H
  H630     1.0000 0.52840  0.70120  0.46090  Biso   1.000  H
  H631     1.0000 0.52840  0.79880  0.96090  Biso   1.000  H
  H632     1.0000 0.47160  0.29880  0.53910  Biso   1.000  H
  H633     1.0000 0.44280  0.16510  0.07680  Biso   1.000  H
  H634     1.0000 0.55720  0.66510  0.42320  Biso   1.000  H
  H635     1.0000 0.55720  0.83490  0.92320  Biso   1.000  H
  H636     1.0000 0.44280  0.33490  0.57680  Biso   1.000  H
  H637     1.0000 0.57740  0.28580  0.63990  Biso   1.000  H
  H638     1.0000 0.42260  0.78580  0.86010  Biso   1.000  H
  H639     1.0000 0.42260  0.71420  0.36010  Biso   1.000  H
  H640     1.0000 0.57740  0.21420  0.13990  Biso   1.000  H
  H641     1.0000 0.49570  0.26160  0.65540  Biso   1.000  H
  H642     1.0000 0.50430  0.76160  0.84460  Biso   1.000  H
  H643     1.0000 0.50430  0.73840  0.34460  Biso   1.000  H
  H644     1.0000 0.49570  0.23840  0.15540  Biso   1.000  H
  H645     1.0000 0.58060  0.25480  0.68490  Biso   1.000  H
  H646     1.0000 0.41940  0.75480  0.81510  Biso   1.000  H
  H647     1.0000 0.41940  0.74520  0.31510  Biso   1.000  H
  H648     1.0000 0.58060  0.24520  0.18490  Biso   1.000  H
  H649     1.0000 0.87310  0.15420  0.19800  Biso   1.000  H
  H650     1.0000 0.12690  0.65420  0.30200  Biso   1.000  H
  H651     1.0000 0.12690  0.84580  0.80200  Biso   1.000  H
  H652     1.0000 0.87310  0.34580  0.69800  Biso   1.000  H
  H653     1.0000 0.92370  0.11340  0.17280  Biso   1.000  H
  H654     1.0000 0.07630  0.61340  0.32720  Biso   1.000  H
  H655     1.0000 0.07630  0.88660  0.82720  Biso   1.000  H
  H656     1.0000 0.92370  0.38660  0.67280  Biso   1.000  H
  H657     1.0000 0.92800  0.11240  0.22500  Biso   1.000  H
  H658     1.0000 0.07200  0.61240  0.27500  Biso   1.000  H
  H659     1.0000 0.07200  0.88760  0.77500  Biso   1.000  H
  H660     1.0000 0.92800  0.38760  0.72500  Biso   1.000  H
  H661     1.0000 0.69710  0.12050  0.21770  Biso   1.000  H
  H662     1.0000 0.30290  0.62050  0.28230  Biso   1.000  H
  H663     1.0000 0.30290  0.87950  0.78230  Biso   1.000  H
  H664     1.0000 0.69710  0.37950  0.71770  Biso   1.000  H
  H665     1.0000 0.75420  0.10050  0.25930  Biso   1.000  H
  H666     1.0000 0.24580  0.60050  0.24070  Biso   1.000  H
  H667     1.0000 0.24580  0.89950  0.74070  Biso   1.000  H
  H668     1.0000 0.75420  0.39950  0.75930  Biso   1.000  H
  H669     1.0000 0.69460  0.06170  0.23170  Biso   1.000  H
  H670     1.0000 0.30540  0.56170  0.26830  Biso   1.000  H
  H671     1.0000 0.30540  0.93830  0.76830  Biso   1.000  H
  H672     1.0000 0.69460  0.43830  0.73170  Biso   1.000  H
  H673     1.0000 0.17710  0.44590  0.65260  Biso   1.000  H
  H674     1.0000 0.82290  0.94590  0.84740  Biso   1.000  H
  H675     1.0000 0.82290  0.55410  0.34740  Biso   1.000  H
  H676     1.0000 0.17710  0.05410  0.15260  Biso   1.000  H
  H677     1.0000 0.19730  0.44070  0.60290  Biso   1.000  H
  H678     1.0000 0.80270  0.94070  0.89710  Biso   1.000  H
  H679     1.0000 0.80270  0.55930  0.39710  Biso   1.000  H
  H680     1.0000 0.19730  0.05930  0.10290  Biso   1.000  H
  H681     1.0000 0.26870  0.45360  0.64040  Biso   1.000  H
  H682     1.0000 0.73130  0.95360  0.85960  Biso   1.000  H
  H683     1.0000 0.73130  0.54640  0.35960  Biso   1.000  H
  H684     1.0000 0.26870  0.04640  0.14040  Biso   1.000  H
  H685     1.0000 0.33230  0.50630  0.57100  Biso   1.000  H
  H686     1.0000 0.66770  0.00630  0.92900  Biso   1.000  H
  H687     1.0000 0.66770  0.49370  0.42900  Biso   1.000  H
  H688     1.0000 0.33230  0.99370  0.07100  Biso   1.000  H
  H689     1.0000 0.35480  0.49020  0.62030  Biso   1.000  H
  H690     1.0000 0.64520  0.99020  0.87970  Biso   1.000  H
  H691     1.0000 0.64520  0.50980  0.37970  Biso   1.000  H
  H692     1.0000 0.35480  0.00980  0.12030  Biso   1.000  H
  H693     1.0000 0.48240  0.51130  0.62100  Biso   1.000  H
  H694     1.0000 0.51760  0.01130  0.87900  Biso   1.000  H
  H695     1.0000 0.51760  0.48870  0.37900  Biso   1.000  H
  H696     1.0000 0.48240  0.98870  0.12100  Biso   1.000  H
  H697     1.0000 0.46850  0.53380  0.57290  Biso   1.000  H
  H698     1.0000 0.53150  0.03380  0.92710  Biso   1.000  H
  H699     1.0000 0.53150  0.46620  0.42710  Biso   1.000  H
  H700     1.0000 0.46850  0.96620  0.07290  Biso   1.000  H
  H701     1.0000 0.46290  0.42710  0.59220  Biso   1.000  H
  H702     1.0000 0.53710  0.92710  0.90780  Biso   1.000  H
  H703     1.0000 0.53710  0.57290  0.40780  Biso   1.000  H
  H704     1.0000 0.46290  0.07290  0.09220  Biso   1.000  H
  H705     1.0000 0.45140  0.45030  0.54400  Biso   1.000  H
  H706     1.0000 0.54860  0.95030  0.95600  Biso   1.000  H
  H707     1.0000 0.54860  0.54970  0.45600  Biso   1.000  H
  H708     1.0000 0.45140  0.04970  0.04400  Biso   1.000  H
  H709     1.0000 0.58480  0.41860  0.55630  Biso   1.000  H
  H710     1.0000 0.41520  0.91860  0.94370  Biso   1.000  H
  H711     1.0000 0.41520  0.58140  0.44370  Biso   1.000  H
  H712     1.0000 0.58480  0.08140  0.05630  Biso   1.000  H
  H713     1.0000 0.60160  0.45190  0.59990  Biso   1.000  H
  H714     1.0000 0.39840  0.95190  0.90010  Biso   1.000  H
  H715     1.0000 0.39840  0.54810  0.40010  Biso   1.000  H
  H716     1.0000 0.60160  0.04810  0.09990  Biso   1.000  H
  H717     1.0000 0.59100  0.47950  0.55320  Biso   1.000  H
  H718     1.0000 0.40900  0.97950  0.94680  Biso   1.000  H
  H719     1.0000 0.40900  0.52050  0.44680  Biso   1.000  H
  H720     1.0000 0.59100  0.02050  0.05320  Biso   1.000  H
  S21      1.0000 0.87870  0.19180  0.75930  Biso   1.000  S
  S22      1.0000 0.12130  0.69180  0.74070  Biso   1.000  S
  S23      1.0000 0.12130  0.80820  0.24070  Biso   1.000  S
  S24      1.0000 0.87870  0.30820  0.25930  Biso   1.000  S
  S25      1.0000 0.81020  0.07748  0.19512  Biso   1.000  S
  S26      1.0000 0.18980  0.57748  0.30488  Biso   1.000  S
  S27      1.0000 0.18980  0.92252  0.80488  Biso   1.000  S
  S28      1.0000 0.81020  0.42252  0.69512  Biso   1.000  S
