data_image0
_cell_length_a       17.731
_cell_length_b       15.981
_cell_length_c       28.505
_cell_angle_alpha    90
_cell_angle_beta     90
_cell_angle_gamma    90

_symmetry_space_group_name_H-M    "P 1"
_symmetry_int_tables_number       1

loop_
  _symmetry_equiv_pos_as_xyz
  'x, y, z'

loop_
  _atom_site_label
  _atom_site_occupancy
  _atom_site_fract_x
  _atom_site_fract_y
  _atom_site_fract_z
  _atom_site_thermal_displace_type
  _atom_site_B_iso_or_equiv
  _atom_site_type_symbol
  Cu1      1.0000 0.25110  0.24735  0.49994  Biso   1.000  Cu
  Cu2      1.0000 0.24890  0.75265  0.99994  Biso   1.000  Cu
  Cu3      1.0000 0.75110  0.25265  0.50006  Biso   1.000  Cu
  Cu4      1.0000 0.74890  0.74735  0.00006  Biso   1.000  Cu
  Cu5      1.0000 0.74890  0.75265  0.50006  Biso   1.000  Cu
  Cu6      1.0000 0.75110  0.24735  0.00006  Biso   1.000  Cu
  Cu7      1.0000 0.24890  0.74735  0.49994  Biso   1.000  Cu
  Cu8      1.0000 0.25110  0.25265  0.99994  Biso   1.000  Cu
  Sr1      1.0000 0.00000  0.00000  0.50000  Biso   1.000  Sr
  Sr2      1.0000 0.50000  0.00000  0.00000  Biso   1.000  Sr
  Sr3      1.0000 0.50000  0.50000  0.50000  Biso   1.000  Sr
  Sr4      1.0000 0.00000  0.50000  0.00000  Biso   1.000  Sr
  N1       1.0000 0.20746  0.16571  0.45644  Biso   1.000  N
  N2       1.0000 0.29254  0.83429  0.95644  Biso   1.000  N
  N3       1.0000 0.70746  0.33429  0.54356  Biso   1.000  N
  N4       1.0000 0.79254  0.66571  0.04356  Biso   1.000  N
  N5       1.0000 0.79254  0.83429  0.54356  Biso   1.000  N
  N6       1.0000 0.70746  0.16571  0.04356  Biso   1.000  N
  N7       1.0000 0.29254  0.66571  0.45644  Biso   1.000  N
  N8       1.0000 0.20746  0.33429  0.95644  Biso   1.000  N
  N9       1.0000 0.79961  0.17858  0.45450  Biso   1.000  N
  N10      1.0000 0.70039  0.82142  0.95450  Biso   1.000  N
  N11      1.0000 0.29961  0.32142  0.54550  Biso   1.000  N
  N12      1.0000 0.20039  0.67858  0.04550  Biso   1.000  N
  N13      1.0000 0.20039  0.82142  0.54550  Biso   1.000  N
  N14      1.0000 0.29961  0.17858  0.04550  Biso   1.000  N
  N15      1.0000 0.70039  0.67858  0.45450  Biso   1.000  N
  N16      1.0000 0.79961  0.32142  0.95450  Biso   1.000  N
  N17      1.0000 0.00638  0.71270  0.35866  Biso   1.000  N
  N18      1.0000 0.49362  0.28730  0.85866  Biso   1.000  N
  N19      1.0000 0.50638  0.78730  0.64134  Biso   1.000  N
  N20      1.0000 0.99362  0.21270  0.14134  Biso   1.000  N
  N21      1.0000 0.99362  0.28730  0.64134  Biso   1.000  N
  N22      1.0000 0.50638  0.71270  0.14134  Biso   1.000  N
  N23      1.0000 0.49362  0.21270  0.35866  Biso   1.000  N
  N24      1.0000 0.00638  0.78730  0.85866  Biso   1.000  N
  O1       1.0000 0.17325  0.20829  0.54314  Biso   1.000  O
  O2       1.0000 0.32675  0.79171  0.04314  Biso   1.000  O
  O3       1.0000 0.67325  0.29171  0.45686  Biso   1.000  O
  O4       1.0000 0.82675  0.70829  0.95686  Biso   1.000  O
  O5       1.0000 0.82675  0.79171  0.45686  Biso   1.000  O
  O6       1.0000 0.67325  0.20829  0.95686  Biso   1.000  O
  O7       1.0000 0.32675  0.70829  0.54314  Biso   1.000  O
  O8       1.0000 0.17325  0.29171  0.04314  Biso   1.000  O
  O9       1.0000 0.07978  0.11430  0.54566  Biso   1.000  O
  O10      1.0000 0.42022  0.88570  0.04566  Biso   1.000  O
  O11      1.0000 0.57978  0.38570  0.45434  Biso   1.000  O
  O12      1.0000 0.92022  0.61430  0.95434  Biso   1.000  O
  O13      1.0000 0.92022  0.88570  0.45434  Biso   1.000  O
  O14      1.0000 0.57978  0.11430  0.95434  Biso   1.000  O
  O15      1.0000 0.42022  0.61430  0.54566  Biso   1.000  O
  O16      1.0000 0.07978  0.38570  0.04566  Biso   1.000  O
  O17      1.0000 0.10218  0.07983  0.45349  Biso   1.000  O
  O18      1.0000 0.39782  0.92017  0.95349  Biso   1.000  O
  O19      1.0000 0.60218  0.42017  0.54651  Biso   1.000  O
  O20      1.0000 0.89782  0.57983  0.04651  Biso   1.000  O
  O21      1.0000 0.89782  0.92017  0.54651  Biso   1.000  O
  O22      1.0000 0.60218  0.07983  0.04651  Biso   1.000  O
  O23      1.0000 0.39782  0.57983  0.45349  Biso   1.000  O
  O24      1.0000 0.10218  0.42017  0.95349  Biso   1.000  O
  O25      1.0000 0.82186  0.20376  0.54421  Biso   1.000  O
  O26      1.0000 0.67814  0.79624  0.04421  Biso   1.000  O
  O27      1.0000 0.32186  0.29624  0.45579  Biso   1.000  O
  O28      1.0000 0.17814  0.70376  0.95579  Biso   1.000  O
  O29      1.0000 0.17814  0.79624  0.45579  Biso   1.000  O
  O30      1.0000 0.32186  0.20376  0.95579  Biso   1.000  O
  O31      1.0000 0.67814  0.70376  0.54421  Biso   1.000  O
  O32      1.0000 0.82186  0.29624  0.04421  Biso   1.000  O
  O33      1.0000 0.91585  0.11034  0.54623  Biso   1.000  O
  O34      1.0000 0.58415  0.88966  0.04623  Biso   1.000  O
  O35      1.0000 0.41585  0.38966  0.45377  Biso   1.000  O
  O36      1.0000 0.08415  0.61034  0.95377  Biso   1.000  O
  O37      1.0000 0.08415  0.88966  0.45377  Biso   1.000  O
  O38      1.0000 0.41585  0.11034  0.95377  Biso   1.000  O
  O39      1.0000 0.58415  0.61034  0.54623  Biso   1.000  O
  O40      1.0000 0.91585  0.38966  0.04623  Biso   1.000  O
  O41      1.0000 0.90042  0.08580  0.45191  Biso   1.000  O
  O42      1.0000 0.59958  0.91420  0.95191  Biso   1.000  O
  O43      1.0000 0.40042  0.41420  0.54809  Biso   1.000  O
  O44      1.0000 0.09958  0.58580  0.04809  Biso   1.000  O
  O45      1.0000 0.09958  0.91420  0.54809  Biso   1.000  O
  O46      1.0000 0.40042  0.08580  0.04809  Biso   1.000  O
  O47      1.0000 0.59958  0.58580  0.45191  Biso   1.000  O
  O48      1.0000 0.90042  0.41420  0.95191  Biso   1.000  O
  O49      1.0000 0.04030  0.12460  0.26727  Biso   1.000  O
  O50      1.0000 0.45970  0.87540  0.76727  Biso   1.000  O
  O51      1.0000 0.54030  0.37540  0.73273  Biso   1.000  O
  O52      1.0000 0.95970  0.62460  0.23273  Biso   1.000  O
  O53      1.0000 0.95970  0.87540  0.73273  Biso   1.000  O
  O54      1.0000 0.54030  0.12460  0.23273  Biso   1.000  O
  O55      1.0000 0.45970  0.62460  0.26727  Biso   1.000  O
  O56      1.0000 0.04030  0.37540  0.76727  Biso   1.000  O
  S1       1.0000 0.03947  0.13837  0.31742  Biso   1.000  S
  S2       1.0000 0.46053  0.86163  0.81742  Biso   1.000  S
  S3       1.0000 0.53947  0.36163  0.68258  Biso   1.000  S
  S4       1.0000 0.96053  0.63837  0.18258  Biso   1.000  S
  S5       1.0000 0.96053  0.86163  0.68258  Biso   1.000  S
  S6       1.0000 0.53947  0.13837  0.18258  Biso   1.000  S
  S7       1.0000 0.46053  0.63837  0.31742  Biso   1.000  S
  S8       1.0000 0.03947  0.36163  0.81742  Biso   1.000  S
  C1       1.0000 0.13064  0.15176  0.52527  Biso   1.000  C
  C2       1.0000 0.36936  0.84824  0.02527  Biso   1.000  C
  C3       1.0000 0.63064  0.34824  0.47473  Biso   1.000  C
  C4       1.0000 0.86936  0.65176  0.97473  Biso   1.000  C
  C5       1.0000 0.86936  0.84824  0.47473  Biso   1.000  C
  C6       1.0000 0.63064  0.15176  0.97473  Biso   1.000  C
  C7       1.0000 0.36936  0.65176  0.52527  Biso   1.000  C
  C8       1.0000 0.13064  0.34824  0.02527  Biso   1.000  C
  C9       1.0000 0.14578  0.12928  0.47365  Biso   1.000  C
  C10      1.0000 0.35422  0.87072  0.97365  Biso   1.000  C
  C11      1.0000 0.64578  0.37072  0.52635  Biso   1.000  C
  C12      1.0000 0.85422  0.62928  0.02635  Biso   1.000  C
  C13      1.0000 0.85422  0.87072  0.52635  Biso   1.000  C
  C14      1.0000 0.64578  0.12928  0.02635  Biso   1.000  C
  C15      1.0000 0.35422  0.62928  0.47365  Biso   1.000  C
  C16      1.0000 0.14578  0.37072  0.97365  Biso   1.000  C
  C17      1.0000 0.22919  0.14094  0.41029  Biso   1.000  C
  C18      1.0000 0.27081  0.85906  0.91029  Biso   1.000  C
  C19      1.0000 0.72919  0.35906  0.58971  Biso   1.000  C
  C20      1.0000 0.77081  0.64094  0.08971  Biso   1.000  C
  C21      1.0000 0.77081  0.85906  0.58971  Biso   1.000  C
  C22      1.0000 0.72919  0.14094  0.08971  Biso   1.000  C
  C23      1.0000 0.27081  0.64094  0.41029  Biso   1.000  C
  C24      1.0000 0.22919  0.35906  0.91029  Biso   1.000  C
  C25      1.0000 0.26568  0.06361  0.40411  Biso   1.000  C
  C26      1.0000 0.23432  0.93639  0.90411  Biso   1.000  C
  C27      1.0000 0.76568  0.43639  0.59589  Biso   1.000  C
  C28      1.0000 0.73432  0.56361  0.09589  Biso   1.000  C
  C29      1.0000 0.73432  0.93639  0.59589  Biso   1.000  C
  C30      1.0000 0.76568  0.06361  0.09589  Biso   1.000  C
  C31      1.0000 0.23432  0.56361  0.40411  Biso   1.000  C
  C32      1.0000 0.26568  0.43639  0.90411  Biso   1.000  C
  C33      1.0000 0.28357  0.03759  0.35869  Biso   1.000  C
  C34      1.0000 0.21643  0.96241  0.85869  Biso   1.000  C
  C35      1.0000 0.78357  0.46241  0.64131  Biso   1.000  C
  C36      1.0000 0.71643  0.53759  0.14131  Biso   1.000  C
  C37      1.0000 0.71643  0.96241  0.64131  Biso   1.000  C
  C38      1.0000 0.78357  0.03759  0.14131  Biso   1.000  C
  C39      1.0000 0.21643  0.53759  0.35869  Biso   1.000  C
  C40      1.0000 0.28357  0.46241  0.85869  Biso   1.000  C
  H1       1.0000 0.30820  0.98680  0.35430  Biso   1.000  H
  H2       1.0000 0.19180  0.01320  0.85430  Biso   1.000  H
  H3       1.0000 0.80820  0.51320  0.64570  Biso   1.000  H
  H4       1.0000 0.69180  0.48680  0.14570  Biso   1.000  H
  H5       1.0000 0.69180  0.01320  0.64570  Biso   1.000  H
  H6       1.0000 0.80820  0.98680  0.14570  Biso   1.000  H
  H7       1.0000 0.19180  0.48680  0.35430  Biso   1.000  H
  H8       1.0000 0.30820  0.51320  0.85430  Biso   1.000  H
  C41      1.0000 0.26526  0.08605  0.32034  Biso   1.000  C
  C42      1.0000 0.23474  0.91395  0.82034  Biso   1.000  C
  C43      1.0000 0.76526  0.41395  0.67966  Biso   1.000  C
  C44      1.0000 0.73474  0.58605  0.17966  Biso   1.000  C
  C45      1.0000 0.73474  0.91395  0.67966  Biso   1.000  C
  C46      1.0000 0.76526  0.08605  0.17966  Biso   1.000  C
  C47      1.0000 0.23474  0.58605  0.32034  Biso   1.000  C
  C48      1.0000 0.26526  0.41395  0.82034  Biso   1.000  C
  H9       1.0000 0.27670  0.06760  0.29020  Biso   1.000  H
  H10      1.0000 0.22330  0.93240  0.79020  Biso   1.000  H
  H11      1.0000 0.77670  0.43240  0.70980  Biso   1.000  H
  H12      1.0000 0.72330  0.56760  0.20980  Biso   1.000  H
  H13      1.0000 0.72330  0.93240  0.70980  Biso   1.000  H
  H14      1.0000 0.77670  0.06760  0.20980  Biso   1.000  H
  H15      1.0000 0.22330  0.56760  0.29020  Biso   1.000  H
  H16      1.0000 0.27670  0.43240  0.79020  Biso   1.000  H
  C49      1.0000 0.22967  0.16247  0.32690  Biso   1.000  C
  C50      1.0000 0.27033  0.83753  0.82690  Biso   1.000  C
  C51      1.0000 0.72967  0.33753  0.67310  Biso   1.000  C
  C52      1.0000 0.77033  0.66247  0.17310  Biso   1.000  C
  C53      1.0000 0.77033  0.83753  0.67310  Biso   1.000  C
  C54      1.0000 0.72967  0.16247  0.17310  Biso   1.000  C
  C55      1.0000 0.27033  0.66247  0.32690  Biso   1.000  C
  C56      1.0000 0.22967  0.33753  0.82690  Biso   1.000  C
  H17      1.0000 0.21700  0.19480  0.30090  Biso   1.000  H
  H18      1.0000 0.28300  0.80520  0.80090  Biso   1.000  H
  H19      1.0000 0.71700  0.30520  0.69910  Biso   1.000  H
  H20      1.0000 0.78300  0.69480  0.19910  Biso   1.000  H
  H21      1.0000 0.78300  0.80520  0.69910  Biso   1.000  H
  H22      1.0000 0.71700  0.19480  0.19910  Biso   1.000  H
  H23      1.0000 0.28300  0.69480  0.30090  Biso   1.000  H
  H24      1.0000 0.21700  0.30520  0.80090  Biso   1.000  H
  C57      1.0000 0.21246  0.19173  0.37181  Biso   1.000  C
  C58      1.0000 0.28754  0.80827  0.87181  Biso   1.000  C
  C59      1.0000 0.71246  0.30827  0.62819  Biso   1.000  C
  C60      1.0000 0.78754  0.69173  0.12819  Biso   1.000  C
  C61      1.0000 0.78754  0.80827  0.62819  Biso   1.000  C
  C62      1.0000 0.71246  0.19173  0.12819  Biso   1.000  C
  C63      1.0000 0.28754  0.69173  0.37181  Biso   1.000  C
  C64      1.0000 0.21246  0.30827  0.87181  Biso   1.000  C
  C65      1.0000 0.28324  0.00893  0.44547  Biso   1.000  C
  C66      1.0000 0.21676  0.99107  0.94547  Biso   1.000  C
  C67      1.0000 0.78324  0.49107  0.55453  Biso   1.000  C
  C68      1.0000 0.71676  0.50893  0.05453  Biso   1.000  C
  C69      1.0000 0.71676  0.99107  0.55453  Biso   1.000  C
  C70      1.0000 0.78324  0.00893  0.05453  Biso   1.000  C
  C71      1.0000 0.21676  0.50893  0.44547  Biso   1.000  C
  C72      1.0000 0.28324  0.49107  0.94547  Biso   1.000  C
  H25      1.0000 0.26740  0.03640  0.47380  Biso   1.000  H
  H26      1.0000 0.23260  0.96360  0.97380  Biso   1.000  H
  H27      1.0000 0.76740  0.46360  0.52620  Biso   1.000  H
  H28      1.0000 0.73260  0.53640  0.02620  Biso   1.000  H
  H29      1.0000 0.73260  0.96360  0.52620  Biso   1.000  H
  H30      1.0000 0.76740  0.03640  0.02620  Biso   1.000  H
  H31      1.0000 0.23260  0.53640  0.47380  Biso   1.000  H
  H32      1.0000 0.26740  0.46360  0.97380  Biso   1.000  H
  H33      1.0000 0.33660  0.99870  0.44680  Biso   1.000  H
  H34      1.0000 0.16340  0.00130  0.94680  Biso   1.000  H
  H35      1.0000 0.83660  0.50130  0.55320  Biso   1.000  H
  H36      1.0000 0.66340  0.49870  0.05320  Biso   1.000  H
  H37      1.0000 0.66340  0.00130  0.55320  Biso   1.000  H
  H38      1.0000 0.83660  0.99870  0.05320  Biso   1.000  H
  H39      1.0000 0.16340  0.49870  0.44680  Biso   1.000  H
  H40      1.0000 0.33660  0.50130  0.94680  Biso   1.000  H
  H41      1.0000 0.25700  0.95670  0.44240  Biso   1.000  H
  H42      1.0000 0.24300  0.04330  0.94240  Biso   1.000  H
  H43      1.0000 0.75700  0.54330  0.55760  Biso   1.000  H
  H44      1.0000 0.74300  0.45670  0.05760  Biso   1.000  H
  H45      1.0000 0.74300  0.04330  0.55760  Biso   1.000  H
  H46      1.0000 0.75700  0.95670  0.05760  Biso   1.000  H
  H47      1.0000 0.24300  0.45670  0.44240  Biso   1.000  H
  H48      1.0000 0.25700  0.54330  0.94240  Biso   1.000  H
  C73      1.0000 0.17432  0.27466  0.37864  Biso   1.000  C
  C74      1.0000 0.32568  0.72534  0.87864  Biso   1.000  C
  C75      1.0000 0.67432  0.22534  0.62136  Biso   1.000  C
  C76      1.0000 0.82568  0.77466  0.12136  Biso   1.000  C
  C77      1.0000 0.82568  0.72534  0.62136  Biso   1.000  C
  C78      1.0000 0.67432  0.27466  0.12136  Biso   1.000  C
  C79      1.0000 0.32568  0.77466  0.37864  Biso   1.000  C
  C80      1.0000 0.17432  0.22534  0.87864  Biso   1.000  C
  H49      1.0000 0.16710  0.30110  0.34870  Biso   1.000  H
  H50      1.0000 0.33290  0.69890  0.84870  Biso   1.000  H
  H51      1.0000 0.66710  0.19890  0.65130  Biso   1.000  H
  H52      1.0000 0.83290  0.80110  0.15130  Biso   1.000  H
  H53      1.0000 0.83290  0.69890  0.65130  Biso   1.000  H
  H54      1.0000 0.66710  0.30110  0.15130  Biso   1.000  H
  H55      1.0000 0.33290  0.80110  0.34870  Biso   1.000  H
  H56      1.0000 0.16710  0.19890  0.84870  Biso   1.000  H
  H57      1.0000 0.20520  0.30970  0.39820  Biso   1.000  H
  H58      1.0000 0.29480  0.69030  0.89820  Biso   1.000  H
  H59      1.0000 0.70520  0.19030  0.60180  Biso   1.000  H
  H60      1.0000 0.79480  0.80970  0.10180  Biso   1.000  H
  H61      1.0000 0.79480  0.69030  0.60180  Biso   1.000  H
  H62      1.0000 0.70520  0.30970  0.10180  Biso   1.000  H
  H63      1.0000 0.29480  0.80970  0.39820  Biso   1.000  H
  H64      1.0000 0.20520  0.19030  0.89820  Biso   1.000  H
  H65      1.0000 0.12630  0.26620  0.39340  Biso   1.000  H
  H66      1.0000 0.37370  0.73380  0.89340  Biso   1.000  H
  H67      1.0000 0.62630  0.23380  0.60660  Biso   1.000  H
  H68      1.0000 0.87370  0.76620  0.10660  Biso   1.000  H
  H69      1.0000 0.87370  0.73380  0.60660  Biso   1.000  H
  H70      1.0000 0.62630  0.26620  0.10660  Biso   1.000  H
  H71      1.0000 0.37370  0.76620  0.39340  Biso   1.000  H
  H72      1.0000 0.12630  0.23380  0.89340  Biso   1.000  H
  C81      1.0000 0.86645  0.14977  0.52538  Biso   1.000  C
  C82      1.0000 0.63355  0.85023  0.02538  Biso   1.000  C
  C83      1.0000 0.36645  0.35023  0.47462  Biso   1.000  C
  C84      1.0000 0.13355  0.64977  0.97462  Biso   1.000  C
  C85      1.0000 0.13355  0.85023  0.47462  Biso   1.000  C
  C86      1.0000 0.36645  0.14977  0.97462  Biso   1.000  C
  C87      1.0000 0.63355  0.64977  0.52538  Biso   1.000  C
  C88      1.0000 0.86645  0.35023  0.02538  Biso   1.000  C
  C89      1.0000 0.85677  0.13505  0.47232  Biso   1.000  C
  C90      1.0000 0.64323  0.86495  0.97232  Biso   1.000  C
  C91      1.0000 0.35677  0.36495  0.52768  Biso   1.000  C
  C92      1.0000 0.14323  0.63505  0.02768  Biso   1.000  C
  C93      1.0000 0.14323  0.86495  0.52768  Biso   1.000  C
  C94      1.0000 0.35677  0.13505  0.02768  Biso   1.000  C
  C95      1.0000 0.64323  0.63505  0.47232  Biso   1.000  C
  C96      1.0000 0.85677  0.36495  0.97232  Biso   1.000  C
  C97      1.0000 0.77855  0.16639  0.40675  Biso   1.000  C
  C98      1.0000 0.72145  0.83361  0.90675  Biso   1.000  C
  C99      1.0000 0.27855  0.33361  0.59325  Biso   1.000  C
  C100     1.0000 0.22145  0.66639  0.09325  Biso   1.000  C
  C101     1.0000 0.22145  0.83361  0.59325  Biso   1.000  C
  C102     1.0000 0.27855  0.16639  0.09325  Biso   1.000  C
  C103     1.0000 0.72145  0.66639  0.40675  Biso   1.000  C
  C104     1.0000 0.77855  0.33361  0.90675  Biso   1.000  C
  C105     1.0000 0.78937  0.23048  0.37407  Biso   1.000  C
  C106     1.0000 0.71063  0.76952  0.87407  Biso   1.000  C
  C107     1.0000 0.28937  0.26952  0.62593  Biso   1.000  C
  C108     1.0000 0.21063  0.73048  0.12593  Biso   1.000  C
  C109     1.0000 0.21063  0.76952  0.62593  Biso   1.000  C
  C110     1.0000 0.28937  0.23048  0.12593  Biso   1.000  C
  C111     1.0000 0.71063  0.73048  0.37407  Biso   1.000  C
  C112     1.0000 0.78937  0.26952  0.87407  Biso   1.000  C
  C113     1.0000 0.76555  0.21792  0.32791  Biso   1.000  C
  C114     1.0000 0.73445  0.78208  0.82791  Biso   1.000  C
  C115     1.0000 0.26555  0.28208  0.67209  Biso   1.000  C
  C116     1.0000 0.23445  0.71792  0.17209  Biso   1.000  C
  C117     1.0000 0.23445  0.78208  0.67209  Biso   1.000  C
  C118     1.0000 0.26555  0.21792  0.17209  Biso   1.000  C
  C119     1.0000 0.73445  0.71792  0.32791  Biso   1.000  C
  C120     1.0000 0.76555  0.28208  0.82791  Biso   1.000  C
  H73      1.0000 0.77230  0.26030  0.30590  Biso   1.000  H
  H74      1.0000 0.72770  0.73970  0.80590  Biso   1.000  H
  H75      1.0000 0.27230  0.23970  0.69410  Biso   1.000  H
  H76      1.0000 0.22770  0.76030  0.19410  Biso   1.000  H
  H77      1.0000 0.22770  0.73970  0.69410  Biso   1.000  H
  H78      1.0000 0.27230  0.26030  0.19410  Biso   1.000  H
  H79      1.0000 0.72770  0.76030  0.30590  Biso   1.000  H
  H80      1.0000 0.77230  0.23970  0.80590  Biso   1.000  H
  C121     1.0000 0.73216  0.14360  0.31435  Biso   1.000  C
  C122     1.0000 0.76784  0.85640  0.81435  Biso   1.000  C
  C123     1.0000 0.23216  0.35640  0.68565  Biso   1.000  C
  C124     1.0000 0.26784  0.64360  0.18565  Biso   1.000  C
  C125     1.0000 0.26784  0.85640  0.68565  Biso   1.000  C
  C126     1.0000 0.23216  0.14360  0.18565  Biso   1.000  C
  C127     1.0000 0.76784  0.64360  0.31435  Biso   1.000  C
  C128     1.0000 0.73216  0.35640  0.81435  Biso   1.000  C
  H81      1.0000 0.71650  0.13620  0.28350  Biso   1.000  H
  H82      1.0000 0.78350  0.86380  0.78350  Biso   1.000  H
  H83      1.0000 0.21650  0.36380  0.71650  Biso   1.000  H
  H84      1.0000 0.28350  0.63620  0.21650  Biso   1.000  H
  H85      1.0000 0.28350  0.86380  0.71650  Biso   1.000  H
  H86      1.0000 0.21650  0.13620  0.21650  Biso   1.000  H
  H87      1.0000 0.78350  0.63620  0.28350  Biso   1.000  H
  H88      1.0000 0.71650  0.36380  0.78350  Biso   1.000  H
  C129     1.0000 0.72215  0.08083  0.34658  Biso   1.000  C
  C130     1.0000 0.77785  0.91917  0.84658  Biso   1.000  C
  C131     1.0000 0.22215  0.41917  0.65342  Biso   1.000  C
  C132     1.0000 0.27785  0.58083  0.15342  Biso   1.000  C
  C133     1.0000 0.27785  0.91917  0.65342  Biso   1.000  C
  C134     1.0000 0.22215  0.08083  0.15342  Biso   1.000  C
  C135     1.0000 0.77785  0.58083  0.34658  Biso   1.000  C
  C136     1.0000 0.72215  0.41917  0.84658  Biso   1.000  C
  H89      1.0000 0.70050  0.03050  0.33720  Biso   1.000  H
  H90      1.0000 0.79950  0.96950  0.83720  Biso   1.000  H
  H91      1.0000 0.20050  0.46950  0.66280  Biso   1.000  H
  H92      1.0000 0.29950  0.53050  0.16280  Biso   1.000  H
  H93      1.0000 0.29950  0.96950  0.66280  Biso   1.000  H
  H94      1.0000 0.20050  0.03050  0.16280  Biso   1.000  H
  H95      1.0000 0.79950  0.53050  0.33720  Biso   1.000  H
  H96      1.0000 0.70050  0.46950  0.83720  Biso   1.000  H
  C137     1.0000 0.74396  0.09136  0.39332  Biso   1.000  C
  C138     1.0000 0.75604  0.90864  0.89332  Biso   1.000  C
  C139     1.0000 0.24396  0.40864  0.60668  Biso   1.000  C
  C140     1.0000 0.25604  0.59136  0.10668  Biso   1.000  C
  C141     1.0000 0.25604  0.90864  0.60668  Biso   1.000  C
  C142     1.0000 0.24396  0.09136  0.10668  Biso   1.000  C
  C143     1.0000 0.75604  0.59136  0.39332  Biso   1.000  C
  C144     1.0000 0.74396  0.40864  0.89332  Biso   1.000  C
  C145     1.0000 0.82693  0.31042  0.38887  Biso   1.000  C
  C146     1.0000 0.67307  0.68958  0.88887  Biso   1.000  C
  C147     1.0000 0.32693  0.18958  0.61113  Biso   1.000  C
  C148     1.0000 0.17307  0.81042  0.11113  Biso   1.000  C
  C149     1.0000 0.17307  0.68958  0.61113  Biso   1.000  C
  C150     1.0000 0.32693  0.31042  0.11113  Biso   1.000  C
  C151     1.0000 0.67307  0.81042  0.38887  Biso   1.000  C
  C152     1.0000 0.82693  0.18958  0.88887  Biso   1.000  C
  H97      1.0000 0.82980  0.34780  0.36260  Biso   1.000  H
  H98      1.0000 0.67020  0.65220  0.86260  Biso   1.000  H
  H99      1.0000 0.32980  0.15220  0.63740  Biso   1.000  H
  H100     1.0000 0.17020  0.84780  0.13740  Biso   1.000  H
  H101     1.0000 0.17020  0.65220  0.63740  Biso   1.000  H
  H102     1.0000 0.32980  0.34780  0.13740  Biso   1.000  H
  H103     1.0000 0.67020  0.84780  0.36260  Biso   1.000  H
  H104     1.0000 0.82980  0.15220  0.86260  Biso   1.000  H
  H105     1.0000 0.87690  0.29850  0.40000  Biso   1.000  H
  H106     1.0000 0.62310  0.70150  0.90000  Biso   1.000  H
  H107     1.0000 0.37690  0.20150  0.60000  Biso   1.000  H
  H108     1.0000 0.12310  0.79850  0.10000  Biso   1.000  H
  H109     1.0000 0.12310  0.70150  0.60000  Biso   1.000  H
  H110     1.0000 0.37690  0.29850  0.10000  Biso   1.000  H
  H111     1.0000 0.62310  0.79850  0.40000  Biso   1.000  H
  H112     1.0000 0.87690  0.20150  0.90000  Biso   1.000  H
  H113     1.0000 0.79820  0.33610  0.41350  Biso   1.000  H
  H114     1.0000 0.70180  0.66390  0.91350  Biso   1.000  H
  H115     1.0000 0.29820  0.16390  0.58650  Biso   1.000  H
  H116     1.0000 0.20180  0.83610  0.08650  Biso   1.000  H
  H117     1.0000 0.20180  0.66390  0.58650  Biso   1.000  H
  H118     1.0000 0.29820  0.33610  0.08650  Biso   1.000  H
  H119     1.0000 0.70180  0.83610  0.41350  Biso   1.000  H
  H120     1.0000 0.79820  0.16390  0.91350  Biso   1.000  H
  C153     1.0000 0.72922  0.02367  0.42866  Biso   1.000  C
  C154     1.0000 0.77078  0.97633  0.92866  Biso   1.000  C
  C155     1.0000 0.22922  0.47633  0.57134  Biso   1.000  C
  C156     1.0000 0.27078  0.52367  0.07134  Biso   1.000  C
  C157     1.0000 0.27078  0.97633  0.57134  Biso   1.000  C
  C158     1.0000 0.22922  0.02367  0.07134  Biso   1.000  C
  C159     1.0000 0.77078  0.52367  0.42866  Biso   1.000  C
  C160     1.0000 0.72922  0.47633  0.92866  Biso   1.000  C
  H121     1.0000 0.70530  0.97710  0.41350  Biso   1.000  H
  H122     1.0000 0.79470  0.02290  0.91350  Biso   1.000  H
  H123     1.0000 0.20530  0.52290  0.58650  Biso   1.000  H
  H124     1.0000 0.29470  0.47710  0.08650  Biso   1.000  H
  H125     1.0000 0.29470  0.02290  0.58650  Biso   1.000  H
  H126     1.0000 0.20530  0.97710  0.08650  Biso   1.000  H
  H127     1.0000 0.79470  0.47710  0.41350  Biso   1.000  H
  H128     1.0000 0.70530  0.52290  0.91350  Biso   1.000  H
  H129     1.0000 0.69680  0.04480  0.45290  Biso   1.000  H
  H130     1.0000 0.80320  0.95520  0.95290  Biso   1.000  H
  H131     1.0000 0.19680  0.45520  0.54710  Biso   1.000  H
  H132     1.0000 0.30320  0.54480  0.04710  Biso   1.000  H
  H133     1.0000 0.30320  0.95520  0.54710  Biso   1.000  H
  H134     1.0000 0.19680  0.04480  0.04710  Biso   1.000  H
  H135     1.0000 0.80320  0.54480  0.45290  Biso   1.000  H
  H136     1.0000 0.69680  0.45520  0.95290  Biso   1.000  H
  H137     1.0000 0.77610  0.00580  0.44220  Biso   1.000  H
  H138     1.0000 0.72390  0.99420  0.94220  Biso   1.000  H
  H139     1.0000 0.27610  0.49420  0.55780  Biso   1.000  H
  H140     1.0000 0.22390  0.50580  0.05780  Biso   1.000  H
  H141     1.0000 0.22390  0.99420  0.55780  Biso   1.000  H
  H142     1.0000 0.27610  0.00580  0.05780  Biso   1.000  H
  H143     1.0000 0.72390  0.50580  0.44220  Biso   1.000  H
  H144     1.0000 0.77610  0.49420  0.94220  Biso   1.000  H
  C161     1.0000 0.96797  0.63417  0.34167  Biso   1.000  C
  C162     1.0000 0.53203  0.36583  0.84167  Biso   1.000  C
  C163     1.0000 0.46797  0.86583  0.65833  Biso   1.000  C
  C164     1.0000 0.03203  0.13417  0.15833  Biso   1.000  C
  C165     1.0000 0.03203  0.36583  0.65833  Biso   1.000  C
  C166     1.0000 0.46797  0.63417  0.15833  Biso   1.000  C
  C167     1.0000 0.53203  0.13417  0.34167  Biso   1.000  C
  C168     1.0000 0.96797  0.86583  0.84167  Biso   1.000  C
  H145     1.0000 0.94790  0.64450  0.31050  Biso   1.000  H
  H146     1.0000 0.55210  0.35550  0.81050  Biso   1.000  H
  H147     1.0000 0.44790  0.85550  0.68950  Biso   1.000  H
  H148     1.0000 0.05210  0.14450  0.18950  Biso   1.000  H
  H149     1.0000 0.05210  0.35550  0.68950  Biso   1.000  H
  H150     1.0000 0.44790  0.64450  0.18950  Biso   1.000  H
  H151     1.0000 0.55210  0.14450  0.31050  Biso   1.000  H
  H152     1.0000 0.94790  0.85550  0.81050  Biso   1.000  H
  H153     1.0000 0.92560  0.62240  0.36220  Biso   1.000  H
  H154     1.0000 0.57440  0.37760  0.86220  Biso   1.000  H
  H155     1.0000 0.42560  0.87760  0.63780  Biso   1.000  H
  H156     1.0000 0.07440  0.12240  0.13780  Biso   1.000  H
  H157     1.0000 0.07440  0.37760  0.63780  Biso   1.000  H
  H158     1.0000 0.42560  0.62240  0.13780  Biso   1.000  H
  H159     1.0000 0.57440  0.12240  0.36220  Biso   1.000  H
  H160     1.0000 0.92560  0.87760  0.86220  Biso   1.000  H
  C169     1.0000 0.01810  0.55696  0.33964  Biso   1.000  C
  C170     1.0000 0.48190  0.44304  0.83964  Biso   1.000  C
  C171     1.0000 0.51810  0.94304  0.66036  Biso   1.000  C
  C172     1.0000 0.98190  0.05696  0.16036  Biso   1.000  C
  C173     1.0000 0.98190  0.44304  0.66036  Biso   1.000  C
  C174     1.0000 0.51810  0.55696  0.16036  Biso   1.000  C
  C175     1.0000 0.48190  0.05696  0.33964  Biso   1.000  C
  C176     1.0000 0.01810  0.94304  0.83964  Biso   1.000  C
  H161     1.0000 0.05030  0.55980  0.31220  Biso   1.000  H
  H162     1.0000 0.44970  0.44020  0.81220  Biso   1.000  H
  H163     1.0000 0.55030  0.94020  0.68780  Biso   1.000  H
  H164     1.0000 0.94970  0.05980  0.18780  Biso   1.000  H
  H165     1.0000 0.94970  0.44020  0.68780  Biso   1.000  H
  H166     1.0000 0.55030  0.55980  0.18780  Biso   1.000  H
  H167     1.0000 0.44970  0.05980  0.31220  Biso   1.000  H
  H168     1.0000 0.05030  0.94020  0.81220  Biso   1.000  H
  H169     1.0000 0.05010  0.55510  0.36720  Biso   1.000  H
  H170     1.0000 0.44990  0.44490  0.86720  Biso   1.000  H
  H171     1.0000 0.55010  0.94490  0.63280  Biso   1.000  H
  H172     1.0000 0.94990  0.05510  0.13280  Biso   1.000  H
  H173     1.0000 0.94990  0.44490  0.63280  Biso   1.000  H
  H174     1.0000 0.55010  0.55510  0.13280  Biso   1.000  H
  H175     1.0000 0.44990  0.05510  0.36720  Biso   1.000  H
  H176     1.0000 0.05010  0.94490  0.86720  Biso   1.000  H
  C177     1.0000 0.97016  0.47851  0.33743  Biso   1.000  C
  C178     1.0000 0.52984  0.52149  0.83743  Biso   1.000  C
  C179     1.0000 0.47016  0.02149  0.66257  Biso   1.000  C
  C180     1.0000 0.02984  0.97851  0.16257  Biso   1.000  C
  C181     1.0000 0.02984  0.52149  0.66257  Biso   1.000  C
  C182     1.0000 0.47016  0.47851  0.16257  Biso   1.000  C
  C183     1.0000 0.52984  0.97851  0.33743  Biso   1.000  C
  C184     1.0000 0.97016  0.02149  0.83743  Biso   1.000  C
  H177     1.0000 0.93670  0.48200  0.31060  Biso   1.000  H
  H178     1.0000 0.56330  0.51800  0.81060  Biso   1.000  H
  H179     1.0000 0.43670  0.01800  0.68940  Biso   1.000  H
  H180     1.0000 0.06330  0.98200  0.18940  Biso   1.000  H
  H181     1.0000 0.06330  0.51800  0.68940  Biso   1.000  H
  H182     1.0000 0.43670  0.48200  0.18940  Biso   1.000  H
  H183     1.0000 0.56330  0.98200  0.31060  Biso   1.000  H
  H184     1.0000 0.93670  0.01800  0.81060  Biso   1.000  H
  H185     1.0000 0.93920  0.47530  0.36540  Biso   1.000  H
  H186     1.0000 0.56080  0.52470  0.86540  Biso   1.000  H
  H187     1.0000 0.43920  0.02470  0.63460  Biso   1.000  H
  H188     1.0000 0.06080  0.97530  0.13460  Biso   1.000  H
  H189     1.0000 0.06080  0.52470  0.63460  Biso   1.000  H
  H190     1.0000 0.43920  0.47530  0.13460  Biso   1.000  H
  H191     1.0000 0.56080  0.97530  0.36540  Biso   1.000  H
  H192     1.0000 0.93920  0.02470  0.86540  Biso   1.000  H
  C185     1.0000 0.01751  0.39928  0.33352  Biso   1.000  C
  C186     1.0000 0.48249  0.60072  0.83352  Biso   1.000  C
  C187     1.0000 0.51751  0.10072  0.66648  Biso   1.000  C
  C188     1.0000 0.98249  0.89928  0.16648  Biso   1.000  C
  C189     1.0000 0.98249  0.60072  0.66648  Biso   1.000  C
  C190     1.0000 0.51751  0.39928  0.16648  Biso   1.000  C
  C191     1.0000 0.48249  0.89928  0.33352  Biso   1.000  C
  C192     1.0000 0.01751  0.10072  0.83352  Biso   1.000  C
  H193     1.0000 0.98490  0.35140  0.33230  Biso   1.000  H
  H194     1.0000 0.51510  0.64860  0.83230  Biso   1.000  H
  H195     1.0000 0.48490  0.14860  0.66770  Biso   1.000  H
  H196     1.0000 0.01510  0.85140  0.16770  Biso   1.000  H
  H197     1.0000 0.01510  0.64860  0.66770  Biso   1.000  H
  H198     1.0000 0.48490  0.35140  0.16770  Biso   1.000  H
  H199     1.0000 0.51510  0.85140  0.33230  Biso   1.000  H
  H200     1.0000 0.98490  0.14860  0.83230  Biso   1.000  H
  H201     1.0000 0.05000  0.39490  0.36030  Biso   1.000  H
  H202     1.0000 0.45000  0.60510  0.86030  Biso   1.000  H
  H203     1.0000 0.55000  0.10510  0.63970  Biso   1.000  H
  H204     1.0000 0.95000  0.89490  0.13970  Biso   1.000  H
  H205     1.0000 0.95000  0.60510  0.63970  Biso   1.000  H
  H206     1.0000 0.55000  0.39490  0.13970  Biso   1.000  H
  H207     1.0000 0.45000  0.89490  0.36030  Biso   1.000  H
  H208     1.0000 0.05000  0.10510  0.86030  Biso   1.000  H
  H209     1.0000 0.04750  0.40160  0.30550  Biso   1.000  H
  H210     1.0000 0.45250  0.59840  0.80550  Biso   1.000  H
  H211     1.0000 0.54750  0.09840  0.69450  Biso   1.000  H
  H212     1.0000 0.95250  0.90160  0.19450  Biso   1.000  H
  H213     1.0000 0.95250  0.59840  0.69450  Biso   1.000  H
  H214     1.0000 0.54750  0.40160  0.19450  Biso   1.000  H
  H215     1.0000 0.45250  0.90160  0.30550  Biso   1.000  H
  H216     1.0000 0.04750  0.09840  0.80550  Biso   1.000  H
  C193     1.0000 0.03923  0.70146  0.40752  Biso   1.000  C
  C194     1.0000 0.46077  0.29854  0.90752  Biso   1.000  C
  C195     1.0000 0.53923  0.79854  0.59248  Biso   1.000  C
  C196     1.0000 0.96077  0.20146  0.09248  Biso   1.000  C
  C197     1.0000 0.96077  0.29854  0.59248  Biso   1.000  C
  C198     1.0000 0.53923  0.70146  0.09248  Biso   1.000  C
  C199     1.0000 0.46077  0.20146  0.40752  Biso   1.000  C
  C200     1.0000 0.03923  0.79854  0.90752  Biso   1.000  C
  H217     1.0000 0.05400  0.75590  0.41950  Biso   1.000  H
  H218     1.0000 0.44600  0.24410  0.91950  Biso   1.000  H
  H219     1.0000 0.55400  0.74410  0.58050  Biso   1.000  H
  H220     1.0000 0.94600  0.25590  0.08050  Biso   1.000  H
  H221     1.0000 0.94600  0.24410  0.58050  Biso   1.000  H
  H222     1.0000 0.55400  0.75590  0.08050  Biso   1.000  H
  H223     1.0000 0.44600  0.25590  0.41950  Biso   1.000  H
  H224     1.0000 0.05400  0.74410  0.91950  Biso   1.000  H
  H225     1.0000 0.08450  0.66760  0.40510  Biso   1.000  H
  H226     1.0000 0.41550  0.33240  0.90510  Biso   1.000  H
  H227     1.0000 0.58450  0.83240  0.59490  Biso   1.000  H
  H228     1.0000 0.91550  0.16760  0.09490  Biso   1.000  H
  H229     1.0000 0.91550  0.33240  0.59490  Biso   1.000  H
  H230     1.0000 0.58450  0.66760  0.09490  Biso   1.000  H
  H231     1.0000 0.41550  0.16760  0.40510  Biso   1.000  H
  H232     1.0000 0.08450  0.83240  0.90510  Biso   1.000  H
  C201     1.0000 0.98621  0.66073  0.44278  Biso   1.000  C
  C202     1.0000 0.51379  0.33927  0.94278  Biso   1.000  C
  C203     1.0000 0.48621  0.83927  0.55722  Biso   1.000  C
  C204     1.0000 0.01379  0.16073  0.05722  Biso   1.000  C
  C205     1.0000 0.01379  0.33927  0.55722  Biso   1.000  C
  C206     1.0000 0.48621  0.66073  0.05722  Biso   1.000  C
  C207     1.0000 0.51379  0.16073  0.44278  Biso   1.000  C
  C208     1.0000 0.98621  0.83927  0.94278  Biso   1.000  C
  H233     1.0000 0.93760  0.68840  0.44190  Biso   1.000  H
  H234     1.0000 0.56240  0.31160  0.94190  Biso   1.000  H
  H235     1.0000 0.43760  0.81160  0.55810  Biso   1.000  H
  H236     1.0000 0.06240  0.18840  0.05810  Biso   1.000  H
  H237     1.0000 0.06240  0.31160  0.55810  Biso   1.000  H
  H238     1.0000 0.43760  0.68840  0.05810  Biso   1.000  H
  H239     1.0000 0.56240  0.18840  0.44190  Biso   1.000  H
  H240     1.0000 0.93760  0.81160  0.94190  Biso   1.000  H
  H241     1.0000 0.97880  0.60240  0.43460  Biso   1.000  H
  H242     1.0000 0.52120  0.39760  0.93460  Biso   1.000  H
  H243     1.0000 0.47880  0.89760  0.56540  Biso   1.000  H
  H244     1.0000 0.02120  0.10240  0.06540  Biso   1.000  H
  H245     1.0000 0.02120  0.39760  0.56540  Biso   1.000  H
  H246     1.0000 0.47880  0.60240  0.06540  Biso   1.000  H
  H247     1.0000 0.52120  0.10240  0.43460  Biso   1.000  H
  H248     1.0000 0.97880  0.89760  0.93460  Biso   1.000  H
  C209     1.0000 0.01920  0.66700  0.49194  Biso   1.000  C
  C210     1.0000 0.48080  0.33300  0.99194  Biso   1.000  C
  C211     1.0000 0.51920  0.83300  0.50806  Biso   1.000  C
  C212     1.0000 0.98080  0.16700  0.00806  Biso   1.000  C
  C213     1.0000 0.98080  0.33300  0.50806  Biso   1.000  C
  C214     1.0000 0.51920  0.66700  0.00806  Biso   1.000  C
  C215     1.0000 0.48080  0.16700  0.49194  Biso   1.000  C
  C216     1.0000 0.01920  0.83300  0.99194  Biso   1.000  C
  H249     1.0000 0.02400  0.72550  0.50050  Biso   1.000  H
  H250     1.0000 0.47600  0.27450  0.00050  Biso   1.000  H
  H251     1.0000 0.52400  0.77450  0.49950  Biso   1.000  H
  H252     1.0000 0.97600  0.22550  0.99950  Biso   1.000  H
  H253     1.0000 0.97600  0.27450  0.49950  Biso   1.000  H
  H254     1.0000 0.52400  0.72550  0.99950  Biso   1.000  H
  H255     1.0000 0.47600  0.22550  0.50050  Biso   1.000  H
  H256     1.0000 0.02400  0.77450  0.00050  Biso   1.000  H
  H257     1.0000 0.06930  0.64250  0.49210  Biso   1.000  H
  H258     1.0000 0.43070  0.35750  0.99210  Biso   1.000  H
  H259     1.0000 0.56930  0.85750  0.50790  Biso   1.000  H
  H260     1.0000 0.93070  0.14250  0.00790  Biso   1.000  H
  H261     1.0000 0.93070  0.35750  0.50790  Biso   1.000  H
  H262     1.0000 0.56930  0.64250  0.00790  Biso   1.000  H
  H263     1.0000 0.43070  0.14250  0.49210  Biso   1.000  H
  H264     1.0000 0.06930  0.85750  0.99210  Biso   1.000  H
  C217     1.0000 0.97020  0.62250  0.52796  Biso   1.000  C
  C218     1.0000 0.52980  0.37750  0.02796  Biso   1.000  C
  C219     1.0000 0.47020  0.87750  0.47204  Biso   1.000  C
  C220     1.0000 0.02980  0.12250  0.97204  Biso   1.000  C
  C221     1.0000 0.02980  0.37750  0.47204  Biso   1.000  C
  C222     1.0000 0.47020  0.62250  0.97204  Biso   1.000  C
  C223     1.0000 0.52980  0.12250  0.52796  Biso   1.000  C
  C224     1.0000 0.97020  0.87750  0.02796  Biso   1.000  C
  H265     1.0000 0.99270  0.62750  0.55840  Biso   1.000  H
  H266     1.0000 0.50730  0.37250  0.05840  Biso   1.000  H
  H267     1.0000 0.49270  0.87250  0.44160  Biso   1.000  H
  H268     1.0000 0.00730  0.12750  0.94160  Biso   1.000  H
  H269     1.0000 0.00730  0.37250  0.44160  Biso   1.000  H
  H270     1.0000 0.49270  0.62750  0.94160  Biso   1.000  H
  H271     1.0000 0.50730  0.12750  0.55840  Biso   1.000  H
  H272     1.0000 0.99270  0.87250  0.05840  Biso   1.000  H
  H273     1.0000 0.96580  0.56440  0.51980  Biso   1.000  H
  H274     1.0000 0.53420  0.43560  0.01980  Biso   1.000  H
  H275     1.0000 0.46580  0.93560  0.48020  Biso   1.000  H
  H276     1.0000 0.03420  0.06440  0.98020  Biso   1.000  H
  H277     1.0000 0.03420  0.43560  0.48020  Biso   1.000  H
  H278     1.0000 0.46580  0.56440  0.98020  Biso   1.000  H
  H279     1.0000 0.53420  0.06440  0.51980  Biso   1.000  H
  H280     1.0000 0.96580  0.93560  0.01980  Biso   1.000  H
  H281     1.0000 0.92090  0.64760  0.52840  Biso   1.000  H
  H282     1.0000 0.57910  0.35240  0.02840  Biso   1.000  H
  H283     1.0000 0.42090  0.85240  0.47160  Biso   1.000  H
  H284     1.0000 0.07910  0.14760  0.97160  Biso   1.000  H
  H285     1.0000 0.07910  0.35240  0.47160  Biso   1.000  H
  H286     1.0000 0.42090  0.64760  0.97160  Biso   1.000  H
  H287     1.0000 0.57910  0.14760  0.52840  Biso   1.000  H
  H288     1.0000 0.92090  0.85240  0.02840  Biso   1.000  H
  C225     1.0000 0.94800  0.78283  0.36129  Biso   1.000  C
  C226     1.0000 0.55200  0.21717  0.86129  Biso   1.000  C
  C227     1.0000 0.44800  0.71717  0.63871  Biso   1.000  C
  C228     1.0000 0.05200  0.28283  0.13871  Biso   1.000  C
  C229     1.0000 0.05200  0.21717  0.63871  Biso   1.000  C
  C230     1.0000 0.44800  0.78283  0.13871  Biso   1.000  C
  C231     1.0000 0.55200  0.28283  0.36129  Biso   1.000  C
  C232     1.0000 0.94800  0.71717  0.86129  Biso   1.000  C
  H289     1.0000 0.90380  0.76160  0.37750  Biso   1.000  H
  H290     1.0000 0.59620  0.23840  0.87750  Biso   1.000  H
  H291     1.0000 0.40380  0.73840  0.62250  Biso   1.000  H
  H292     1.0000 0.09620  0.26160  0.12250  Biso   1.000  H
  H293     1.0000 0.09620  0.23840  0.62250  Biso   1.000  H
  H294     1.0000 0.40380  0.76160  0.12250  Biso   1.000  H
  H295     1.0000 0.59620  0.26160  0.37750  Biso   1.000  H
  H296     1.0000 0.90380  0.73840  0.87750  Biso   1.000  H
  H297     1.0000 0.96870  0.82770  0.38020  Biso   1.000  H
  H298     1.0000 0.53130  0.17230  0.88020  Biso   1.000  H
  H299     1.0000 0.46870  0.67230  0.61980  Biso   1.000  H
  H300     1.0000 0.03130  0.32770  0.11980  Biso   1.000  H
  H301     1.0000 0.03130  0.17230  0.61980  Biso   1.000  H
  H302     1.0000 0.46870  0.82770  0.11980  Biso   1.000  H
  H303     1.0000 0.53130  0.32770  0.38020  Biso   1.000  H
  H304     1.0000 0.96870  0.67230  0.88020  Biso   1.000  H
  C233     1.0000 0.92295  0.81927  0.31460  Biso   1.000  C
  C234     1.0000 0.57705  0.18073  0.81460  Biso   1.000  C
  C235     1.0000 0.42295  0.68073  0.68540  Biso   1.000  C
  C236     1.0000 0.07705  0.31927  0.18540  Biso   1.000  C
  C237     1.0000 0.07705  0.18073  0.68540  Biso   1.000  C
  C238     1.0000 0.42295  0.81927  0.18540  Biso   1.000  C
  C239     1.0000 0.57705  0.31927  0.31460  Biso   1.000  C
  C240     1.0000 0.92295  0.68073  0.81460  Biso   1.000  C
  H305     1.0000 0.90010  0.77590  0.29550  Biso   1.000  H
  H306     1.0000 0.59990  0.22410  0.79550  Biso   1.000  H
  H307     1.0000 0.40010  0.72410  0.70450  Biso   1.000  H
  H308     1.0000 0.09990  0.27590  0.20450  Biso   1.000  H
  H309     1.0000 0.09990  0.22410  0.70450  Biso   1.000  H
  H310     1.0000 0.40010  0.77590  0.20450  Biso   1.000  H
  H311     1.0000 0.59990  0.27590  0.29550  Biso   1.000  H
  H312     1.0000 0.90010  0.72410  0.79550  Biso   1.000  H
  H313     1.0000 0.96620  0.84120  0.29780  Biso   1.000  H
  H314     1.0000 0.53380  0.15880  0.79780  Biso   1.000  H
  H315     1.0000 0.46620  0.65880  0.70220  Biso   1.000  H
  H316     1.0000 0.03380  0.34120  0.20220  Biso   1.000  H
  H317     1.0000 0.03380  0.15880  0.70220  Biso   1.000  H
  H318     1.0000 0.46620  0.84120  0.20220  Biso   1.000  H
  H319     1.0000 0.53380  0.34120  0.29780  Biso   1.000  H
  H320     1.0000 0.96620  0.65880  0.79780  Biso   1.000  H
  C241     1.0000 0.86597  0.88926  0.32338  Biso   1.000  C
  C242     1.0000 0.63403  0.11074  0.82338  Biso   1.000  C
  C243     1.0000 0.36597  0.61074  0.67662  Biso   1.000  C
  C244     1.0000 0.13403  0.38926  0.17662  Biso   1.000  C
  C245     1.0000 0.13403  0.11074  0.67662  Biso   1.000  C
  C246     1.0000 0.36597  0.88926  0.17662  Biso   1.000  C
  C247     1.0000 0.63403  0.38926  0.32338  Biso   1.000  C
  C248     1.0000 0.86597  0.61074  0.82338  Biso   1.000  C
  H321     1.0000 0.82200  0.86640  0.33900  Biso   1.000  H
  H322     1.0000 0.67800  0.13360  0.83900  Biso   1.000  H
  H323     1.0000 0.32200  0.63360  0.66100  Biso   1.000  H
  H324     1.0000 0.17800  0.36640  0.16100  Biso   1.000  H
  H325     1.0000 0.17800  0.13360  0.66100  Biso   1.000  H
  H326     1.0000 0.32200  0.86640  0.16100  Biso   1.000  H
  H327     1.0000 0.67800  0.36640  0.33900  Biso   1.000  H
  H328     1.0000 0.82200  0.63360  0.83900  Biso   1.000  H
  H329     1.0000 0.88830  0.93080  0.34390  Biso   1.000  H
  H330     1.0000 0.61170  0.06920  0.84390  Biso   1.000  H
  H331     1.0000 0.38830  0.56920  0.65610  Biso   1.000  H
  H332     1.0000 0.11170  0.43080  0.15610  Biso   1.000  H
  H333     1.0000 0.11170  0.06920  0.65610  Biso   1.000  H
  H334     1.0000 0.38830  0.93080  0.15610  Biso   1.000  H
  H335     1.0000 0.61170  0.43080  0.34390  Biso   1.000  H
  H336     1.0000 0.88830  0.56920  0.84390  Biso   1.000  H
  C249     1.0000 0.84170  0.93090  0.27787  Biso   1.000  C
  C250     1.0000 0.65830  0.06910  0.77787  Biso   1.000  C
  C251     1.0000 0.34170  0.56910  0.72213  Biso   1.000  C
  C252     1.0000 0.15830  0.43090  0.22213  Biso   1.000  C
  C253     1.0000 0.15830  0.06910  0.72213  Biso   1.000  C
  C254     1.0000 0.34170  0.93090  0.22213  Biso   1.000  C
  C255     1.0000 0.65830  0.43090  0.27787  Biso   1.000  C
  C256     1.0000 0.84170  0.56910  0.77787  Biso   1.000  C
  H337     1.0000 0.80600  0.97450  0.28460  Biso   1.000  H
  H338     1.0000 0.69400  0.02550  0.78460  Biso   1.000  H
  H339     1.0000 0.30600  0.52550  0.71540  Biso   1.000  H
  H340     1.0000 0.19400  0.47450  0.21540  Biso   1.000  H
  H341     1.0000 0.19400  0.02550  0.71540  Biso   1.000  H
  H342     1.0000 0.30600  0.97450  0.21540  Biso   1.000  H
  H343     1.0000 0.69400  0.47450  0.28460  Biso   1.000  H
  H344     1.0000 0.80600  0.52550  0.78460  Biso   1.000  H
  H345     1.0000 0.81880  0.89010  0.25770  Biso   1.000  H
  H346     1.0000 0.68120  0.10990  0.75770  Biso   1.000  H
  H347     1.0000 0.31880  0.60990  0.74230  Biso   1.000  H
  H348     1.0000 0.18120  0.39010  0.24230  Biso   1.000  H
  H349     1.0000 0.18120  0.10990  0.74230  Biso   1.000  H
  H350     1.0000 0.31880  0.89010  0.24230  Biso   1.000  H
  H351     1.0000 0.68120  0.39010  0.25770  Biso   1.000  H
  H352     1.0000 0.81880  0.60990  0.75770  Biso   1.000  H
  H353     1.0000 0.88500  0.95450  0.26260  Biso   1.000  H
  H354     1.0000 0.61500  0.04550  0.76260  Biso   1.000  H
  H355     1.0000 0.38500  0.54550  0.73740  Biso   1.000  H
  H356     1.0000 0.11500  0.45450  0.23740  Biso   1.000  H
  H357     1.0000 0.11500  0.04550  0.73740  Biso   1.000  H
  H358     1.0000 0.38500  0.95450  0.23740  Biso   1.000  H
  H359     1.0000 0.61500  0.45450  0.26260  Biso   1.000  H
  H360     1.0000 0.88500  0.54550  0.76260  Biso   1.000  H
  C257     1.0000 0.07036  0.73508  0.32532  Biso   1.000  C
  C258     1.0000 0.42964  0.26492  0.82532  Biso   1.000  C
  C259     1.0000 0.57036  0.76492  0.67468  Biso   1.000  C
  C260     1.0000 0.92964  0.23508  0.17468  Biso   1.000  C
  C261     1.0000 0.92964  0.26492  0.67468  Biso   1.000  C
  C262     1.0000 0.57036  0.73508  0.17468  Biso   1.000  C
  C263     1.0000 0.42964  0.23508  0.32532  Biso   1.000  C
  C264     1.0000 0.07036  0.76492  0.82532  Biso   1.000  C
  H361     1.0000 0.04990  0.74120  0.29400  Biso   1.000  H
  H362     1.0000 0.45010  0.25880  0.79400  Biso   1.000  H
  H363     1.0000 0.54990  0.75880  0.70600  Biso   1.000  H
  H364     1.0000 0.95010  0.24120  0.20600  Biso   1.000  H
  H365     1.0000 0.95010  0.25880  0.70600  Biso   1.000  H
  H366     1.0000 0.54990  0.74120  0.20600  Biso   1.000  H
  H367     1.0000 0.45010  0.24120  0.29400  Biso   1.000  H
  H368     1.0000 0.04990  0.75880  0.79400  Biso   1.000  H
  H369     1.0000 0.10600  0.68900  0.32460  Biso   1.000  H
  H370     1.0000 0.39400  0.31100  0.82460  Biso   1.000  H
  H371     1.0000 0.60600  0.81100  0.67540  Biso   1.000  H
  H372     1.0000 0.89400  0.18900  0.17540  Biso   1.000  H
  H373     1.0000 0.89400  0.31100  0.67540  Biso   1.000  H
  H374     1.0000 0.60600  0.68900  0.17540  Biso   1.000  H
  H375     1.0000 0.39400  0.18900  0.32460  Biso   1.000  H
  H376     1.0000 0.10600  0.81100  0.82460  Biso   1.000  H
  C265     1.0000 0.11284  0.81528  0.33815  Biso   1.000  C
  C266     1.0000 0.38716  0.18472  0.83815  Biso   1.000  C
  C267     1.0000 0.61284  0.68472  0.66185  Biso   1.000  C
  C268     1.0000 0.88716  0.31528  0.16185  Biso   1.000  C
  C269     1.0000 0.88716  0.18472  0.66185  Biso   1.000  C
  C270     1.0000 0.61284  0.81528  0.16185  Biso   1.000  C
  C271     1.0000 0.38716  0.31528  0.33815  Biso   1.000  C
  C272     1.0000 0.11284  0.68472  0.83815  Biso   1.000  C
  H377     1.0000 0.14200  0.80550  0.36640  Biso   1.000  H
  H378     1.0000 0.35800  0.19450  0.86640  Biso   1.000  H
  H379     1.0000 0.64200  0.69450  0.63360  Biso   1.000  H
  H380     1.0000 0.85800  0.30550  0.13360  Biso   1.000  H
  H381     1.0000 0.85800  0.19450  0.63360  Biso   1.000  H
  H382     1.0000 0.64200  0.80550  0.13360  Biso   1.000  H
  H383     1.0000 0.35800  0.30550  0.36640  Biso   1.000  H
  H384     1.0000 0.14200  0.69450  0.86640  Biso   1.000  H
  H385     1.0000 0.07660  0.85920  0.34490  Biso   1.000  H
  H386     1.0000 0.42340  0.14080  0.84490  Biso   1.000  H
  H387     1.0000 0.57660  0.64080  0.65510  Biso   1.000  H
  H388     1.0000 0.92340  0.35920  0.15510  Biso   1.000  H
  H389     1.0000 0.92340  0.14080  0.65510  Biso   1.000  H
  H390     1.0000 0.57660  0.85920  0.15510  Biso   1.000  H
  H391     1.0000 0.42340  0.35920  0.34490  Biso   1.000  H
  H392     1.0000 0.07660  0.64080  0.84490  Biso   1.000  H
  C273     1.0000 0.16590  0.84490  0.29900  Biso   1.000  C
  C274     1.0000 0.33410  0.15510  0.79900  Biso   1.000  C
  C275     1.0000 0.66590  0.65510  0.70100  Biso   1.000  C
  C276     1.0000 0.83410  0.34490  0.20100  Biso   1.000  C
  C277     1.0000 0.83410  0.15510  0.70100  Biso   1.000  C
  C278     1.0000 0.66590  0.84490  0.20100  Biso   1.000  C
  C279     1.0000 0.33410  0.34490  0.29900  Biso   1.000  C
  C280     1.0000 0.16590  0.65510  0.79900  Biso   1.000  C
  H393     1.0000 0.19780  0.88920  0.31120  Biso   1.000  H
  H394     1.0000 0.30220  0.11080  0.81120  Biso   1.000  H
  H395     1.0000 0.69780  0.61080  0.68880  Biso   1.000  H
  H396     1.0000 0.80220  0.38920  0.18880  Biso   1.000  H
  H397     1.0000 0.80220  0.11080  0.68880  Biso   1.000  H
  H398     1.0000 0.69780  0.88920  0.18880  Biso   1.000  H
  H399     1.0000 0.30220  0.38920  0.31120  Biso   1.000  H
  H400     1.0000 0.19780  0.61080  0.81120  Biso   1.000  H
  H401     1.0000 0.19840  0.79880  0.29000  Biso   1.000  H
  H402     1.0000 0.30160  0.20120  0.79000  Biso   1.000  H
  H403     1.0000 0.69840  0.70120  0.71000  Biso   1.000  H
  H404     1.0000 0.80160  0.29880  0.21000  Biso   1.000  H
  H405     1.0000 0.80160  0.20120  0.71000  Biso   1.000  H
  H406     1.0000 0.69840  0.79880  0.21000  Biso   1.000  H
  H407     1.0000 0.30160  0.29880  0.29000  Biso   1.000  H
  H408     1.0000 0.19840  0.70120  0.79000  Biso   1.000  H
  C281     1.0000 0.12600  0.87670  0.25599  Biso   1.000  C
  C282     1.0000 0.37400  0.12330  0.75599  Biso   1.000  C
  C283     1.0000 0.62600  0.62330  0.74401  Biso   1.000  C
  C284     1.0000 0.87400  0.37670  0.24401  Biso   1.000  C
  C285     1.0000 0.87400  0.12330  0.74401  Biso   1.000  C
  C286     1.0000 0.62600  0.87670  0.24401  Biso   1.000  C
  C287     1.0000 0.37400  0.37670  0.25599  Biso   1.000  C
  C288     1.0000 0.12600  0.62330  0.75599  Biso   1.000  C
  H409     1.0000 0.16240  0.89750  0.23400  Biso   1.000  H
  H410     1.0000 0.33760  0.10250  0.73400  Biso   1.000  H
  H411     1.0000 0.66240  0.60250  0.76600  Biso   1.000  H
  H412     1.0000 0.83760  0.39750  0.26600  Biso   1.000  H
  H413     1.0000 0.83760  0.10250  0.76600  Biso   1.000  H
  H414     1.0000 0.66240  0.89750  0.26600  Biso   1.000  H
  H415     1.0000 0.33760  0.39750  0.23400  Biso   1.000  H
  H416     1.0000 0.16240  0.60250  0.73400  Biso   1.000  H
  H417     1.0000 0.09220  0.92100  0.26470  Biso   1.000  H
  H418     1.0000 0.40780  0.07900  0.76470  Biso   1.000  H
  H419     1.0000 0.59220  0.57900  0.73530  Biso   1.000  H
  H420     1.0000 0.90780  0.42100  0.23530  Biso   1.000  H
  H421     1.0000 0.90780  0.07900  0.73530  Biso   1.000  H
  H422     1.0000 0.59220  0.92100  0.23530  Biso   1.000  H
  H423     1.0000 0.40780  0.42100  0.26470  Biso   1.000  H
  H424     1.0000 0.09220  0.57900  0.76470  Biso   1.000  H
  H425     1.0000 0.09790  0.83190  0.24190  Biso   1.000  H
  H426     1.0000 0.40210  0.16810  0.74190  Biso   1.000  H
  H427     1.0000 0.59790  0.66810  0.75810  Biso   1.000  H
  H428     1.0000 0.90210  0.33190  0.25810  Biso   1.000  H
  H429     1.0000 0.90210  0.16810  0.75810  Biso   1.000  H
  H430     1.0000 0.59790  0.83190  0.25810  Biso   1.000  H
  H431     1.0000 0.40210  0.33190  0.24190  Biso   1.000  H
  H432     1.0000 0.09790  0.66810  0.74190  Biso   1.000  H
  C289     1.0000 0.06190  0.04190  0.34497  Biso   1.000  C
  C290     1.0000 0.43810  0.95810  0.84497  Biso   1.000  C
  C291     1.0000 0.56190  0.45810  0.65503  Biso   1.000  C
  C292     1.0000 0.93810  0.54190  0.15503  Biso   1.000  C
  C293     1.0000 0.93810  0.95810  0.65503  Biso   1.000  C
  C294     1.0000 0.56190  0.04190  0.15503  Biso   1.000  C
  C295     1.0000 0.43810  0.54190  0.34497  Biso   1.000  C
  C296     1.0000 0.06190  0.45810  0.84497  Biso   1.000  C
  H433     1.0000 0.06000  0.04860  0.37840  Biso   1.000  H
  H434     1.0000 0.44000  0.95140  0.87840  Biso   1.000  H
  H435     1.0000 0.56000  0.45140  0.62160  Biso   1.000  H
  H436     1.0000 0.94000  0.54860  0.12160  Biso   1.000  H
  H437     1.0000 0.94000  0.95140  0.62160  Biso   1.000  H
  H438     1.0000 0.56000  0.04860  0.12160  Biso   1.000  H
  H439     1.0000 0.44000  0.54860  0.37840  Biso   1.000  H
  H440     1.0000 0.06000  0.45140  0.87840  Biso   1.000  H
  H441     1.0000 0.11170  0.02480  0.33590  Biso   1.000  H
  H442     1.0000 0.38830  0.97520  0.83590  Biso   1.000  H
  H443     1.0000 0.61170  0.47520  0.66410  Biso   1.000  H
  H444     1.0000 0.88830  0.52480  0.16410  Biso   1.000  H
  H445     1.0000 0.88830  0.97520  0.66410  Biso   1.000  H
  H446     1.0000 0.61170  0.02480  0.16410  Biso   1.000  H
  H447     1.0000 0.38830  0.52480  0.33590  Biso   1.000  H
  H448     1.0000 0.11170  0.47520  0.83590  Biso   1.000  H
  H449     1.0000 0.02620  0.00000  0.33550  Biso   1.000  H
  H450     1.0000 0.47380  0.00000  0.83550  Biso   1.000  H
  H451     1.0000 0.52620  0.50000  0.66450  Biso   1.000  H
  H452     1.0000 0.97380  0.50000  0.16450  Biso   1.000  H
  H453     1.0000 0.97380  0.00000  0.66450  Biso   1.000  H
  H454     1.0000 0.52620  0.00000  0.16450  Biso   1.000  H
  H455     1.0000 0.47380  0.50000  0.33550  Biso   1.000  H
  H456     1.0000 0.02620  0.50000  0.83550  Biso   1.000  H
  C297     1.0000 0.94420  0.14040  0.33340  Biso   1.000  C
  C298     1.0000 0.55580  0.85960  0.83340  Biso   1.000  C
  C299     1.0000 0.44420  0.35960  0.66660  Biso   1.000  C
  C300     1.0000 0.05580  0.64040  0.16660  Biso   1.000  C
  C301     1.0000 0.05580  0.85960  0.66660  Biso   1.000  C
  C302     1.0000 0.44420  0.14040  0.16660  Biso   1.000  C
  C303     1.0000 0.55580  0.64040  0.33340  Biso   1.000  C
  C304     1.0000 0.94420  0.35960  0.83340  Biso   1.000  C
  H457     1.0000 0.93360  0.19120  0.35010  Biso   1.000  H
  H458     1.0000 0.56640  0.80880  0.85010  Biso   1.000  H
  H459     1.0000 0.43360  0.30880  0.64990  Biso   1.000  H
  H460     1.0000 0.06640  0.69120  0.14990  Biso   1.000  H
  H461     1.0000 0.06640  0.80880  0.64990  Biso   1.000  H
  H462     1.0000 0.43360  0.19120  0.14990  Biso   1.000  H
  H463     1.0000 0.56640  0.69120  0.35010  Biso   1.000  H
  H464     1.0000 0.93360  0.30880  0.85010  Biso   1.000  H
  H465     1.0000 0.93330  0.09330  0.35320  Biso   1.000  H
  H466     1.0000 0.56670  0.90670  0.85320  Biso   1.000  H
  H467     1.0000 0.43330  0.40670  0.64680  Biso   1.000  H
  H468     1.0000 0.06670  0.59330  0.14680  Biso   1.000  H
  H469     1.0000 0.06670  0.90670  0.64680  Biso   1.000  H
  H470     1.0000 0.43330  0.09330  0.14680  Biso   1.000  H
  H471     1.0000 0.56670  0.59330  0.35320  Biso   1.000  H
  H472     1.0000 0.93330  0.40670  0.85320  Biso   1.000  H
  H473     1.0000 0.91350  0.13770  0.30570  Biso   1.000  H
  H474     1.0000 0.58650  0.86230  0.80570  Biso   1.000  H
  H475     1.0000 0.41350  0.36230  0.69430  Biso   1.000  H
  H476     1.0000 0.08650  0.63770  0.19430  Biso   1.000  H
  H477     1.0000 0.08650  0.86230  0.69430  Biso   1.000  H
  H478     1.0000 0.41350  0.13770  0.19430  Biso   1.000  H
  H479     1.0000 0.58650  0.63770  0.30570  Biso   1.000  H
  H480     1.0000 0.91350  0.36230  0.80570  Biso   1.000  H
