data_image0
_cell_length_a       18.512
_cell_length_b       15.92
_cell_length_c       27.967
_cell_angle_alpha    90
_cell_angle_beta     90
_cell_angle_gamma    90

_symmetry_space_group_name_H-M    "P 1"
_symmetry_int_tables_number       1

loop_
  _symmetry_equiv_pos_as_xyz
  'x, y, z'

loop_
  _atom_site_label
  _atom_site_occupancy
  _atom_site_fract_x
  _atom_site_fract_y
  _atom_site_fract_z
  _atom_site_thermal_displace_type
  _atom_site_B_iso_or_equiv
  _atom_site_type_symbol
  Cu1      1.0000 0.25487  0.24593  0.50078  Biso   1.000  Cu
  Cu2      1.0000 0.24513  0.75407  0.00078  Biso   1.000  Cu
  Cu3      1.0000 0.75487  0.25407  0.49922  Biso   1.000  Cu
  Cu4      1.0000 0.74513  0.74593  0.99922  Biso   1.000  Cu
  Cu5      1.0000 0.74513  0.75407  0.49922  Biso   1.000  Cu
  Cu6      1.0000 0.75487  0.24593  0.99922  Biso   1.000  Cu
  Cu7      1.0000 0.24513  0.74593  0.50078  Biso   1.000  Cu
  Cu8      1.0000 0.25487  0.25407  0.00078  Biso   1.000  Cu
  Ba1      1.0000 0.00000  0.00000  0.50000  Biso   1.000  Ba
  Ba2      1.0000 0.50000  0.00000  0.00000  Biso   1.000  Ba
  Ba3      1.0000 0.50000  0.50000  0.50000  Biso   1.000  Ba
  Ba4      1.0000 0.00000  0.50000  0.00000  Biso   1.000  Ba
  N1       1.0000 0.21080  0.16870  0.45572  Biso   1.000  N
  N2       1.0000 0.28920  0.83130  0.95572  Biso   1.000  N
  N3       1.0000 0.71080  0.33130  0.54428  Biso   1.000  N
  N4       1.0000 0.78920  0.66870  0.04428  Biso   1.000  N
  N5       1.0000 0.78920  0.83130  0.54428  Biso   1.000  N
  N6       1.0000 0.71080  0.16870  0.04428  Biso   1.000  N
  N7       1.0000 0.28920  0.66870  0.45572  Biso   1.000  N
  N8       1.0000 0.21080  0.33130  0.95572  Biso   1.000  N
  N9       1.0000 0.19980  0.82160  0.54638  Biso   1.000  N
  N10      1.0000 0.30020  0.17840  0.04638  Biso   1.000  N
  N11      1.0000 0.69980  0.67840  0.45362  Biso   1.000  N
  N12      1.0000 0.80020  0.32160  0.95362  Biso   1.000  N
  N13      1.0000 0.80020  0.17840  0.45362  Biso   1.000  N
  N14      1.0000 0.69980  0.82160  0.95362  Biso   1.000  N
  N15      1.0000 0.30020  0.32160  0.54638  Biso   1.000  N
  N16      1.0000 0.19980  0.67840  0.04638  Biso   1.000  N
  N17      1.0000 0.99020  0.70620  0.35773  Biso   1.000  N
  N18      1.0000 0.50980  0.29380  0.85773  Biso   1.000  N
  N19      1.0000 0.49020  0.79380  0.64227  Biso   1.000  N
  N20      1.0000 0.00980  0.20620  0.14227  Biso   1.000  N
  N21      1.0000 0.00980  0.29380  0.64227  Biso   1.000  N
  N22      1.0000 0.49020  0.70620  0.14227  Biso   1.000  N
  N23      1.0000 0.50980  0.20620  0.35773  Biso   1.000  N
  N24      1.0000 0.99020  0.79380  0.85773  Biso   1.000  N
  O1       1.0000 0.17904  0.20850  0.54391  Biso   1.000  O
  O2       1.0000 0.32096  0.79150  0.04391  Biso   1.000  O
  O3       1.0000 0.67904  0.29150  0.45609  Biso   1.000  O
  O4       1.0000 0.82096  0.70850  0.95609  Biso   1.000  O
  O5       1.0000 0.82096  0.79150  0.45609  Biso   1.000  O
  O6       1.0000 0.67904  0.20850  0.95609  Biso   1.000  O
  O7       1.0000 0.32096  0.70850  0.54391  Biso   1.000  O
  O8       1.0000 0.17904  0.29150  0.04391  Biso   1.000  O
  O9       1.0000 0.08625  0.11920  0.54573  Biso   1.000  O
  O10      1.0000 0.41375  0.88080  0.04573  Biso   1.000  O
  O11      1.0000 0.58625  0.38080  0.45427  Biso   1.000  O
  O12      1.0000 0.91375  0.61920  0.95427  Biso   1.000  O
  O13      1.0000 0.91375  0.88080  0.45427  Biso   1.000  O
  O14      1.0000 0.58625  0.11920  0.95427  Biso   1.000  O
  O15      1.0000 0.41375  0.61920  0.54573  Biso   1.000  O
  O16      1.0000 0.08625  0.38080  0.04573  Biso   1.000  O
  O17      1.0000 0.11343  0.07760  0.45243  Biso   1.000  O
  O18      1.0000 0.38657  0.92240  0.95243  Biso   1.000  O
  O19      1.0000 0.61343  0.42240  0.54757  Biso   1.000  O
  O20      1.0000 0.88657  0.57760  0.04757  Biso   1.000  O
  O21      1.0000 0.88657  0.92240  0.54757  Biso   1.000  O
  O22      1.0000 0.61343  0.07760  0.04757  Biso   1.000  O
  O23      1.0000 0.38657  0.57760  0.45243  Biso   1.000  O
  O24      1.0000 0.11343  0.42240  0.95243  Biso   1.000  O
  O25      1.0000 0.17078  0.78540  0.45714  Biso   1.000  O
  O26      1.0000 0.32922  0.21460  0.95714  Biso   1.000  O
  O27      1.0000 0.67078  0.71460  0.54286  Biso   1.000  O
  O28      1.0000 0.82922  0.28540  0.04286  Biso   1.000  O
  O29      1.0000 0.82922  0.21460  0.54286  Biso   1.000  O
  O30      1.0000 0.67078  0.78540  0.04286  Biso   1.000  O
  O31      1.0000 0.32922  0.28540  0.45714  Biso   1.000  O
  O32      1.0000 0.17078  0.71460  0.95714  Biso   1.000  O
  O33      1.0000 0.07856  0.87580  0.45498  Biso   1.000  O
  O34      1.0000 0.42144  0.12420  0.95498  Biso   1.000  O
  O35      1.0000 0.57856  0.62420  0.54502  Biso   1.000  O
  O36      1.0000 0.92144  0.37580  0.04502  Biso   1.000  O
  O37      1.0000 0.92144  0.12420  0.54502  Biso   1.000  O
  O38      1.0000 0.57856  0.87580  0.04502  Biso   1.000  O
  O39      1.0000 0.42144  0.37580  0.45498  Biso   1.000  O
  O40      1.0000 0.07856  0.62420  0.95498  Biso   1.000  O
  O41      1.0000 0.09924  0.90790  0.55047  Biso   1.000  O
  O42      1.0000 0.40076  0.09210  0.05047  Biso   1.000  O
  O43      1.0000 0.59924  0.59210  0.44953  Biso   1.000  O
  O44      1.0000 0.90076  0.40790  0.94953  Biso   1.000  O
  O45      1.0000 0.90076  0.09210  0.44953  Biso   1.000  O
  O46      1.0000 0.59924  0.90790  0.94953  Biso   1.000  O
  O47      1.0000 0.40076  0.40790  0.55047  Biso   1.000  O
  O48      1.0000 0.09924  0.59210  0.05047  Biso   1.000  O
  C1       1.0000 0.13740  0.15370  0.52532  Biso   1.000  C
  C2       1.0000 0.36260  0.84630  0.02532  Biso   1.000  C
  C3       1.0000 0.63740  0.34630  0.47468  Biso   1.000  C
  C4       1.0000 0.86260  0.65370  0.97468  Biso   1.000  C
  C5       1.0000 0.86260  0.84630  0.47468  Biso   1.000  C
  C6       1.0000 0.63740  0.15370  0.97468  Biso   1.000  C
  C7       1.0000 0.36260  0.65370  0.52532  Biso   1.000  C
  C8       1.0000 0.13740  0.34630  0.02532  Biso   1.000  C
  C9       1.0000 0.15380  0.12890  0.47287  Biso   1.000  C
  C10      1.0000 0.34620  0.87110  0.97287  Biso   1.000  C
  C11      1.0000 0.65380  0.37110  0.52713  Biso   1.000  C
  C12      1.0000 0.84620  0.62890  0.02713  Biso   1.000  C
  C13      1.0000 0.84620  0.87110  0.52713  Biso   1.000  C
  C14      1.0000 0.65380  0.12890  0.02713  Biso   1.000  C
  C15      1.0000 0.34620  0.62890  0.47287  Biso   1.000  C
  C16      1.0000 0.15380  0.37110  0.97287  Biso   1.000  C
  C17      1.0000 0.23540  0.14750  0.40856  Biso   1.000  C
  C18      1.0000 0.26460  0.85250  0.90856  Biso   1.000  C
  C19      1.0000 0.73540  0.35250  0.59144  Biso   1.000  C
  C20      1.0000 0.76460  0.64750  0.09144  Biso   1.000  C
  C21      1.0000 0.76460  0.85250  0.59144  Biso   1.000  C
  C22      1.0000 0.73540  0.14750  0.09144  Biso   1.000  C
  C23      1.0000 0.26460  0.64750  0.40856  Biso   1.000  C
  C24      1.0000 0.23540  0.35250  0.90856  Biso   1.000  C
  C25      1.0000 0.26960  0.07060  0.40098  Biso   1.000  C
  C26      1.0000 0.23040  0.92940  0.90098  Biso   1.000  C
  C27      1.0000 0.76960  0.42940  0.59902  Biso   1.000  C
  C28      1.0000 0.73040  0.57060  0.09902  Biso   1.000  C
  C29      1.0000 0.73040  0.92940  0.59902  Biso   1.000  C
  C30      1.0000 0.76960  0.07060  0.09902  Biso   1.000  C
  C31      1.0000 0.23040  0.57060  0.40098  Biso   1.000  C
  C32      1.0000 0.26960  0.42940  0.90098  Biso   1.000  C
  C33      1.0000 0.29480  0.05100  0.35506  Biso   1.000  C
  C34      1.0000 0.20520  0.94900  0.85506  Biso   1.000  C
  C35      1.0000 0.79480  0.44900  0.64494  Biso   1.000  C
  C36      1.0000 0.70520  0.55100  0.14494  Biso   1.000  C
  C37      1.0000 0.70520  0.94900  0.64494  Biso   1.000  C
  C38      1.0000 0.79480  0.05100  0.14494  Biso   1.000  C
  C39      1.0000 0.20520  0.55100  0.35506  Biso   1.000  C
  C40      1.0000 0.29480  0.44900  0.85506  Biso   1.000  C
  H1       1.0000 0.31860  0.00030  0.34990  Biso   1.000  H
  H2       1.0000 0.18140  0.99970  0.84990  Biso   1.000  H
  H3       1.0000 0.81860  0.49970  0.65010  Biso   1.000  H
  H4       1.0000 0.68140  0.50030  0.15010  Biso   1.000  H
  H5       1.0000 0.68140  0.99970  0.65010  Biso   1.000  H
  H6       1.0000 0.81860  0.00030  0.15010  Biso   1.000  H
  H7       1.0000 0.18140  0.50030  0.34990  Biso   1.000  H
  H8       1.0000 0.31860  0.49970  0.84990  Biso   1.000  H
  C41      1.0000 0.28500  0.10490  0.31787  Biso   1.000  C
  C42      1.0000 0.21500  0.89510  0.81787  Biso   1.000  C
  C43      1.0000 0.78500  0.39510  0.68213  Biso   1.000  C
  C44      1.0000 0.71500  0.60490  0.18213  Biso   1.000  C
  C45      1.0000 0.71500  0.89510  0.68213  Biso   1.000  C
  C46      1.0000 0.78500  0.10490  0.18213  Biso   1.000  C
  C47      1.0000 0.21500  0.60490  0.31787  Biso   1.000  C
  C48      1.0000 0.28500  0.39510  0.81787  Biso   1.000  C
  H9       1.0000 0.30110  0.09070  0.28740  Biso   1.000  H
  H10      1.0000 0.19890  0.90930  0.78740  Biso   1.000  H
  H11      1.0000 0.80110  0.40930  0.71260  Biso   1.000  H
  H12      1.0000 0.69890  0.59070  0.21260  Biso   1.000  H
  H13      1.0000 0.69890  0.90930  0.71260  Biso   1.000  H
  H14      1.0000 0.80110  0.09070  0.21260  Biso   1.000  H
  H15      1.0000 0.19890  0.59070  0.28740  Biso   1.000  H
  H16      1.0000 0.30110  0.40930  0.78740  Biso   1.000  H
  C49      1.0000 0.25200  0.17910  0.32546  Biso   1.000  C
  C50      1.0000 0.24800  0.82090  0.82546  Biso   1.000  C
  C51      1.0000 0.75200  0.32090  0.67454  Biso   1.000  C
  C52      1.0000 0.74800  0.67910  0.17454  Biso   1.000  C
  C53      1.0000 0.74800  0.82090  0.67454  Biso   1.000  C
  C54      1.0000 0.75200  0.17910  0.17454  Biso   1.000  C
  C55      1.0000 0.24800  0.67910  0.32546  Biso   1.000  C
  C56      1.0000 0.25200  0.32090  0.82546  Biso   1.000  C
  H17      1.0000 0.24530  0.21530  0.29970  Biso   1.000  H
  H18      1.0000 0.25470  0.78470  0.79970  Biso   1.000  H
  H19      1.0000 0.74530  0.28470  0.70030  Biso   1.000  H
  H20      1.0000 0.75470  0.71530  0.20030  Biso   1.000  H
  H21      1.0000 0.75470  0.78470  0.70030  Biso   1.000  H
  H22      1.0000 0.74530  0.21530  0.20030  Biso   1.000  H
  H23      1.0000 0.25470  0.71530  0.29970  Biso   1.000  H
  H24      1.0000 0.24530  0.28470  0.79970  Biso   1.000  H
  C57      1.0000 0.22700  0.20380  0.37096  Biso   1.000  C
  C58      1.0000 0.27300  0.79620  0.87096  Biso   1.000  C
  C59      1.0000 0.72700  0.29620  0.62904  Biso   1.000  C
  C60      1.0000 0.77300  0.70380  0.12904  Biso   1.000  C
  C61      1.0000 0.77300  0.79620  0.62904  Biso   1.000  C
  C62      1.0000 0.72700  0.20380  0.12904  Biso   1.000  C
  C63      1.0000 0.27300  0.70380  0.37096  Biso   1.000  C
  C64      1.0000 0.22700  0.29620  0.87096  Biso   1.000  C
  C65      1.0000 0.28120  0.01050  0.44110  Biso   1.000  C
  C66      1.0000 0.21880  0.98950  0.94110  Biso   1.000  C
  C67      1.0000 0.78120  0.48950  0.55890  Biso   1.000  C
  C68      1.0000 0.71880  0.51050  0.05890  Biso   1.000  C
  C69      1.0000 0.71880  0.98950  0.55890  Biso   1.000  C
  C70      1.0000 0.78120  0.01050  0.05890  Biso   1.000  C
  C71      1.0000 0.21880  0.51050  0.44110  Biso   1.000  C
  C72      1.0000 0.28120  0.48950  0.94110  Biso   1.000  C
  H25      1.0000 0.30530  0.96130  0.42940  Biso   1.000  H
  H26      1.0000 0.19470  0.03870  0.92940  Biso   1.000  H
  H27      1.0000 0.80530  0.53870  0.57060  Biso   1.000  H
  H28      1.0000 0.69470  0.46130  0.07060  Biso   1.000  H
  H29      1.0000 0.69470  0.03870  0.57060  Biso   1.000  H
  H30      1.0000 0.80530  0.96130  0.07060  Biso   1.000  H
  H31      1.0000 0.19470  0.46130  0.42940  Biso   1.000  H
  H32      1.0000 0.30530  0.53870  0.92940  Biso   1.000  H
  H33      1.0000 0.23540  0.99490  0.45450  Biso   1.000  H
  H34      1.0000 0.26460  0.00510  0.95450  Biso   1.000  H
  H35      1.0000 0.73540  0.50510  0.54550  Biso   1.000  H
  H36      1.0000 0.76460  0.49490  0.04550  Biso   1.000  H
  H37      1.0000 0.76460  0.00510  0.54550  Biso   1.000  H
  H38      1.0000 0.73540  0.99490  0.04550  Biso   1.000  H
  H39      1.0000 0.26460  0.49490  0.45450  Biso   1.000  H
  H40      1.0000 0.23540  0.50510  0.95450  Biso   1.000  H
  H41      1.0000 0.31030  0.03670  0.46530  Biso   1.000  H
  H42      1.0000 0.18970  0.96330  0.96530  Biso   1.000  H
  H43      1.0000 0.81030  0.46330  0.53470  Biso   1.000  H
  H44      1.0000 0.68970  0.53670  0.03470  Biso   1.000  H
  H45      1.0000 0.68970  0.96330  0.53470  Biso   1.000  H
  H46      1.0000 0.81030  0.03670  0.03470  Biso   1.000  H
  H47      1.0000 0.18970  0.53670  0.46530  Biso   1.000  H
  H48      1.0000 0.31030  0.46330  0.96530  Biso   1.000  H
  C73      1.0000 0.19430  0.28860  0.37960  Biso   1.000  C
  C74      1.0000 0.30570  0.71140  0.87960  Biso   1.000  C
  C75      1.0000 0.69430  0.21140  0.62040  Biso   1.000  C
  C76      1.0000 0.80570  0.78860  0.12040  Biso   1.000  C
  C77      1.0000 0.80570  0.71140  0.62040  Biso   1.000  C
  C78      1.0000 0.69430  0.28860  0.12040  Biso   1.000  C
  C79      1.0000 0.30570  0.78860  0.37960  Biso   1.000  C
  C80      1.0000 0.19430  0.21140  0.87960  Biso   1.000  C
  H49      1.0000 0.18190  0.31390  0.34960  Biso   1.000  H
  H50      1.0000 0.31810  0.68610  0.84960  Biso   1.000  H
  H51      1.0000 0.68190  0.18610  0.65040  Biso   1.000  H
  H52      1.0000 0.81810  0.81390  0.15040  Biso   1.000  H
  H53      1.0000 0.81810  0.68610  0.65040  Biso   1.000  H
  H54      1.0000 0.68190  0.31390  0.15040  Biso   1.000  H
  H55      1.0000 0.31810  0.81390  0.34960  Biso   1.000  H
  H56      1.0000 0.18190  0.18610  0.84960  Biso   1.000  H
  H57      1.0000 0.22860  0.32360  0.39600  Biso   1.000  H
  H58      1.0000 0.27140  0.67640  0.89600  Biso   1.000  H
  H59      1.0000 0.72860  0.17640  0.60400  Biso   1.000  H
  H60      1.0000 0.77140  0.82360  0.10400  Biso   1.000  H
  H61      1.0000 0.77140  0.67640  0.60400  Biso   1.000  H
  H62      1.0000 0.72860  0.32360  0.10400  Biso   1.000  H
  H63      1.0000 0.27140  0.82360  0.39600  Biso   1.000  H
  H64      1.0000 0.22860  0.17640  0.89600  Biso   1.000  H
  H65      1.0000 0.15160  0.28270  0.39880  Biso   1.000  H
  H66      1.0000 0.34840  0.71730  0.89880  Biso   1.000  H
  H67      1.0000 0.65160  0.21730  0.60120  Biso   1.000  H
  H68      1.0000 0.84840  0.78270  0.10120  Biso   1.000  H
  H69      1.0000 0.84840  0.71730  0.60120  Biso   1.000  H
  H70      1.0000 0.65160  0.28270  0.10120  Biso   1.000  H
  H71      1.0000 0.34840  0.78270  0.39880  Biso   1.000  H
  H72      1.0000 0.15160  0.21730  0.89880  Biso   1.000  H
  C81      1.0000 0.12860  0.84000  0.47595  Biso   1.000  C
  C82      1.0000 0.37140  0.16000  0.97595  Biso   1.000  C
  C83      1.0000 0.62860  0.66000  0.52405  Biso   1.000  C
  C84      1.0000 0.87140  0.34000  0.02405  Biso   1.000  C
  C85      1.0000 0.87140  0.16000  0.52405  Biso   1.000  C
  C86      1.0000 0.62860  0.84000  0.02405  Biso   1.000  C
  C87      1.0000 0.37140  0.34000  0.47595  Biso   1.000  C
  C88      1.0000 0.12860  0.66000  0.97595  Biso   1.000  C
  C89      1.0000 0.14150  0.86000  0.52907  Biso   1.000  C
  C90      1.0000 0.35850  0.14000  0.02907  Biso   1.000  C
  C91      1.0000 0.64150  0.64000  0.47093  Biso   1.000  C
  C92      1.0000 0.85850  0.36000  0.97093  Biso   1.000  C
  C93      1.0000 0.85850  0.14000  0.47093  Biso   1.000  C
  C94      1.0000 0.64150  0.86000  0.97093  Biso   1.000  C
  C95      1.0000 0.35850  0.36000  0.52907  Biso   1.000  C
  C96      1.0000 0.14150  0.64000  0.02907  Biso   1.000  C
  C97      1.0000 0.21940  0.83920  0.59475  Biso   1.000  C
  C98      1.0000 0.28060  0.16080  0.09475  Biso   1.000  C
  C99      1.0000 0.71940  0.66080  0.40525  Biso   1.000  C
  C100     1.0000 0.78060  0.33920  0.90525  Biso   1.000  C
  C101     1.0000 0.78060  0.16080  0.40525  Biso   1.000  C
  C102     1.0000 0.71940  0.83920  0.90525  Biso   1.000  C
  C103     1.0000 0.28060  0.33920  0.59475  Biso   1.000  C
  C104     1.0000 0.21940  0.66080  0.09475  Biso   1.000  C
  C105     1.0000 0.20080  0.78280  0.63090  Biso   1.000  C
  C106     1.0000 0.29920  0.21720  0.13090  Biso   1.000  C
  C107     1.0000 0.70080  0.71720  0.36910  Biso   1.000  C
  C108     1.0000 0.79920  0.28280  0.86910  Biso   1.000  C
  C109     1.0000 0.79920  0.21720  0.36910  Biso   1.000  C
  C110     1.0000 0.70080  0.78280  0.86910  Biso   1.000  C
  C111     1.0000 0.29920  0.28280  0.63090  Biso   1.000  C
  C112     1.0000 0.20080  0.71720  0.13090  Biso   1.000  C
  C113     1.0000 0.22150  0.80190  0.67803  Biso   1.000  C
  C114     1.0000 0.27850  0.19810  0.17803  Biso   1.000  C
  C115     1.0000 0.72150  0.69810  0.32197  Biso   1.000  C
  C116     1.0000 0.77850  0.30190  0.82197  Biso   1.000  C
  C117     1.0000 0.77850  0.19810  0.32197  Biso   1.000  C
  C118     1.0000 0.72150  0.80190  0.82197  Biso   1.000  C
  C119     1.0000 0.27850  0.30190  0.67803  Biso   1.000  C
  C120     1.0000 0.22150  0.69810  0.17803  Biso   1.000  C
  H73      1.0000 0.21020  0.76490  0.70260  Biso   1.000  H
  H74      1.0000 0.28980  0.23510  0.20260  Biso   1.000  H
  H75      1.0000 0.71020  0.73510  0.29740  Biso   1.000  H
  H76      1.0000 0.78980  0.26490  0.79740  Biso   1.000  H
  H77      1.0000 0.78980  0.23510  0.29740  Biso   1.000  H
  H78      1.0000 0.71020  0.76490  0.79740  Biso   1.000  H
  H79      1.0000 0.28980  0.26490  0.70260  Biso   1.000  H
  H80      1.0000 0.21020  0.73510  0.20260  Biso   1.000  H
  C121     1.0000 0.25760  0.87340  0.68791  Biso   1.000  C
  C122     1.0000 0.24240  0.12660  0.18791  Biso   1.000  C
  C123     1.0000 0.75760  0.62660  0.31209  Biso   1.000  C
  C124     1.0000 0.74240  0.37340  0.81209  Biso   1.000  C
  C125     1.0000 0.74240  0.12660  0.31209  Biso   1.000  C
  C126     1.0000 0.75760  0.87340  0.81209  Biso   1.000  C
  C127     1.0000 0.24240  0.37340  0.68791  Biso   1.000  C
  C128     1.0000 0.25760  0.62660  0.18791  Biso   1.000  C
  H81      1.0000 0.27030  0.88520  0.71940  Biso   1.000  H
  H82      1.0000 0.22970  0.11480  0.21940  Biso   1.000  H
  H83      1.0000 0.77030  0.61480  0.28060  Biso   1.000  H
  H84      1.0000 0.72970  0.38520  0.78060  Biso   1.000  H
  H85      1.0000 0.72970  0.11480  0.28060  Biso   1.000  H
  H86      1.0000 0.77030  0.88520  0.78060  Biso   1.000  H
  H87      1.0000 0.22970  0.38520  0.71940  Biso   1.000  H
  H88      1.0000 0.27030  0.61480  0.21940  Biso   1.000  H
  C129     1.0000 0.27610  0.92940  0.65251  Biso   1.000  C
  C130     1.0000 0.22390  0.07060  0.15251  Biso   1.000  C
  C131     1.0000 0.77610  0.57060  0.34749  Biso   1.000  C
  C132     1.0000 0.72390  0.42940  0.84749  Biso   1.000  C
  C133     1.0000 0.72390  0.07060  0.34749  Biso   1.000  C
  C134     1.0000 0.77610  0.92940  0.84749  Biso   1.000  C
  C135     1.0000 0.22390  0.42940  0.65251  Biso   1.000  C
  C136     1.0000 0.27610  0.57060  0.15251  Biso   1.000  C
  H89      1.0000 0.30170  0.97780  0.66010  Biso   1.000  H
  H90      1.0000 0.19830  0.02220  0.16010  Biso   1.000  H
  H91      1.0000 0.80170  0.52220  0.33990  Biso   1.000  H
  H92      1.0000 0.69830  0.47780  0.83990  Biso   1.000  H
  H93      1.0000 0.69830  0.02220  0.33990  Biso   1.000  H
  H94      1.0000 0.80170  0.97780  0.83990  Biso   1.000  H
  H95      1.0000 0.19830  0.47780  0.66010  Biso   1.000  H
  H96      1.0000 0.30170  0.52220  0.16010  Biso   1.000  H
  C137     1.0000 0.25640  0.91340  0.60498  Biso   1.000  C
  C138     1.0000 0.24360  0.08660  0.10498  Biso   1.000  C
  C139     1.0000 0.75640  0.58660  0.39502  Biso   1.000  C
  C140     1.0000 0.74360  0.41340  0.89502  Biso   1.000  C
  C141     1.0000 0.74360  0.08660  0.39502  Biso   1.000  C
  C142     1.0000 0.75640  0.91340  0.89502  Biso   1.000  C
  C143     1.0000 0.24360  0.41340  0.60498  Biso   1.000  C
  C144     1.0000 0.25640  0.58660  0.10498  Biso   1.000  C
  C145     1.0000 0.16120  0.70310  0.61910  Biso   1.000  C
  C146     1.0000 0.33880  0.29690  0.11910  Biso   1.000  C
  C147     1.0000 0.66120  0.79690  0.38090  Biso   1.000  C
  C148     1.0000 0.83880  0.20310  0.88090  Biso   1.000  C
  C149     1.0000 0.83880  0.29690  0.38090  Biso   1.000  C
  C150     1.0000 0.66120  0.70310  0.88090  Biso   1.000  C
  C151     1.0000 0.33880  0.20310  0.61910  Biso   1.000  C
  C152     1.0000 0.16120  0.79690  0.11910  Biso   1.000  C
  H97      1.0000 0.15260  0.67190  0.64790  Biso   1.000  H
  H98      1.0000 0.34740  0.32810  0.14790  Biso   1.000  H
  H99      1.0000 0.65260  0.82810  0.35210  Biso   1.000  H
  H100     1.0000 0.84740  0.17190  0.85210  Biso   1.000  H
  H101     1.0000 0.84740  0.32810  0.35210  Biso   1.000  H
  H102     1.0000 0.65260  0.67190  0.85210  Biso   1.000  H
  H103     1.0000 0.34740  0.17190  0.64790  Biso   1.000  H
  H104     1.0000 0.15260  0.82810  0.14790  Biso   1.000  H
  H105     1.0000 0.11580  0.71660  0.60430  Biso   1.000  H
  H106     1.0000 0.38420  0.28340  0.10430  Biso   1.000  H
  H107     1.0000 0.61580  0.78340  0.39570  Biso   1.000  H
  H108     1.0000 0.88420  0.21660  0.89570  Biso   1.000  H
  H109     1.0000 0.88420  0.28340  0.39570  Biso   1.000  H
  H110     1.0000 0.61580  0.71660  0.89570  Biso   1.000  H
  H111     1.0000 0.38420  0.21660  0.60430  Biso   1.000  H
  H112     1.0000 0.11580  0.78340  0.10430  Biso   1.000  H
  H113     1.0000 0.18980  0.67000  0.59750  Biso   1.000  H
  H114     1.0000 0.31020  0.33000  0.09750  Biso   1.000  H
  H115     1.0000 0.68980  0.83000  0.40250  Biso   1.000  H
  H116     1.0000 0.81020  0.17000  0.90250  Biso   1.000  H
  H117     1.0000 0.81020  0.33000  0.40250  Biso   1.000  H
  H118     1.0000 0.68980  0.67000  0.90250  Biso   1.000  H
  H119     1.0000 0.31020  0.17000  0.59750  Biso   1.000  H
  H120     1.0000 0.18980  0.83000  0.09750  Biso   1.000  H
  C153     1.0000 0.27560  0.97380  0.56630  Biso   1.000  C
  C154     1.0000 0.22440  0.02620  0.06630  Biso   1.000  C
  C155     1.0000 0.77560  0.52620  0.43370  Biso   1.000  C
  C156     1.0000 0.72440  0.47380  0.93370  Biso   1.000  C
  C157     1.0000 0.72440  0.02620  0.43370  Biso   1.000  C
  C158     1.0000 0.77560  0.97380  0.93370  Biso   1.000  C
  C159     1.0000 0.22440  0.47380  0.56630  Biso   1.000  C
  C160     1.0000 0.27560  0.52620  0.06630  Biso   1.000  C
  H121     1.0000 0.30090  0.02080  0.57980  Biso   1.000  H
  H122     1.0000 0.19910  0.97920  0.07980  Biso   1.000  H
  H123     1.0000 0.80090  0.47920  0.42020  Biso   1.000  H
  H124     1.0000 0.69910  0.52080  0.92020  Biso   1.000  H
  H125     1.0000 0.69910  0.97920  0.42020  Biso   1.000  H
  H126     1.0000 0.80090  0.02080  0.92020  Biso   1.000  H
  H127     1.0000 0.19910  0.52080  0.57980  Biso   1.000  H
  H128     1.0000 0.30090  0.47920  0.07980  Biso   1.000  H
  H129     1.0000 0.30590  0.94630  0.54330  Biso   1.000  H
  H130     1.0000 0.19410  0.05370  0.04330  Biso   1.000  H
  H131     1.0000 0.80590  0.55370  0.45670  Biso   1.000  H
  H132     1.0000 0.69410  0.44630  0.95670  Biso   1.000  H
  H133     1.0000 0.69410  0.05370  0.45670  Biso   1.000  H
  H134     1.0000 0.80590  0.94630  0.95670  Biso   1.000  H
  H135     1.0000 0.19410  0.44630  0.54330  Biso   1.000  H
  H136     1.0000 0.30590  0.55370  0.04330  Biso   1.000  H
  H137     1.0000 0.23230  0.99310  0.55090  Biso   1.000  H
  H138     1.0000 0.26770  0.00690  0.05090  Biso   1.000  H
  H139     1.0000 0.73230  0.50690  0.44910  Biso   1.000  H
  H140     1.0000 0.76770  0.49310  0.94910  Biso   1.000  H
  H141     1.0000 0.76770  0.00690  0.44910  Biso   1.000  H
  H142     1.0000 0.73230  0.99310  0.94910  Biso   1.000  H
  H143     1.0000 0.26770  0.49310  0.55090  Biso   1.000  H
  H144     1.0000 0.23230  0.50690  0.05090  Biso   1.000  H
  C161     1.0000 0.95890  0.62500  0.33940  Biso   1.000  C
  C162     1.0000 0.54110  0.37500  0.83940  Biso   1.000  C
  C163     1.0000 0.45890  0.87500  0.66060  Biso   1.000  C
  C164     1.0000 0.04110  0.12500  0.16060  Biso   1.000  C
  C165     1.0000 0.04110  0.37500  0.66060  Biso   1.000  C
  C166     1.0000 0.45890  0.62500  0.16060  Biso   1.000  C
  C167     1.0000 0.54110  0.12500  0.33940  Biso   1.000  C
  C168     1.0000 0.95890  0.87500  0.83940  Biso   1.000  C
  H145     1.0000 0.91890  0.60940  0.36010  Biso   1.000  H
  H146     1.0000 0.58110  0.39060  0.86010  Biso   1.000  H
  H147     1.0000 0.41890  0.89060  0.63990  Biso   1.000  H
  H148     1.0000 0.08110  0.10940  0.13990  Biso   1.000  H
  H149     1.0000 0.08110  0.39060  0.63990  Biso   1.000  H
  H150     1.0000 0.41890  0.60940  0.13990  Biso   1.000  H
  H151     1.0000 0.58110  0.10940  0.36010  Biso   1.000  H
  H152     1.0000 0.91890  0.89060  0.86010  Biso   1.000  H
  H153     1.0000 0.93920  0.63510  0.30780  Biso   1.000  H
  H154     1.0000 0.56080  0.36490  0.80780  Biso   1.000  H
  H155     1.0000 0.43920  0.86490  0.69220  Biso   1.000  H
  H156     1.0000 0.06080  0.13510  0.19220  Biso   1.000  H
  H157     1.0000 0.06080  0.36490  0.69220  Biso   1.000  H
  H158     1.0000 0.43920  0.63510  0.19220  Biso   1.000  H
  H159     1.0000 0.56080  0.13510  0.30780  Biso   1.000  H
  H160     1.0000 0.93920  0.86490  0.80780  Biso   1.000  H
  C169     1.0000 0.00930  0.55220  0.33640  Biso   1.000  C
  C170     1.0000 0.49070  0.44780  0.83640  Biso   1.000  C
  C171     1.0000 0.50930  0.94780  0.66360  Biso   1.000  C
  C172     1.0000 0.99070  0.05220  0.16360  Biso   1.000  C
  C173     1.0000 0.99070  0.44780  0.66360  Biso   1.000  C
  C174     1.0000 0.50930  0.55220  0.16360  Biso   1.000  C
  C175     1.0000 0.49070  0.05220  0.33640  Biso   1.000  C
  C176     1.0000 0.00930  0.94780  0.83640  Biso   1.000  C
  H161     1.0000 0.04590  0.56380  0.31240  Biso   1.000  H
  H162     1.0000 0.45410  0.43620  0.81240  Biso   1.000  H
  H163     1.0000 0.54590  0.93620  0.68760  Biso   1.000  H
  H164     1.0000 0.95410  0.06380  0.18760  Biso   1.000  H
  H165     1.0000 0.95410  0.43620  0.68760  Biso   1.000  H
  H166     1.0000 0.54590  0.56380  0.18760  Biso   1.000  H
  H167     1.0000 0.45410  0.06380  0.31240  Biso   1.000  H
  H168     1.0000 0.04590  0.93620  0.81240  Biso   1.000  H
  H169     1.0000 0.03350  0.54520  0.36690  Biso   1.000  H
  H170     1.0000 0.46650  0.45480  0.86690  Biso   1.000  H
  H171     1.0000 0.53350  0.95480  0.63310  Biso   1.000  H
  H172     1.0000 0.96650  0.04520  0.13310  Biso   1.000  H
  H173     1.0000 0.96650  0.45480  0.63310  Biso   1.000  H
  H174     1.0000 0.53350  0.54520  0.13310  Biso   1.000  H
  H175     1.0000 0.46650  0.04520  0.36690  Biso   1.000  H
  H176     1.0000 0.03350  0.95480  0.86690  Biso   1.000  H
  C177     1.0000 0.97150  0.47280  0.32380  Biso   1.000  C
  C178     1.0000 0.52850  0.52720  0.82380  Biso   1.000  C
  C179     1.0000 0.47150  0.02720  0.67620  Biso   1.000  C
  C180     1.0000 0.02850  0.97280  0.17620  Biso   1.000  C
  C181     1.0000 0.02850  0.52720  0.67620  Biso   1.000  C
  C182     1.0000 0.47150  0.47280  0.17620  Biso   1.000  C
  C183     1.0000 0.52850  0.97280  0.32380  Biso   1.000  C
  C184     1.0000 0.97150  0.02720  0.82380  Biso   1.000  C
  H177     1.0000 0.93600  0.46110  0.34840  Biso   1.000  H
  H178     1.0000 0.56400  0.53890  0.84840  Biso   1.000  H
  H179     1.0000 0.43600  0.03890  0.65160  Biso   1.000  H
  H180     1.0000 0.06400  0.96110  0.15160  Biso   1.000  H
  H181     1.0000 0.06400  0.53890  0.65160  Biso   1.000  H
  H182     1.0000 0.43600  0.46110  0.15160  Biso   1.000  H
  H183     1.0000 0.56400  0.96110  0.34840  Biso   1.000  H
  H184     1.0000 0.93600  0.03890  0.84840  Biso   1.000  H
  H185     1.0000 0.94560  0.48150  0.29410  Biso   1.000  H
  H186     1.0000 0.55440  0.51850  0.79410  Biso   1.000  H
  H187     1.0000 0.44560  0.01850  0.70590  Biso   1.000  H
  H188     1.0000 0.05440  0.98150  0.20590  Biso   1.000  H
  H189     1.0000 0.05440  0.51850  0.70590  Biso   1.000  H
  H190     1.0000 0.44560  0.48150  0.20590  Biso   1.000  H
  H191     1.0000 0.55440  0.98150  0.29410  Biso   1.000  H
  H192     1.0000 0.94560  0.01850  0.79410  Biso   1.000  H
  C185     1.0000 0.01840  0.39800  0.31830  Biso   1.000  C
  C186     1.0000 0.48160  0.60200  0.81830  Biso   1.000  C
  C187     1.0000 0.51840  0.10200  0.68170  Biso   1.000  C
  C188     1.0000 0.98160  0.89800  0.18170  Biso   1.000  C
  C189     1.0000 0.98160  0.60200  0.68170  Biso   1.000  C
  C190     1.0000 0.51840  0.39800  0.18170  Biso   1.000  C
  C191     1.0000 0.48160  0.89800  0.31830  Biso   1.000  C
  C192     1.0000 0.01840  0.10200  0.81830  Biso   1.000  C
  H193     1.0000 0.98900  0.34840  0.31700  Biso   1.000  H
  H194     1.0000 0.51100  0.65160  0.81700  Biso   1.000  H
  H195     1.0000 0.48900  0.15160  0.68300  Biso   1.000  H
  H196     1.0000 0.01100  0.84840  0.18300  Biso   1.000  H
  H197     1.0000 0.01100  0.65160  0.68300  Biso   1.000  H
  H198     1.0000 0.48900  0.34840  0.18300  Biso   1.000  H
  H199     1.0000 0.51100  0.84840  0.31700  Biso   1.000  H
  H200     1.0000 0.98900  0.15160  0.81700  Biso   1.000  H
  H201     1.0000 0.05070  0.39430  0.34510  Biso   1.000  H
  H202     1.0000 0.44930  0.60570  0.84510  Biso   1.000  H
  H203     1.0000 0.55070  0.10570  0.65490  Biso   1.000  H
  H204     1.0000 0.94930  0.89430  0.15490  Biso   1.000  H
  H205     1.0000 0.94930  0.60570  0.65490  Biso   1.000  H
  H206     1.0000 0.55070  0.39430  0.15490  Biso   1.000  H
  H207     1.0000 0.44930  0.89430  0.34510  Biso   1.000  H
  H208     1.0000 0.05070  0.10570  0.84510  Biso   1.000  H
  H209     1.0000 0.04590  0.40290  0.28940  Biso   1.000  H
  H210     1.0000 0.45410  0.59710  0.78940  Biso   1.000  H
  H211     1.0000 0.54590  0.09710  0.71060  Biso   1.000  H
  H212     1.0000 0.95410  0.90290  0.21060  Biso   1.000  H
  H213     1.0000 0.95410  0.59710  0.71060  Biso   1.000  H
  H214     1.0000 0.54590  0.40290  0.21060  Biso   1.000  H
  H215     1.0000 0.45410  0.90290  0.28940  Biso   1.000  H
  H216     1.0000 0.04590  0.09710  0.78940  Biso   1.000  H
  C193     1.0000 0.02040  0.69720  0.40720  Biso   1.000  C
  C194     1.0000 0.47960  0.30280  0.90720  Biso   1.000  C
  C195     1.0000 0.52040  0.80280  0.59280  Biso   1.000  C
  C196     1.0000 0.97960  0.19720  0.09280  Biso   1.000  C
  C197     1.0000 0.97960  0.30280  0.59280  Biso   1.000  C
  C198     1.0000 0.52040  0.69720  0.09280  Biso   1.000  C
  C199     1.0000 0.47960  0.19720  0.40720  Biso   1.000  C
  C200     1.0000 0.02040  0.80280  0.90720  Biso   1.000  C
  H217     1.0000 0.06550  0.66660  0.40470  Biso   1.000  H
  H218     1.0000 0.43450  0.33340  0.90470  Biso   1.000  H
  H219     1.0000 0.56550  0.83340  0.59530  Biso   1.000  H
  H220     1.0000 0.93450  0.16660  0.09530  Biso   1.000  H
  H221     1.0000 0.93450  0.33340  0.59530  Biso   1.000  H
  H222     1.0000 0.56550  0.66660  0.09530  Biso   1.000  H
  H223     1.0000 0.43450  0.16660  0.40470  Biso   1.000  H
  H224     1.0000 0.06550  0.83340  0.90470  Biso   1.000  H
  H225     1.0000 0.03200  0.75310  0.41870  Biso   1.000  H
  H226     1.0000 0.46800  0.24690  0.91870  Biso   1.000  H
  H227     1.0000 0.53200  0.74690  0.58130  Biso   1.000  H
  H228     1.0000 0.96800  0.25310  0.08130  Biso   1.000  H
  H229     1.0000 0.96800  0.24690  0.58130  Biso   1.000  H
  H230     1.0000 0.53200  0.75310  0.08130  Biso   1.000  H
  H231     1.0000 0.46800  0.25310  0.41870  Biso   1.000  H
  H232     1.0000 0.03200  0.74690  0.91870  Biso   1.000  H
  C201     1.0000 0.97630  0.65560  0.44410  Biso   1.000  C
  C202     1.0000 0.52370  0.34440  0.94410  Biso   1.000  C
  C203     1.0000 0.47630  0.84440  0.55590  Biso   1.000  C
  C204     1.0000 0.02370  0.15560  0.05590  Biso   1.000  C
  C205     1.0000 0.02370  0.34440  0.55590  Biso   1.000  C
  C206     1.0000 0.47630  0.65560  0.05590  Biso   1.000  C
  C207     1.0000 0.52370  0.15560  0.44410  Biso   1.000  C
  C208     1.0000 0.97630  0.84440  0.94410  Biso   1.000  C
  H233     1.0000 0.97020  0.59700  0.43550  Biso   1.000  H
  H234     1.0000 0.52980  0.40300  0.93550  Biso   1.000  H
  H235     1.0000 0.47020  0.90300  0.56450  Biso   1.000  H
  H236     1.0000 0.02980  0.09700  0.06450  Biso   1.000  H
  H237     1.0000 0.02980  0.40300  0.56450  Biso   1.000  H
  H238     1.0000 0.47020  0.59700  0.06450  Biso   1.000  H
  H239     1.0000 0.52980  0.09700  0.43550  Biso   1.000  H
  H240     1.0000 0.97020  0.90300  0.93550  Biso   1.000  H
  H241     1.0000 0.92890  0.68130  0.44470  Biso   1.000  H
  H242     1.0000 0.57110  0.31870  0.94470  Biso   1.000  H
  H243     1.0000 0.42890  0.81870  0.55530  Biso   1.000  H
  H244     1.0000 0.07110  0.18130  0.05530  Biso   1.000  H
  H245     1.0000 0.07110  0.31870  0.55530  Biso   1.000  H
  H246     1.0000 0.42890  0.68130  0.05530  Biso   1.000  H
  H247     1.0000 0.57110  0.18130  0.44470  Biso   1.000  H
  H248     1.0000 0.92890  0.81870  0.94470  Biso   1.000  H
  C209     1.0000 0.00780  0.66000  0.49280  Biso   1.000  C
  C210     1.0000 0.49220  0.34000  0.99280  Biso   1.000  C
  C211     1.0000 0.50780  0.84000  0.50720  Biso   1.000  C
  C212     1.0000 0.99220  0.16000  0.00720  Biso   1.000  C
  C213     1.0000 0.99220  0.34000  0.50720  Biso   1.000  C
  C214     1.0000 0.50780  0.66000  0.00720  Biso   1.000  C
  C215     1.0000 0.49220  0.16000  0.49280  Biso   1.000  C
  C216     1.0000 0.00780  0.84000  0.99280  Biso   1.000  C
  H249     1.0000 0.05630  0.63710  0.49140  Biso   1.000  H
  H250     1.0000 0.44370  0.36290  0.99140  Biso   1.000  H
  H251     1.0000 0.55630  0.86290  0.50860  Biso   1.000  H
  H252     1.0000 0.94370  0.13710  0.00860  Biso   1.000  H
  H253     1.0000 0.94370  0.36290  0.50860  Biso   1.000  H
  H254     1.0000 0.55630  0.63710  0.00860  Biso   1.000  H
  H255     1.0000 0.44370  0.13710  0.49140  Biso   1.000  H
  H256     1.0000 0.05630  0.86290  0.99140  Biso   1.000  H
  H257     1.0000 0.01220  0.71880  0.50150  Biso   1.000  H
  H258     1.0000 0.48780  0.28120  0.00150  Biso   1.000  H
  H259     1.0000 0.51220  0.78120  0.49850  Biso   1.000  H
  H260     1.0000 0.98780  0.21880  0.99850  Biso   1.000  H
  H261     1.0000 0.98780  0.28120  0.49850  Biso   1.000  H
  H262     1.0000 0.51220  0.71880  0.99850  Biso   1.000  H
  H263     1.0000 0.48780  0.21880  0.50150  Biso   1.000  H
  H264     1.0000 0.01220  0.78120  0.00150  Biso   1.000  H
  C217     1.0000 0.96880  0.61670  0.53180  Biso   1.000  C
  C218     1.0000 0.53120  0.38330  0.03180  Biso   1.000  C
  C219     1.0000 0.46880  0.88330  0.46820  Biso   1.000  C
  C220     1.0000 0.03120  0.11670  0.96820  Biso   1.000  C
  C221     1.0000 0.03120  0.38330  0.46820  Biso   1.000  C
  C222     1.0000 0.46880  0.61670  0.96820  Biso   1.000  C
  C223     1.0000 0.53120  0.11670  0.53180  Biso   1.000  C
  C224     1.0000 0.96880  0.88330  0.03180  Biso   1.000  C
  H265     1.0000 0.99450  0.62430  0.56130  Biso   1.000  H
  H266     1.0000 0.50550  0.37570  0.06130  Biso   1.000  H
  H267     1.0000 0.49450  0.87570  0.43870  Biso   1.000  H
  H268     1.0000 0.00550  0.12430  0.93870  Biso   1.000  H
  H269     1.0000 0.00550  0.37570  0.43870  Biso   1.000  H
  H270     1.0000 0.49450  0.62430  0.93870  Biso   1.000  H
  H271     1.0000 0.50550  0.12430  0.56130  Biso   1.000  H
  H272     1.0000 0.99450  0.87570  0.06130  Biso   1.000  H
  H273     1.0000 0.96540  0.55790  0.52460  Biso   1.000  H
  H274     1.0000 0.53460  0.44210  0.02460  Biso   1.000  H
  H275     1.0000 0.46540  0.94210  0.47540  Biso   1.000  H
  H276     1.0000 0.03460  0.05790  0.97540  Biso   1.000  H
  H277     1.0000 0.03460  0.44210  0.47540  Biso   1.000  H
  H278     1.0000 0.46540  0.55790  0.97540  Biso   1.000  H
  H279     1.0000 0.53460  0.05790  0.52460  Biso   1.000  H
  H280     1.0000 0.96540  0.94210  0.02460  Biso   1.000  H
  H281     1.0000 0.92110  0.63990  0.53470  Biso   1.000  H
  H282     1.0000 0.57890  0.36010  0.03470  Biso   1.000  H
  H283     1.0000 0.42110  0.86010  0.46530  Biso   1.000  H
  H284     1.0000 0.07890  0.13990  0.96530  Biso   1.000  H
  H285     1.0000 0.07890  0.36010  0.46530  Biso   1.000  H
  H286     1.0000 0.42110  0.63990  0.96530  Biso   1.000  H
  H287     1.0000 0.57890  0.13990  0.53470  Biso   1.000  H
  H288     1.0000 0.92110  0.86010  0.03470  Biso   1.000  H
  C225     1.0000 0.92680  0.76930  0.36050  Biso   1.000  C
  C226     1.0000 0.57320  0.23070  0.86050  Biso   1.000  C
  C227     1.0000 0.42680  0.73070  0.63950  Biso   1.000  C
  C228     1.0000 0.07320  0.26930  0.13950  Biso   1.000  C
  C229     1.0000 0.07320  0.23070  0.63950  Biso   1.000  C
  C230     1.0000 0.42680  0.76930  0.13950  Biso   1.000  C
  C231     1.0000 0.57320  0.26930  0.36050  Biso   1.000  C
  C232     1.0000 0.92680  0.73070  0.86050  Biso   1.000  C
  H289     1.0000 0.88710  0.74260  0.37730  Biso   1.000  H
  H290     1.0000 0.61290  0.25740  0.87730  Biso   1.000  H
  H291     1.0000 0.38710  0.75740  0.62270  Biso   1.000  H
  H292     1.0000 0.11290  0.24260  0.12270  Biso   1.000  H
  H293     1.0000 0.11290  0.25740  0.62270  Biso   1.000  H
  H294     1.0000 0.38710  0.74260  0.12270  Biso   1.000  H
  H295     1.0000 0.61290  0.24260  0.37730  Biso   1.000  H
  H296     1.0000 0.88710  0.75740  0.87730  Biso   1.000  H
  H297     1.0000 0.94210  0.81700  0.37960  Biso   1.000  H
  H298     1.0000 0.55790  0.18300  0.87960  Biso   1.000  H
  H299     1.0000 0.44210  0.68300  0.62040  Biso   1.000  H
  H300     1.0000 0.05790  0.31700  0.12040  Biso   1.000  H
  H301     1.0000 0.05790  0.18300  0.62040  Biso   1.000  H
  H302     1.0000 0.44210  0.81700  0.12040  Biso   1.000  H
  H303     1.0000 0.55790  0.31700  0.37960  Biso   1.000  H
  H304     1.0000 0.94210  0.68300  0.87960  Biso   1.000  H
  C233     1.0000 0.89900  0.80150  0.31380  Biso   1.000  C
  C234     1.0000 0.60100  0.19850  0.81380  Biso   1.000  C
  C235     1.0000 0.39900  0.69850  0.68620  Biso   1.000  C
  C236     1.0000 0.10100  0.30150  0.18620  Biso   1.000  C
  C237     1.0000 0.10100  0.19850  0.68620  Biso   1.000  C
  C238     1.0000 0.39900  0.80150  0.18620  Biso   1.000  C
  C239     1.0000 0.60100  0.30150  0.31380  Biso   1.000  C
  C240     1.0000 0.89900  0.69850  0.81380  Biso   1.000  C
  H305     1.0000 0.88100  0.75490  0.29490  Biso   1.000  H
  H306     1.0000 0.61900  0.24510  0.79490  Biso   1.000  H
  H307     1.0000 0.38100  0.74510  0.70510  Biso   1.000  H
  H308     1.0000 0.11900  0.25490  0.20510  Biso   1.000  H
  H309     1.0000 0.11900  0.24510  0.70510  Biso   1.000  H
  H310     1.0000 0.38100  0.75490  0.20510  Biso   1.000  H
  H311     1.0000 0.61900  0.25490  0.29490  Biso   1.000  H
  H312     1.0000 0.88100  0.74510  0.79490  Biso   1.000  H
  H313     1.0000 0.93830  0.82760  0.29620  Biso   1.000  H
  H314     1.0000 0.56170  0.17240  0.79620  Biso   1.000  H
  H315     1.0000 0.43830  0.67240  0.70380  Biso   1.000  H
  H316     1.0000 0.06170  0.32760  0.20380  Biso   1.000  H
  H317     1.0000 0.06170  0.17240  0.70380  Biso   1.000  H
  H318     1.0000 0.43830  0.82760  0.20380  Biso   1.000  H
  H319     1.0000 0.56170  0.32760  0.29620  Biso   1.000  H
  H320     1.0000 0.93830  0.67240  0.79620  Biso   1.000  H
  C241     1.0000 0.83880  0.86530  0.32110  Biso   1.000  C
  C242     1.0000 0.66120  0.13470  0.82110  Biso   1.000  C
  C243     1.0000 0.33880  0.63470  0.67890  Biso   1.000  C
  C244     1.0000 0.16120  0.36530  0.17890  Biso   1.000  C
  C245     1.0000 0.16120  0.13470  0.67890  Biso   1.000  C
  C246     1.0000 0.33880  0.86530  0.17890  Biso   1.000  C
  C247     1.0000 0.66120  0.36530  0.32110  Biso   1.000  C
  C248     1.0000 0.83880  0.63470  0.82110  Biso   1.000  C
  H321     1.0000 0.80080  0.83930  0.33990  Biso   1.000  H
  H322     1.0000 0.69920  0.16070  0.83990  Biso   1.000  H
  H323     1.0000 0.30080  0.66070  0.66010  Biso   1.000  H
  H324     1.0000 0.19920  0.33930  0.16010  Biso   1.000  H
  H325     1.0000 0.19920  0.16070  0.66010  Biso   1.000  H
  H326     1.0000 0.30080  0.83930  0.16010  Biso   1.000  H
  H327     1.0000 0.69920  0.33930  0.33990  Biso   1.000  H
  H328     1.0000 0.80080  0.66070  0.83990  Biso   1.000  H
  H329     1.0000 0.85760  0.91220  0.33940  Biso   1.000  H
  H330     1.0000 0.64240  0.08780  0.83940  Biso   1.000  H
  H331     1.0000 0.35760  0.58780  0.66060  Biso   1.000  H
  H332     1.0000 0.14240  0.41220  0.16060  Biso   1.000  H
  H333     1.0000 0.14240  0.08780  0.66060  Biso   1.000  H
  H334     1.0000 0.35760  0.91220  0.16060  Biso   1.000  H
  H335     1.0000 0.64240  0.41220  0.33940  Biso   1.000  H
  H336     1.0000 0.85760  0.58780  0.83940  Biso   1.000  H
  C249     1.0000 0.80660  0.89830  0.27560  Biso   1.000  C
  C250     1.0000 0.69340  0.10170  0.77560  Biso   1.000  C
  C251     1.0000 0.30660  0.60170  0.72440  Biso   1.000  C
  C252     1.0000 0.19340  0.39830  0.22440  Biso   1.000  C
  C253     1.0000 0.19340  0.10170  0.72440  Biso   1.000  C
  C254     1.0000 0.30660  0.89830  0.22440  Biso   1.000  C
  C255     1.0000 0.69340  0.39830  0.27560  Biso   1.000  C
  C256     1.0000 0.80660  0.60170  0.77560  Biso   1.000  C
  H337     1.0000 0.77150  0.94090  0.28300  Biso   1.000  H
  H338     1.0000 0.72850  0.05910  0.78300  Biso   1.000  H
  H339     1.0000 0.27150  0.55910  0.71700  Biso   1.000  H
  H340     1.0000 0.22850  0.44090  0.21700  Biso   1.000  H
  H341     1.0000 0.22850  0.05910  0.71700  Biso   1.000  H
  H342     1.0000 0.27150  0.94090  0.21700  Biso   1.000  H
  H343     1.0000 0.72850  0.44090  0.28300  Biso   1.000  H
  H344     1.0000 0.77150  0.55910  0.78300  Biso   1.000  H
  H345     1.0000 0.78350  0.85330  0.25870  Biso   1.000  H
  H346     1.0000 0.71650  0.14670  0.75870  Biso   1.000  H
  H347     1.0000 0.28350  0.64670  0.74130  Biso   1.000  H
  H348     1.0000 0.21650  0.35330  0.24130  Biso   1.000  H
  H349     1.0000 0.21650  0.14670  0.74130  Biso   1.000  H
  H350     1.0000 0.28350  0.85330  0.24130  Biso   1.000  H
  H351     1.0000 0.71650  0.35330  0.25870  Biso   1.000  H
  H352     1.0000 0.78350  0.64670  0.75870  Biso   1.000  H
  H353     1.0000 0.84400  0.92200  0.25610  Biso   1.000  H
  H354     1.0000 0.65600  0.07800  0.75610  Biso   1.000  H
  H355     1.0000 0.34400  0.57800  0.74390  Biso   1.000  H
  H356     1.0000 0.15600  0.42200  0.24390  Biso   1.000  H
  H357     1.0000 0.15600  0.07800  0.74390  Biso   1.000  H
  H358     1.0000 0.34400  0.92200  0.24390  Biso   1.000  H
  H359     1.0000 0.65600  0.42200  0.25610  Biso   1.000  H
  H360     1.0000 0.84400  0.57800  0.75610  Biso   1.000  H
  C257     1.0000 0.04670  0.73810  0.32417  Biso   1.000  C
  C258     1.0000 0.45330  0.26190  0.82417  Biso   1.000  C
  C259     1.0000 0.54670  0.76190  0.67583  Biso   1.000  C
  C260     1.0000 0.95330  0.23810  0.17583  Biso   1.000  C
  C261     1.0000 0.95330  0.26190  0.67583  Biso   1.000  C
  C262     1.0000 0.54670  0.73810  0.17583  Biso   1.000  C
  C263     1.0000 0.45330  0.23810  0.32417  Biso   1.000  C
  C264     1.0000 0.04670  0.76190  0.82417  Biso   1.000  C
  H361     1.0000 0.08670  0.69880  0.32440  Biso   1.000  H
  H362     1.0000 0.41330  0.30120  0.82440  Biso   1.000  H
  H363     1.0000 0.58670  0.80120  0.67560  Biso   1.000  H
  H364     1.0000 0.91330  0.19880  0.17560  Biso   1.000  H
  H365     1.0000 0.91330  0.30120  0.67560  Biso   1.000  H
  H366     1.0000 0.58670  0.69880  0.17560  Biso   1.000  H
  H367     1.0000 0.41330  0.19880  0.32440  Biso   1.000  H
  H368     1.0000 0.08670  0.80120  0.82440  Biso   1.000  H
  H369     1.0000 0.02660  0.73800  0.29210  Biso   1.000  H
  H370     1.0000 0.47340  0.26200  0.79210  Biso   1.000  H
  H371     1.0000 0.52660  0.76200  0.70790  Biso   1.000  H
  H372     1.0000 0.97340  0.23800  0.20790  Biso   1.000  H
  H373     1.0000 0.97340  0.26200  0.70790  Biso   1.000  H
  H374     1.0000 0.52660  0.73800  0.20790  Biso   1.000  H
  H375     1.0000 0.47340  0.23800  0.29210  Biso   1.000  H
  H376     1.0000 0.02660  0.76200  0.79210  Biso   1.000  H
  C265     1.0000 0.07570  0.82290  0.33390  Biso   1.000  C
  C266     1.0000 0.42430  0.17710  0.83390  Biso   1.000  C
  C267     1.0000 0.57570  0.67710  0.66610  Biso   1.000  C
  C268     1.0000 0.92430  0.32290  0.16610  Biso   1.000  C
  C269     1.0000 0.92430  0.17710  0.66610  Biso   1.000  C
  C270     1.0000 0.57570  0.82290  0.16610  Biso   1.000  C
  C271     1.0000 0.42430  0.32290  0.33390  Biso   1.000  C
  C272     1.0000 0.07570  0.67710  0.83390  Biso   1.000  C
  H377     1.0000 0.10430  0.82060  0.36290  Biso   1.000  H
  H378     1.0000 0.39570  0.17940  0.86290  Biso   1.000  H
  H379     1.0000 0.60430  0.67940  0.63710  Biso   1.000  H
  H380     1.0000 0.89570  0.32060  0.13710  Biso   1.000  H
  H381     1.0000 0.89570  0.17940  0.63710  Biso   1.000  H
  H382     1.0000 0.60430  0.82060  0.13710  Biso   1.000  H
  H383     1.0000 0.39570  0.32060  0.36290  Biso   1.000  H
  H384     1.0000 0.10430  0.67940  0.86290  Biso   1.000  H
  H385     1.0000 0.03550  0.86070  0.33980  Biso   1.000  H
  H386     1.0000 0.46450  0.13930  0.83980  Biso   1.000  H
  H387     1.0000 0.53550  0.63930  0.66020  Biso   1.000  H
  H388     1.0000 0.96450  0.36070  0.16020  Biso   1.000  H
  H389     1.0000 0.96450  0.13930  0.66020  Biso   1.000  H
  H390     1.0000 0.53550  0.86070  0.16020  Biso   1.000  H
  H391     1.0000 0.46450  0.36070  0.33980  Biso   1.000  H
  H392     1.0000 0.03550  0.63930  0.83980  Biso   1.000  H
  C273     1.0000 0.12110  0.85870  0.29500  Biso   1.000  C
  C274     1.0000 0.37890  0.14130  0.79500  Biso   1.000  C
  C275     1.0000 0.62110  0.64130  0.70500  Biso   1.000  C
  C276     1.0000 0.87890  0.35870  0.20500  Biso   1.000  C
  C277     1.0000 0.87890  0.14130  0.70500  Biso   1.000  C
  C278     1.0000 0.62110  0.85870  0.20500  Biso   1.000  C
  C279     1.0000 0.37890  0.35870  0.29500  Biso   1.000  C
  C280     1.0000 0.12110  0.64130  0.79500  Biso   1.000  C
  H393     1.0000 0.09320  0.85770  0.26560  Biso   1.000  H
  H394     1.0000 0.40680  0.14230  0.76560  Biso   1.000  H
  H395     1.0000 0.59320  0.64230  0.73440  Biso   1.000  H
  H396     1.0000 0.90680  0.35770  0.23440  Biso   1.000  H
  H397     1.0000 0.90680  0.14230  0.73440  Biso   1.000  H
  H398     1.0000 0.59320  0.85770  0.23440  Biso   1.000  H
  H399     1.0000 0.40680  0.35770  0.26560  Biso   1.000  H
  H400     1.0000 0.09320  0.64230  0.76560  Biso   1.000  H
  H401     1.0000 0.16250  0.82220  0.29040  Biso   1.000  H
  H402     1.0000 0.33750  0.17780  0.79040  Biso   1.000  H
  H403     1.0000 0.66250  0.67780  0.70960  Biso   1.000  H
  H404     1.0000 0.83750  0.32220  0.20960  Biso   1.000  H
  H405     1.0000 0.83750  0.17780  0.70960  Biso   1.000  H
  H406     1.0000 0.66250  0.82220  0.20960  Biso   1.000  H
  H407     1.0000 0.33750  0.32220  0.29040  Biso   1.000  H
  H408     1.0000 0.16250  0.67780  0.79040  Biso   1.000  H
  C281     1.0000 0.14800  0.94590  0.30250  Biso   1.000  C
  C282     1.0000 0.35200  0.05410  0.80250  Biso   1.000  C
  C283     1.0000 0.64800  0.55410  0.69750  Biso   1.000  C
  C284     1.0000 0.85200  0.44590  0.19750  Biso   1.000  C
  C285     1.0000 0.85200  0.05410  0.69750  Biso   1.000  C
  C286     1.0000 0.64800  0.94590  0.19750  Biso   1.000  C
  C287     1.0000 0.35200  0.44590  0.30250  Biso   1.000  C
  C288     1.0000 0.14800  0.55410  0.80250  Biso   1.000  C
  H409     1.0000 0.19980  0.94640  0.30060  Biso   1.000  H
  H410     1.0000 0.30020  0.05360  0.80060  Biso   1.000  H
  H411     1.0000 0.69980  0.55360  0.69940  Biso   1.000  H
  H412     1.0000 0.80020  0.44640  0.19940  Biso   1.000  H
  H413     1.0000 0.80020  0.05360  0.69940  Biso   1.000  H
  H414     1.0000 0.69980  0.94640  0.19940  Biso   1.000  H
  H415     1.0000 0.30020  0.44640  0.30060  Biso   1.000  H
  H416     1.0000 0.19980  0.55360  0.80060  Biso   1.000  H
  H417     1.0000 0.13320  0.96530  0.33350  Biso   1.000  H
  H418     1.0000 0.36680  0.03470  0.83350  Biso   1.000  H
  H419     1.0000 0.63320  0.53470  0.66650  Biso   1.000  H
  H420     1.0000 0.86680  0.46530  0.16650  Biso   1.000  H
  H421     1.0000 0.86680  0.03470  0.66650  Biso   1.000  H
  H422     1.0000 0.63320  0.96530  0.16650  Biso   1.000  H
  H423     1.0000 0.36680  0.46530  0.33350  Biso   1.000  H
  H424     1.0000 0.13320  0.53470  0.83350  Biso   1.000  H
  H425     1.0000 0.12830  0.98210  0.27840  Biso   1.000  H
  H426     1.0000 0.37170  0.01790  0.77840  Biso   1.000  H
  H427     1.0000 0.62830  0.51790  0.72160  Biso   1.000  H
  H428     1.0000 0.87170  0.48210  0.22160  Biso   1.000  H
  H429     1.0000 0.87170  0.01790  0.72160  Biso   1.000  H
  H430     1.0000 0.62830  0.98210  0.22160  Biso   1.000  H
  H431     1.0000 0.37170  0.48210  0.27840  Biso   1.000  H
  H432     1.0000 0.12830  0.51790  0.77840  Biso   1.000  H
  S1       1.0000 0.47585  0.34444  0.68465  Biso   1.000  S
  S2       1.0000 0.02415  0.65556  0.18465  Biso   1.000  S
  S3       1.0000 0.97585  0.15556  0.31535  Biso   1.000  S
  S4       1.0000 0.52415  0.84444  0.81535  Biso   1.000  S
  S5       1.0000 0.52415  0.65556  0.31535  Biso   1.000  S
  S6       1.0000 0.97585  0.34444  0.81535  Biso   1.000  S
  S7       1.0000 0.02415  0.84444  0.68465  Biso   1.000  S
  S8       1.0000 0.47585  0.15556  0.18465  Biso   1.000  S
  O49      1.0000 0.52190  0.35820  0.72770  Biso   1.000  O
  O50      1.0000 0.97810  0.64180  0.22770  Biso   1.000  O
  O51      1.0000 0.02190  0.14180  0.27230  Biso   1.000  O
  O52      1.0000 0.47810  0.85820  0.77230  Biso   1.000  O
  O53      1.0000 0.47810  0.64180  0.27230  Biso   1.000  O
  O54      1.0000 0.02190  0.35820  0.77230  Biso   1.000  O
  O55      1.0000 0.97810  0.85820  0.72770  Biso   1.000  O
  O56      1.0000 0.52190  0.14180  0.22770  Biso   1.000  O
  C289     1.0000 0.43370  0.43980  0.67090  Biso   1.000  C
  C290     1.0000 0.06630  0.56020  0.17090  Biso   1.000  C
  C291     1.0000 0.93370  0.06020  0.32910  Biso   1.000  C
  C292     1.0000 0.56630  0.93980  0.82910  Biso   1.000  C
  C293     1.0000 0.56630  0.56020  0.32910  Biso   1.000  C
  C294     1.0000 0.93370  0.43980  0.82910  Biso   1.000  C
  C295     1.0000 0.06630  0.93980  0.67090  Biso   1.000  C
  C296     1.0000 0.43370  0.06020  0.17090  Biso   1.000  C
  H433     1.0000 0.39880  0.45300  0.69510  Biso   1.000  H
  H434     1.0000 0.10120  0.54700  0.19510  Biso   1.000  H
  H435     1.0000 0.89880  0.04700  0.30490  Biso   1.000  H
  H436     1.0000 0.60120  0.95300  0.80490  Biso   1.000  H
  H437     1.0000 0.60120  0.54700  0.30490  Biso   1.000  H
  H438     1.0000 0.89880  0.45300  0.80490  Biso   1.000  H
  H439     1.0000 0.10120  0.95300  0.69510  Biso   1.000  H
  H440     1.0000 0.39880  0.04700  0.19510  Biso   1.000  H
  H441     1.0000 0.40990  0.43530  0.64050  Biso   1.000  H
  H442     1.0000 0.09010  0.56470  0.14050  Biso   1.000  H
  H443     1.0000 0.90990  0.06470  0.35950  Biso   1.000  H
  H444     1.0000 0.59010  0.93530  0.85950  Biso   1.000  H
  H445     1.0000 0.59010  0.56470  0.35950  Biso   1.000  H
  H446     1.0000 0.90990  0.43530  0.85950  Biso   1.000  H
  H447     1.0000 0.09010  0.93530  0.64050  Biso   1.000  H
  H448     1.0000 0.40990  0.06470  0.14050  Biso   1.000  H
  H449     1.0000 0.46930  0.48360  0.66950  Biso   1.000  H
  H450     1.0000 0.03070  0.51640  0.16950  Biso   1.000  H
  H451     1.0000 0.96930  0.01640  0.33050  Biso   1.000  H
  H452     1.0000 0.53070  0.98360  0.83050  Biso   1.000  H
  H453     1.0000 0.53070  0.51640  0.33050  Biso   1.000  H
  H454     1.0000 0.96930  0.48360  0.83050  Biso   1.000  H
  H455     1.0000 0.03070  0.98360  0.66950  Biso   1.000  H
  H456     1.0000 0.46930  0.01640  0.16950  Biso   1.000  H
  C297     1.0000 0.53340  0.34110  0.63550  Biso   1.000  C
  C298     1.0000 0.96660  0.65890  0.13550  Biso   1.000  C
  C299     1.0000 0.03340  0.15890  0.36450  Biso   1.000  C
  C300     1.0000 0.46660  0.84110  0.86450  Biso   1.000  C
  C301     1.0000 0.46660  0.65890  0.36450  Biso   1.000  C
  C302     1.0000 0.03340  0.34110  0.86450  Biso   1.000  C
  C303     1.0000 0.96660  0.84110  0.63550  Biso   1.000  C
  C304     1.0000 0.53340  0.15890  0.13550  Biso   1.000  C
  H457     1.0000 0.56140  0.29040  0.63650  Biso   1.000  H
  H458     1.0000 0.93860  0.70960  0.13650  Biso   1.000  H
  H459     1.0000 0.06140  0.20960  0.36350  Biso   1.000  H
  H460     1.0000 0.43860  0.79040  0.86350  Biso   1.000  H
  H461     1.0000 0.43860  0.70960  0.36350  Biso   1.000  H
  H462     1.0000 0.06140  0.29040  0.86350  Biso   1.000  H
  H463     1.0000 0.93860  0.79040  0.63650  Biso   1.000  H
  H464     1.0000 0.56140  0.20960  0.13650  Biso   1.000  H
  H465     1.0000 0.56510  0.38880  0.63630  Biso   1.000  H
  H466     1.0000 0.93490  0.61120  0.13630  Biso   1.000  H
  H467     1.0000 0.06510  0.11120  0.36370  Biso   1.000  H
  H468     1.0000 0.43490  0.88880  0.86370  Biso   1.000  H
  H469     1.0000 0.43490  0.61120  0.36370  Biso   1.000  H
  H470     1.0000 0.06510  0.38880  0.86370  Biso   1.000  H
  H471     1.0000 0.93490  0.88880  0.63630  Biso   1.000  H
  H472     1.0000 0.56510  0.11120  0.13630  Biso   1.000  H
  H473     1.0000 0.50540  0.34240  0.60660  Biso   1.000  H
  H474     1.0000 0.99460  0.65760  0.10660  Biso   1.000  H
  H475     1.0000 0.00540  0.15760  0.39340  Biso   1.000  H
  H476     1.0000 0.49460  0.84240  0.89340  Biso   1.000  H
  H477     1.0000 0.49460  0.65760  0.39340  Biso   1.000  H
  H478     1.0000 0.00540  0.34240  0.89340  Biso   1.000  H
  H479     1.0000 0.99460  0.84240  0.60660  Biso   1.000  H
  H480     1.0000 0.50540  0.15760  0.10660  Biso   1.000  H
