data_image0
_cell_length_a       31.9254
_cell_length_b       31.9254
_cell_length_c       11.1368
_cell_angle_alpha    90
_cell_angle_beta     90
_cell_angle_gamma    120

_symmetry_space_group_name_H-M    "P 1"
_symmetry_int_tables_number       1

loop_
  _symmetry_equiv_pos_as_xyz
  'x, y, z'

loop_
  _atom_site_label
  _atom_site_occupancy
  _atom_site_fract_x
  _atom_site_fract_y
  _atom_site_fract_z
  _atom_site_thermal_displace_type
  _atom_site_B_iso_or_equiv
  _atom_site_type_symbol
  C1       1.0000 0.00670  0.27960  0.38650  Biso   1.000  C
  C2       1.0000 0.72040  0.72710  0.38650  Biso   1.000  C
  C3       1.0000 0.27290  0.99330  0.38650  Biso   1.000  C
  C4       1.0000 0.67337  0.61293  0.71983  Biso   1.000  C
  C5       1.0000 0.38707  0.06043  0.71983  Biso   1.000  C
  C6       1.0000 0.93957  0.32663  0.71983  Biso   1.000  C
  C7       1.0000 0.34003  0.94627  0.05317  Biso   1.000  C
  C8       1.0000 0.05373  0.39377  0.05317  Biso   1.000  C
  C9       1.0000 0.60623  0.65997  0.05317  Biso   1.000  C
  C10      1.0000 0.99330  0.72040  0.61350  Biso   1.000  C
  C11      1.0000 0.27960  0.27290  0.61350  Biso   1.000  C
  C12      1.0000 0.72710  0.00670  0.61350  Biso   1.000  C
  C13      1.0000 0.65997  0.05373  0.94683  Biso   1.000  C
  C14      1.0000 0.94627  0.60623  0.94683  Biso   1.000  C
  C15      1.0000 0.39377  0.34003  0.94683  Biso   1.000  C
  C16      1.0000 0.32663  0.38707  0.28017  Biso   1.000  C
  C17      1.0000 0.61293  0.93957  0.28017  Biso   1.000  C
  C18      1.0000 0.06043  0.67337  0.28017  Biso   1.000  C
  C19      1.0000 0.97340  0.23110  0.35740  Biso   1.000  C
  C20      1.0000 0.76890  0.74230  0.35740  Biso   1.000  C
  C21      1.0000 0.25770  0.02660  0.35740  Biso   1.000  C
  C22      1.0000 0.64007  0.56443  0.69073  Biso   1.000  C
  C23      1.0000 0.43557  0.07563  0.69073  Biso   1.000  C
  C24      1.0000 0.92437  0.35993  0.69073  Biso   1.000  C
  C25      1.0000 0.30673  0.89777  0.02407  Biso   1.000  C
  C26      1.0000 0.10223  0.40897  0.02407  Biso   1.000  C
  C27      1.0000 0.59103  0.69327  0.02407  Biso   1.000  C
  C28      1.0000 0.02660  0.76890  0.64260  Biso   1.000  C
  C29      1.0000 0.23110  0.25770  0.64260  Biso   1.000  C
  C30      1.0000 0.74230  0.97340  0.64260  Biso   1.000  C
  C31      1.0000 0.69327  0.10223  0.97593  Biso   1.000  C
  C32      1.0000 0.89777  0.59103  0.97593  Biso   1.000  C
  C33      1.0000 0.40897  0.30673  0.97593  Biso   1.000  C
  C34      1.0000 0.35993  0.43557  0.30927  Biso   1.000  C
  C35      1.0000 0.56443  0.92437  0.30927  Biso   1.000  C
  C36      1.0000 0.07563  0.64007  0.30927  Biso   1.000  C
  H1       1.0000 0.98440  0.21060  0.33130  Biso   1.000  H
  H2       1.0000 0.78940  0.77380  0.33130  Biso   1.000  H
  H3       1.0000 0.22620  0.01560  0.33130  Biso   1.000  H
  H4       1.0000 0.65107  0.54393  0.66463  Biso   1.000  H
  H5       1.0000 0.45607  0.10713  0.66463  Biso   1.000  H
  H6       1.0000 0.89287  0.34893  0.66463  Biso   1.000  H
  H7       1.0000 0.31773  0.87727  0.99797  Biso   1.000  H
  H8       1.0000 0.12273  0.44047  0.99797  Biso   1.000  H
  H9       1.0000 0.55953  0.68227  0.99797  Biso   1.000  H
  H10      1.0000 0.01560  0.78940  0.66870  Biso   1.000  H
  H11      1.0000 0.21060  0.22620  0.66870  Biso   1.000  H
  H12      1.0000 0.77380  0.98440  0.66870  Biso   1.000  H
  H13      1.0000 0.68227  0.12273  0.00203  Biso   1.000  H
  H14      1.0000 0.87727  0.55953  0.00203  Biso   1.000  H
  H15      1.0000 0.44047  0.31773  0.00203  Biso   1.000  H
  H16      1.0000 0.34893  0.45607  0.33537  Biso   1.000  H
  H17      1.0000 0.54393  0.89287  0.33537  Biso   1.000  H
  H18      1.0000 0.10713  0.65107  0.33537  Biso   1.000  H
  C37      1.0000 0.92380  0.21400  0.36800  Biso   1.000  C
  C38      1.0000 0.78600  0.70980  0.36800  Biso   1.000  C
  C39      1.0000 0.29020  0.07620  0.36800  Biso   1.000  C
  C40      1.0000 0.59047  0.54733  0.70133  Biso   1.000  C
  C41      1.0000 0.45267  0.04313  0.70133  Biso   1.000  C
  C42      1.0000 0.95687  0.40953  0.70133  Biso   1.000  C
  C43      1.0000 0.25713  0.88067  0.03467  Biso   1.000  C
  C44      1.0000 0.11933  0.37647  0.03467  Biso   1.000  C
  C45      1.0000 0.62353  0.74287  0.03467  Biso   1.000  C
  C46      1.0000 0.07620  0.78600  0.63200  Biso   1.000  C
  C47      1.0000 0.21400  0.29020  0.63200  Biso   1.000  C
  C48      1.0000 0.70980  0.92380  0.63200  Biso   1.000  C
  C49      1.0000 0.74287  0.11933  0.96533  Biso   1.000  C
  C50      1.0000 0.88067  0.62353  0.96533  Biso   1.000  C
  C51      1.0000 0.37647  0.25713  0.96533  Biso   1.000  C
  C52      1.0000 0.40953  0.45267  0.29867  Biso   1.000  C
  C53      1.0000 0.54733  0.95687  0.29867  Biso   1.000  C
  C54      1.0000 0.04313  0.59047  0.29867  Biso   1.000  C
  H19      1.0000 0.90220  0.18150  0.35210  Biso   1.000  H
  H20      1.0000 0.81850  0.72070  0.35210  Biso   1.000  H
  H21      1.0000 0.27930  0.09780  0.35210  Biso   1.000  H
  H22      1.0000 0.56887  0.51483  0.68543  Biso   1.000  H
  H23      1.0000 0.48517  0.05403  0.68543  Biso   1.000  H
  H24      1.0000 0.94597  0.43113  0.68543  Biso   1.000  H
  H25      1.0000 0.23553  0.84817  0.01877  Biso   1.000  H
  H26      1.0000 0.15183  0.38737  0.01877  Biso   1.000  H
  H27      1.0000 0.61263  0.76447  0.01877  Biso   1.000  H
  H28      1.0000 0.09780  0.81850  0.64790  Biso   1.000  H
  H29      1.0000 0.18150  0.27930  0.64790  Biso   1.000  H
  H30      1.0000 0.72070  0.90220  0.64790  Biso   1.000  H
  H31      1.0000 0.76447  0.15183  0.98123  Biso   1.000  H
  H32      1.0000 0.84817  0.61263  0.98123  Biso   1.000  H
  H33      1.0000 0.38737  0.23553  0.98123  Biso   1.000  H
  H34      1.0000 0.43113  0.48517  0.31457  Biso   1.000  H
  H35      1.0000 0.51483  0.94597  0.31457  Biso   1.000  H
  H36      1.0000 0.05403  0.56887  0.31457  Biso   1.000  H
  C55      1.0000 0.90630  0.24260  0.40020  Biso   1.000  C
  C56      1.0000 0.75740  0.66370  0.40020  Biso   1.000  C
  C57      1.0000 0.33630  0.09370  0.40020  Biso   1.000  C
  C58      1.0000 0.57297  0.57593  0.73353  Biso   1.000  C
  C59      1.0000 0.42407  0.99703  0.73353  Biso   1.000  C
  C60      1.0000 0.00297  0.42703  0.73353  Biso   1.000  C
  C61      1.0000 0.23963  0.90927  0.06687  Biso   1.000  C
  C62      1.0000 0.09073  0.33037  0.06687  Biso   1.000  C
  C63      1.0000 0.66963  0.76037  0.06687  Biso   1.000  C
  C64      1.0000 0.09370  0.75740  0.59980  Biso   1.000  C
  C65      1.0000 0.24260  0.33630  0.59980  Biso   1.000  C
  C66      1.0000 0.66370  0.90630  0.59980  Biso   1.000  C
  C67      1.0000 0.76037  0.09073  0.93313  Biso   1.000  C
  C68      1.0000 0.90927  0.66963  0.93313  Biso   1.000  C
  C69      1.0000 0.33037  0.23963  0.93313  Biso   1.000  C
  C70      1.0000 0.42703  0.42407  0.26647  Biso   1.000  C
  C71      1.0000 0.57593  0.00297  0.26647  Biso   1.000  C
  C72      1.0000 0.99703  0.57297  0.26647  Biso   1.000  C
  H37      1.0000 0.87300  0.22990  0.40660  Biso   1.000  H
  H38      1.0000 0.77010  0.64310  0.40660  Biso   1.000  H
  H39      1.0000 0.35690  0.12700  0.40660  Biso   1.000  H
  H40      1.0000 0.53967  0.56323  0.73993  Biso   1.000  H
  H41      1.0000 0.43677  0.97643  0.73993  Biso   1.000  H
  H42      1.0000 0.02357  0.46033  0.73993  Biso   1.000  H
  H43      1.0000 0.20633  0.89657  0.07327  Biso   1.000  H
  H44      1.0000 0.10343  0.30977  0.07327  Biso   1.000  H
  H45      1.0000 0.69023  0.79367  0.07327  Biso   1.000  H
  H46      1.0000 0.12700  0.77010  0.59340  Biso   1.000  H
  H47      1.0000 0.22990  0.35690  0.59340  Biso   1.000  H
  H48      1.0000 0.64310  0.87300  0.59340  Biso   1.000  H
  H49      1.0000 0.79367  0.10343  0.92673  Biso   1.000  H
  H50      1.0000 0.89657  0.69023  0.92673  Biso   1.000  H
  H51      1.0000 0.30977  0.20633  0.92673  Biso   1.000  H
  H52      1.0000 0.46033  0.43677  0.26007  Biso   1.000  H
  H53      1.0000 0.56323  0.02357  0.26007  Biso   1.000  H
  H54      1.0000 0.97643  0.53967  0.26007  Biso   1.000  H
  C73      1.0000 0.93760  0.29130  0.42420  Biso   1.000  C
  C74      1.0000 0.70870  0.64630  0.42420  Biso   1.000  C
  C75      1.0000 0.35370  0.06240  0.42420  Biso   1.000  C
  C76      1.0000 0.60427  0.62463  0.75753  Biso   1.000  C
  C77      1.0000 0.37537  0.97963  0.75753  Biso   1.000  C
  C78      1.0000 0.02037  0.39573  0.75753  Biso   1.000  C
  C79      1.0000 0.27093  0.95797  0.09087  Biso   1.000  C
  C80      1.0000 0.04203  0.31297  0.09087  Biso   1.000  C
  C81      1.0000 0.68703  0.72907  0.09087  Biso   1.000  C
  C82      1.0000 0.06240  0.70870  0.57580  Biso   1.000  C
  C83      1.0000 0.29130  0.35370  0.57580  Biso   1.000  C
  C84      1.0000 0.64630  0.93760  0.57580  Biso   1.000  C
  C85      1.0000 0.72907  0.04203  0.90913  Biso   1.000  C
  C86      1.0000 0.95797  0.68703  0.90913  Biso   1.000  C
  C87      1.0000 0.31297  0.27093  0.90913  Biso   1.000  C
  C88      1.0000 0.39573  0.37537  0.24247  Biso   1.000  C
  C89      1.0000 0.62463  0.02037  0.24247  Biso   1.000  C
  C90      1.0000 0.97963  0.60427  0.24247  Biso   1.000  C
  H55      1.0000 0.92520  0.31130  0.44370  Biso   1.000  H
  H56      1.0000 0.68870  0.61390  0.44370  Biso   1.000  H
  H57      1.0000 0.38610  0.07480  0.44370  Biso   1.000  H
  H58      1.0000 0.59187  0.64463  0.77703  Biso   1.000  H
  H59      1.0000 0.35537  0.94723  0.77703  Biso   1.000  H
  H60      1.0000 0.05277  0.40813  0.77703  Biso   1.000  H
  H61      1.0000 0.25853  0.97797  0.11037  Biso   1.000  H
  H62      1.0000 0.02203  0.28057  0.11037  Biso   1.000  H
  H63      1.0000 0.71943  0.74147  0.11037  Biso   1.000  H
  H64      1.0000 0.07480  0.68870  0.55630  Biso   1.000  H
  H65      1.0000 0.31130  0.38610  0.55630  Biso   1.000  H
  H66      1.0000 0.61390  0.92520  0.55630  Biso   1.000  H
  H67      1.0000 0.74147  0.02203  0.88963  Biso   1.000  H
  H68      1.0000 0.97797  0.71943  0.88963  Biso   1.000  H
  H69      1.0000 0.28057  0.25853  0.88963  Biso   1.000  H
  H70      1.0000 0.40813  0.35537  0.22297  Biso   1.000  H
  H71      1.0000 0.64463  0.05277  0.22297  Biso   1.000  H
  H72      1.0000 0.94723  0.59187  0.22297  Biso   1.000  H
  C91      1.0000 0.15320  0.33870  0.34880  Biso   1.000  C
  C92      1.0000 0.66130  0.81450  0.34880  Biso   1.000  C
  C93      1.0000 0.18550  0.84680  0.34880  Biso   1.000  C
  C94      1.0000 0.81987  0.67203  0.68213  Biso   1.000  C
  C95      1.0000 0.32797  0.14783  0.68213  Biso   1.000  C
  C96      1.0000 0.85217  0.18013  0.68213  Biso   1.000  C
  C97      1.0000 0.48653  0.00537  0.01547  Biso   1.000  C
  C98      1.0000 0.99463  0.48117  0.01547  Biso   1.000  C
  C99      1.0000 0.51883  0.51347  0.01547  Biso   1.000  C
  C100     1.0000 0.84680  0.66130  0.65120  Biso   1.000  C
  C101     1.0000 0.33870  0.18550  0.65120  Biso   1.000  C
  C102     1.0000 0.81450  0.15320  0.65120  Biso   1.000  C
  C103     1.0000 0.51347  0.99463  0.98453  Biso   1.000  C
  C104     1.0000 0.00537  0.51883  0.98453  Biso   1.000  C
  C105     1.0000 0.48117  0.48653  0.98453  Biso   1.000  C
  C106     1.0000 0.18013  0.32797  0.31787  Biso   1.000  C
  C107     1.0000 0.67203  0.85217  0.31787  Biso   1.000  C
  C108     1.0000 0.14783  0.81987  0.31787  Biso   1.000  C
  C109     1.0000 0.98840  0.31050  0.41890  Biso   1.000  C
  C110     1.0000 0.68950  0.67790  0.41890  Biso   1.000  C
  C111     1.0000 0.32210  0.01160  0.41890  Biso   1.000  C
  C112     1.0000 0.65507  0.64383  0.75223  Biso   1.000  C
  C113     1.0000 0.35617  0.01123  0.75223  Biso   1.000  C
  C114     1.0000 0.98877  0.34493  0.75223  Biso   1.000  C
  C115     1.0000 0.32173  0.97717  0.08557  Biso   1.000  C
  C116     1.0000 0.02283  0.34457  0.08557  Biso   1.000  C
  C117     1.0000 0.65543  0.67827  0.08557  Biso   1.000  C
  C118     1.0000 0.01160  0.68950  0.58110  Biso   1.000  C
  C119     1.0000 0.31050  0.32210  0.58110  Biso   1.000  C
  C120     1.0000 0.67790  0.98840  0.58110  Biso   1.000  C
  C121     1.0000 0.67827  0.02283  0.91443  Biso   1.000  C
  C122     1.0000 0.97717  0.65543  0.91443  Biso   1.000  C
  C123     1.0000 0.34457  0.32173  0.91443  Biso   1.000  C
  C124     1.0000 0.34493  0.35617  0.24777  Biso   1.000  C
  C125     1.0000 0.64383  0.98877  0.24777  Biso   1.000  C
  C126     1.0000 0.01123  0.65507  0.24777  Biso   1.000  C
  C127     1.0000 0.01790  0.36000  0.44110  Biso   1.000  C
  C128     1.0000 0.64000  0.65790  0.44110  Biso   1.000  C
  C129     1.0000 0.34210  0.98210  0.44110  Biso   1.000  C
  C130     1.0000 0.68457  0.69333  0.77443  Biso   1.000  C
  C131     1.0000 0.30667  0.99123  0.77443  Biso   1.000  C
  C132     1.0000 0.00877  0.31543  0.77443  Biso   1.000  C
  C133     1.0000 0.35123  0.02667  0.10777  Biso   1.000  C
  C134     1.0000 0.97333  0.32457  0.10777  Biso   1.000  C
  C135     1.0000 0.67543  0.64877  0.10777  Biso   1.000  C
  C136     1.0000 0.98210  0.64000  0.55890  Biso   1.000  C
  C137     1.0000 0.36000  0.34210  0.55890  Biso   1.000  C
  C138     1.0000 0.65790  0.01790  0.55890  Biso   1.000  C
  C139     1.0000 0.64877  0.97333  0.89223  Biso   1.000  C
  C140     1.0000 0.02667  0.67543  0.89223  Biso   1.000  C
  C141     1.0000 0.32457  0.35123  0.89223  Biso   1.000  C
  C142     1.0000 0.31543  0.30667  0.22557  Biso   1.000  C
  C143     1.0000 0.69333  0.00877  0.22557  Biso   1.000  C
  C144     1.0000 0.99123  0.68457  0.22557  Biso   1.000  C
  H73      1.0000 0.00210  0.37670  0.46250  Biso   1.000  H
  H74      1.0000 0.62330  0.62540  0.46250  Biso   1.000  H
  H75      1.0000 0.37460  0.99790  0.46250  Biso   1.000  H
  H76      1.0000 0.66877  0.71003  0.79583  Biso   1.000  H
  H77      1.0000 0.28997  0.95873  0.79583  Biso   1.000  H
  H78      1.0000 0.04127  0.33123  0.79583  Biso   1.000  H
  H79      1.0000 0.33543  0.04337  0.12917  Biso   1.000  H
  H80      1.0000 0.95663  0.29207  0.12917  Biso   1.000  H
  H81      1.0000 0.70793  0.66457  0.12917  Biso   1.000  H
  H82      1.0000 0.99790  0.62330  0.53750  Biso   1.000  H
  H83      1.0000 0.37670  0.37460  0.53750  Biso   1.000  H
  H84      1.0000 0.62540  0.00210  0.53750  Biso   1.000  H
  H85      1.0000 0.66457  0.95663  0.87083  Biso   1.000  H
  H86      1.0000 0.04337  0.70793  0.87083  Biso   1.000  H
  H87      1.0000 0.29207  0.33543  0.87083  Biso   1.000  H
  H88      1.0000 0.33123  0.28997  0.20417  Biso   1.000  H
  H89      1.0000 0.71003  0.04127  0.20417  Biso   1.000  H
  H90      1.0000 0.95873  0.66877  0.20417  Biso   1.000  H
  C145     1.0000 0.08940  0.43760  0.45580  Biso   1.000  C
  C146     1.0000 0.56240  0.65180  0.45580  Biso   1.000  C
  C147     1.0000 0.34820  0.91060  0.45580  Biso   1.000  C
  C148     1.0000 0.75607  0.77093  0.78913  Biso   1.000  C
  C149     1.0000 0.22907  0.98513  0.78913  Biso   1.000  C
  C150     1.0000 0.01487  0.24393  0.78913  Biso   1.000  C
  C151     1.0000 0.42273  0.10427  0.12247  Biso   1.000  C
  C152     1.0000 0.89573  0.31847  0.12247  Biso   1.000  C
  C153     1.0000 0.68153  0.57727  0.12247  Biso   1.000  C
  C154     1.0000 0.91060  0.56240  0.54420  Biso   1.000  C
  C155     1.0000 0.43760  0.34820  0.54420  Biso   1.000  C
  C156     1.0000 0.65180  0.08940  0.54420  Biso   1.000  C
  C157     1.0000 0.57727  0.89573  0.87753  Biso   1.000  C
  C158     1.0000 0.10427  0.68153  0.87753  Biso   1.000  C
  C159     1.0000 0.31847  0.42273  0.87753  Biso   1.000  C
  C160     1.0000 0.24393  0.22907  0.21087  Biso   1.000  C
  C161     1.0000 0.77093  0.01487  0.21087  Biso   1.000  C
  C162     1.0000 0.98513  0.75607  0.21087  Biso   1.000  C
  H91      1.0000 0.07210  0.44520  0.51580  Biso   1.000  H
  H92      1.0000 0.55480  0.62690  0.51580  Biso   1.000  H
  H93      1.0000 0.37310  0.92790  0.51580  Biso   1.000  H
  H94      1.0000 0.73877  0.77853  0.84913  Biso   1.000  H
  H95      1.0000 0.22147  0.96023  0.84913  Biso   1.000  H
  H96      1.0000 0.03977  0.26123  0.84913  Biso   1.000  H
  H97      1.0000 0.40543  0.11187  0.18247  Biso   1.000  H
  H98      1.0000 0.88813  0.29357  0.18247  Biso   1.000  H
  H99      1.0000 0.70643  0.59457  0.18247  Biso   1.000  H
  H100     1.0000 0.92790  0.55480  0.48420  Biso   1.000  H
  H101     1.0000 0.44520  0.37310  0.48420  Biso   1.000  H
  H102     1.0000 0.62690  0.07210  0.48420  Biso   1.000  H
  H103     1.0000 0.59457  0.88813  0.81753  Biso   1.000  H
  H104     1.0000 0.11187  0.70643  0.81753  Biso   1.000  H
  H105     1.0000 0.29357  0.40543  0.81753  Biso   1.000  H
  H106     1.0000 0.26123  0.22147  0.15087  Biso   1.000  H
  H107     1.0000 0.77853  0.03977  0.15087  Biso   1.000  H
  H108     1.0000 0.96023  0.73877  0.15087  Biso   1.000  H
  H109     1.0000 0.09040  0.45420  0.38200  Biso   1.000  H
  H110     1.0000 0.54580  0.63620  0.38200  Biso   1.000  H
  H111     1.0000 0.36380  0.90960  0.38200  Biso   1.000  H
  H112     1.0000 0.75707  0.78753  0.71533  Biso   1.000  H
  H113     1.0000 0.21247  0.96953  0.71533  Biso   1.000  H
  H114     1.0000 0.03047  0.24293  0.71533  Biso   1.000  H
  H115     1.0000 0.42373  0.12087  0.04867  Biso   1.000  H
  H116     1.0000 0.87913  0.30287  0.04867  Biso   1.000  H
  H117     1.0000 0.69713  0.57627  0.04867  Biso   1.000  H
  H118     1.0000 0.90960  0.54580  0.61800  Biso   1.000  H
  H119     1.0000 0.45420  0.36380  0.61800  Biso   1.000  H
  H120     1.0000 0.63620  0.09040  0.61800  Biso   1.000  H
  H121     1.0000 0.57627  0.87913  0.95133  Biso   1.000  H
  H122     1.0000 0.12087  0.69713  0.95133  Biso   1.000  H
  H123     1.0000 0.30287  0.42373  0.95133  Biso   1.000  H
  H124     1.0000 0.24293  0.21247  0.28467  Biso   1.000  H
  H125     1.0000 0.78753  0.03047  0.28467  Biso   1.000  H
  H126     1.0000 0.96953  0.75707  0.28467  Biso   1.000  H
  C163     1.0000 0.13950  0.45370  0.49810  Biso   1.000  C
  C164     1.0000 0.54630  0.68580  0.49810  Biso   1.000  C
  C165     1.0000 0.31420  0.86050  0.49810  Biso   1.000  C
  C166     1.0000 0.80617  0.78703  0.83143  Biso   1.000  C
  C167     1.0000 0.21297  0.01913  0.83143  Biso   1.000  C
  C168     1.0000 0.98087  0.19383  0.83143  Biso   1.000  C
  C169     1.0000 0.47283  0.12037  0.16477  Biso   1.000  C
  C170     1.0000 0.87963  0.35247  0.16477  Biso   1.000  C
  C171     1.0000 0.64753  0.52717  0.16477  Biso   1.000  C
  C172     1.0000 0.86050  0.54630  0.50190  Biso   1.000  C
  C173     1.0000 0.45370  0.31420  0.50190  Biso   1.000  C
  C174     1.0000 0.68580  0.13950  0.50190  Biso   1.000  C
  C175     1.0000 0.52717  0.87963  0.83523  Biso   1.000  C
  C176     1.0000 0.12037  0.64753  0.83523  Biso   1.000  C
  C177     1.0000 0.35247  0.47283  0.83523  Biso   1.000  C
  C178     1.0000 0.19383  0.21297  0.16857  Biso   1.000  C
  C179     1.0000 0.78703  0.98087  0.16857  Biso   1.000  C
  C180     1.0000 0.01913  0.80617  0.16857  Biso   1.000  C
  H127     1.0000 0.15880  0.48870  0.49430  Biso   1.000  H
  H128     1.0000 0.51130  0.67010  0.49430  Biso   1.000  H
  H129     1.0000 0.32990  0.84120  0.49430  Biso   1.000  H
  H130     1.0000 0.82547  0.82203  0.82763  Biso   1.000  H
  H131     1.0000 0.17797  0.00343  0.82763  Biso   1.000  H
  H132     1.0000 0.99657  0.17453  0.82763  Biso   1.000  H
  H133     1.0000 0.49213  0.15537  0.16097  Biso   1.000  H
  H134     1.0000 0.84463  0.33677  0.16097  Biso   1.000  H
  H135     1.0000 0.66323  0.50787  0.16097  Biso   1.000  H
  H136     1.0000 0.84120  0.51130  0.50570  Biso   1.000  H
  H137     1.0000 0.48870  0.32990  0.50570  Biso   1.000  H
  H138     1.0000 0.67010  0.15880  0.50570  Biso   1.000  H
  H139     1.0000 0.50787  0.84463  0.83903  Biso   1.000  H
  H140     1.0000 0.15537  0.66323  0.83903  Biso   1.000  H
  H141     1.0000 0.33677  0.49213  0.83903  Biso   1.000  H
  H142     1.0000 0.17453  0.17797  0.17237  Biso   1.000  H
  H143     1.0000 0.82203  0.99657  0.17237  Biso   1.000  H
  H144     1.0000 0.00343  0.82547  0.17237  Biso   1.000  H
  H145     1.0000 0.13870  0.44400  0.58100  Biso   1.000  H
  H146     1.0000 0.55600  0.69470  0.58100  Biso   1.000  H
  H147     1.0000 0.30530  0.86130  0.58100  Biso   1.000  H
  H148     1.0000 0.80537  0.77733  0.91433  Biso   1.000  H
  H149     1.0000 0.22267  0.02803  0.91433  Biso   1.000  H
  H150     1.0000 0.97197  0.19463  0.91433  Biso   1.000  H
  H151     1.0000 0.47203  0.11067  0.24767  Biso   1.000  H
  H152     1.0000 0.88933  0.36137  0.24767  Biso   1.000  H
  H153     1.0000 0.63863  0.52797  0.24767  Biso   1.000  H
  H154     1.0000 0.86130  0.55600  0.41900  Biso   1.000  H
  H155     1.0000 0.44400  0.30530  0.41900  Biso   1.000  H
  H156     1.0000 0.69470  0.13870  0.41900  Biso   1.000  H
  H157     1.0000 0.52797  0.88933  0.75233  Biso   1.000  H
  H158     1.0000 0.11067  0.63863  0.75233  Biso   1.000  H
  H159     1.0000 0.36137  0.47203  0.75233  Biso   1.000  H
  H160     1.0000 0.19463  0.22267  0.08567  Biso   1.000  H
  H161     1.0000 0.77733  0.97197  0.08567  Biso   1.000  H
  H162     1.0000 0.02803  0.80537  0.08567  Biso   1.000  H
  C181     1.0000 0.20850  0.44070  0.47470  Biso   1.000  C
  C182     1.0000 0.55930  0.76780  0.47470  Biso   1.000  C
  C183     1.0000 0.23220  0.79150  0.47470  Biso   1.000  C
  C184     1.0000 0.87517  0.77403  0.80803  Biso   1.000  C
  C185     1.0000 0.22597  0.10113  0.80803  Biso   1.000  C
  C186     1.0000 0.89887  0.12483  0.80803  Biso   1.000  C
  C187     1.0000 0.54183  0.10737  0.14137  Biso   1.000  C
  C188     1.0000 0.89263  0.43447  0.14137  Biso   1.000  C
  C189     1.0000 0.56553  0.45817  0.14137  Biso   1.000  C
  C190     1.0000 0.79150  0.55930  0.52530  Biso   1.000  C
  C191     1.0000 0.44070  0.23220  0.52530  Biso   1.000  C
  C192     1.0000 0.76780  0.20850  0.52530  Biso   1.000  C
  C193     1.0000 0.45817  0.89263  0.85863  Biso   1.000  C
  C194     1.0000 0.10737  0.56553  0.85863  Biso   1.000  C
  C195     1.0000 0.43447  0.54183  0.85863  Biso   1.000  C
  C196     1.0000 0.12483  0.22597  0.19197  Biso   1.000  C
  C197     1.0000 0.77403  0.89887  0.19197  Biso   1.000  C
  C198     1.0000 0.10113  0.87517  0.19197  Biso   1.000  C
  H163     1.0000 0.21880  0.42080  0.43230  Biso   1.000  H
  H164     1.0000 0.57920  0.79800  0.43230  Biso   1.000  H
  H165     1.0000 0.20200  0.78120  0.43230  Biso   1.000  H
  H166     1.0000 0.88547  0.75413  0.76563  Biso   1.000  H
  H167     1.0000 0.24587  0.13133  0.76563  Biso   1.000  H
  H168     1.0000 0.86867  0.11453  0.76563  Biso   1.000  H
  H169     1.0000 0.55213  0.08747  0.09897  Biso   1.000  H
  H170     1.0000 0.91253  0.46467  0.09897  Biso   1.000  H
  H171     1.0000 0.53533  0.44787  0.09897  Biso   1.000  H
  H172     1.0000 0.78120  0.57920  0.56770  Biso   1.000  H
  H173     1.0000 0.42080  0.20200  0.56770  Biso   1.000  H
  H174     1.0000 0.79800  0.21880  0.56770  Biso   1.000  H
  H175     1.0000 0.44787  0.91253  0.90103  Biso   1.000  H
  H176     1.0000 0.08747  0.53533  0.90103  Biso   1.000  H
  H177     1.0000 0.46467  0.55213  0.90103  Biso   1.000  H
  H178     1.0000 0.11453  0.24587  0.23437  Biso   1.000  H
  H179     1.0000 0.75413  0.86867  0.23437  Biso   1.000  H
  H180     1.0000 0.13133  0.88547  0.23437  Biso   1.000  H
  H181     1.0000 0.20310  0.43040  0.55800  Biso   1.000  H
  H182     1.0000 0.56960  0.77270  0.55800  Biso   1.000  H
  H183     1.0000 0.22730  0.79690  0.55800  Biso   1.000  H
  H184     1.0000 0.86977  0.76373  0.89133  Biso   1.000  H
  H185     1.0000 0.23627  0.10603  0.89133  Biso   1.000  H
  H186     1.0000 0.89397  0.13023  0.89133  Biso   1.000  H
  H187     1.0000 0.53643  0.09707  0.22467  Biso   1.000  H
  H188     1.0000 0.90293  0.43937  0.22467  Biso   1.000  H
  H189     1.0000 0.56063  0.46357  0.22467  Biso   1.000  H
  H190     1.0000 0.79690  0.56960  0.44200  Biso   1.000  H
  H191     1.0000 0.43040  0.22730  0.44200  Biso   1.000  H
  H192     1.0000 0.77270  0.20310  0.44200  Biso   1.000  H
  H193     1.0000 0.46357  0.90293  0.77533  Biso   1.000  H
  H194     1.0000 0.09707  0.56063  0.77533  Biso   1.000  H
  H195     1.0000 0.43937  0.53643  0.77533  Biso   1.000  H
  H196     1.0000 0.13023  0.23627  0.10867  Biso   1.000  H
  H197     1.0000 0.76373  0.89397  0.10867  Biso   1.000  H
  H198     1.0000 0.10603  0.86977  0.10867  Biso   1.000  H
  C199     1.0000 0.17060  0.44970  0.29620  Biso   1.000  C
  C200     1.0000 0.55030  0.72090  0.29620  Biso   1.000  C
  C201     1.0000 0.27910  0.82940  0.29620  Biso   1.000  C
  C202     1.0000 0.83727  0.78303  0.62953  Biso   1.000  C
  C203     1.0000 0.21697  0.05423  0.62953  Biso   1.000  C
  C204     1.0000 0.94577  0.16273  0.62953  Biso   1.000  C
  C205     1.0000 0.50393  0.11637  0.96287  Biso   1.000  C
  C206     1.0000 0.88363  0.38757  0.96287  Biso   1.000  C
  C207     1.0000 0.61243  0.49607  0.96287  Biso   1.000  C
  C208     1.0000 0.82940  0.55030  0.70380  Biso   1.000  C
  C209     1.0000 0.44970  0.27910  0.70380  Biso   1.000  C
  C210     1.0000 0.72090  0.17060  0.70380  Biso   1.000  C
  C211     1.0000 0.49607  0.88363  0.03713  Biso   1.000  C
  C212     1.0000 0.11637  0.61243  0.03713  Biso   1.000  C
  C213     1.0000 0.38757  0.50393  0.03713  Biso   1.000  C
  C214     1.0000 0.16273  0.21697  0.37047  Biso   1.000  C
  C215     1.0000 0.78303  0.94577  0.37047  Biso   1.000  C
  C216     1.0000 0.05423  0.83727  0.37047  Biso   1.000  C
  H199     1.0000 0.14060  0.44570  0.26360  Biso   1.000  H
  H200     1.0000 0.55430  0.69490  0.26360  Biso   1.000  H
  H201     1.0000 0.30510  0.85940  0.26360  Biso   1.000  H
  H202     1.0000 0.80727  0.77903  0.59693  Biso   1.000  H
  H203     1.0000 0.22097  0.02823  0.59693  Biso   1.000  H
  H204     1.0000 0.97177  0.19273  0.59693  Biso   1.000  H
  H205     1.0000 0.47393  0.11237  0.93027  Biso   1.000  H
  H206     1.0000 0.88763  0.36157  0.93027  Biso   1.000  H
  H207     1.0000 0.63843  0.52607  0.93027  Biso   1.000  H
  H208     1.0000 0.85940  0.55430  0.73640  Biso   1.000  H
  H209     1.0000 0.44570  0.30510  0.73640  Biso   1.000  H
  H210     1.0000 0.69490  0.14060  0.73640  Biso   1.000  H
  H211     1.0000 0.52607  0.88763  0.06973  Biso   1.000  H
  H212     1.0000 0.11237  0.63843  0.06973  Biso   1.000  H
  H213     1.0000 0.36157  0.47393  0.06973  Biso   1.000  H
  H214     1.0000 0.19273  0.22097  0.40307  Biso   1.000  H
  H215     1.0000 0.77903  0.97177  0.40307  Biso   1.000  H
  H216     1.0000 0.02823  0.80727  0.40307  Biso   1.000  H
  H217     1.0000 0.17940  0.42970  0.24930  Biso   1.000  H
  H218     1.0000 0.57030  0.74970  0.24930  Biso   1.000  H
  H219     1.0000 0.25030  0.82060  0.24930  Biso   1.000  H
  H220     1.0000 0.84607  0.76303  0.58263  Biso   1.000  H
  H221     1.0000 0.23697  0.08303  0.58263  Biso   1.000  H
  H222     1.0000 0.91697  0.15393  0.58263  Biso   1.000  H
  H223     1.0000 0.51273  0.09637  0.91597  Biso   1.000  H
  H224     1.0000 0.90363  0.41637  0.91597  Biso   1.000  H
  H225     1.0000 0.58363  0.48727  0.91597  Biso   1.000  H
  H226     1.0000 0.82060  0.57030  0.75070  Biso   1.000  H
  H227     1.0000 0.42970  0.25030  0.75070  Biso   1.000  H
  H228     1.0000 0.74970  0.17940  0.75070  Biso   1.000  H
  H229     1.0000 0.48727  0.90363  0.08403  Biso   1.000  H
  H230     1.0000 0.09637  0.58363  0.08403  Biso   1.000  H
  H231     1.0000 0.41637  0.51273  0.08403  Biso   1.000  H
  H232     1.0000 0.15393  0.23697  0.41737  Biso   1.000  H
  H233     1.0000 0.76303  0.91697  0.41737  Biso   1.000  H
  H234     1.0000 0.08303  0.84607  0.41737  Biso   1.000  H
  C217     1.0000 0.20970  0.50220  0.28200  Biso   1.000  C
  C218     1.0000 0.49780  0.70750  0.28200  Biso   1.000  C
  C219     1.0000 0.29250  0.79030  0.28200  Biso   1.000  C
  C220     1.0000 0.87637  0.83553  0.61533  Biso   1.000  C
  C221     1.0000 0.16447  0.04083  0.61533  Biso   1.000  C
  C222     1.0000 0.95917  0.12363  0.61533  Biso   1.000  C
  C223     1.0000 0.54303  0.16887  0.94867  Biso   1.000  C
  C224     1.0000 0.83113  0.37417  0.94867  Biso   1.000  C
  C225     1.0000 0.62583  0.45697  0.94867  Biso   1.000  C
  C226     1.0000 0.79030  0.49780  0.71800  Biso   1.000  C
  C227     1.0000 0.50220  0.29250  0.71800  Biso   1.000  C
  C228     1.0000 0.70750  0.20970  0.71800  Biso   1.000  C
  C229     1.0000 0.45697  0.83113  0.05133  Biso   1.000  C
  C230     1.0000 0.16887  0.62583  0.05133  Biso   1.000  C
  C231     1.0000 0.37417  0.54303  0.05133  Biso   1.000  C
  C232     1.0000 0.12363  0.16447  0.38467  Biso   1.000  C
  C233     1.0000 0.83553  0.95917  0.38467  Biso   1.000  C
  C234     1.0000 0.04083  0.87637  0.38467  Biso   1.000  C
  H235     1.0000 0.21440  0.51090  0.19760  Biso   1.000  H
  H236     1.0000 0.48910  0.70350  0.19760  Biso   1.000  H
  H237     1.0000 0.29650  0.78560  0.19760  Biso   1.000  H
  H238     1.0000 0.88107  0.84423  0.53093  Biso   1.000  H
  H239     1.0000 0.15577  0.03683  0.53093  Biso   1.000  H
  H240     1.0000 0.96317  0.11893  0.53093  Biso   1.000  H
  H241     1.0000 0.54773  0.17757  0.86427  Biso   1.000  H
  H242     1.0000 0.82243  0.37017  0.86427  Biso   1.000  H
  H243     1.0000 0.62983  0.45227  0.86427  Biso   1.000  H
  H244     1.0000 0.78560  0.48910  0.80240  Biso   1.000  H
  H245     1.0000 0.51090  0.29650  0.80240  Biso   1.000  H
  H246     1.0000 0.70350  0.21440  0.80240  Biso   1.000  H
  H247     1.0000 0.45227  0.82243  0.13573  Biso   1.000  H
  H248     1.0000 0.17757  0.62983  0.13573  Biso   1.000  H
  H249     1.0000 0.37017  0.54773  0.13573  Biso   1.000  H
  H250     1.0000 0.11893  0.15577  0.46907  Biso   1.000  H
  H251     1.0000 0.84423  0.96317  0.46907  Biso   1.000  H
  H252     1.0000 0.03683  0.88107  0.46907  Biso   1.000  H
  H253     1.0000 0.20040  0.52310  0.32310  Biso   1.000  H
  H254     1.0000 0.47690  0.67730  0.32310  Biso   1.000  H
  H255     1.0000 0.32270  0.79960  0.32310  Biso   1.000  H
  H256     1.0000 0.86707  0.85643  0.65643  Biso   1.000  H
  H257     1.0000 0.14357  0.01063  0.65643  Biso   1.000  H
  H258     1.0000 0.98937  0.13293  0.65643  Biso   1.000  H
  H259     1.0000 0.53373  0.18977  0.98977  Biso   1.000  H
  H260     1.0000 0.81023  0.34397  0.98977  Biso   1.000  H
  H261     1.0000 0.65603  0.46627  0.98977  Biso   1.000  H
  H262     1.0000 0.79960  0.47690  0.67690  Biso   1.000  H
  H263     1.0000 0.52310  0.32270  0.67690  Biso   1.000  H
  H264     1.0000 0.67730  0.20040  0.67690  Biso   1.000  H
  H265     1.0000 0.46627  0.81023  0.01023  Biso   1.000  H
  H266     1.0000 0.18977  0.65603  0.01023  Biso   1.000  H
  H267     1.0000 0.34397  0.53373  0.01023  Biso   1.000  H
  H268     1.0000 0.13293  0.14357  0.34357  Biso   1.000  H
  H269     1.0000 0.85643  0.98937  0.34357  Biso   1.000  H
  H270     1.0000 0.01063  0.86707  0.34357  Biso   1.000  H
  C235     1.0000 0.24900  0.49290  0.46950  Biso   1.000  C
  C236     1.0000 0.50710  0.75610  0.46950  Biso   1.000  C
  C237     1.0000 0.24390  0.75100  0.46950  Biso   1.000  C
  C238     1.0000 0.91567  0.82623  0.80283  Biso   1.000  C
  C239     1.0000 0.17377  0.08943  0.80283  Biso   1.000  C
  C240     1.0000 0.91057  0.08433  0.80283  Biso   1.000  C
  C241     1.0000 0.58233  0.15957  0.13617  Biso   1.000  C
  C242     1.0000 0.84043  0.42277  0.13617  Biso   1.000  C
  C243     1.0000 0.57723  0.41767  0.13617  Biso   1.000  C
  C244     1.0000 0.75100  0.50710  0.53050  Biso   1.000  C
  C245     1.0000 0.49290  0.24390  0.53050  Biso   1.000  C
  C246     1.0000 0.75610  0.24900  0.53050  Biso   1.000  C
  C247     1.0000 0.41767  0.84043  0.86383  Biso   1.000  C
  C248     1.0000 0.15957  0.57723  0.86383  Biso   1.000  C
  C249     1.0000 0.42277  0.58233  0.86383  Biso   1.000  C
  C250     1.0000 0.08433  0.17377  0.19717  Biso   1.000  C
  C251     1.0000 0.82623  0.91057  0.19717  Biso   1.000  C
  C252     1.0000 0.08943  0.91567  0.19717  Biso   1.000  C
  H271     1.0000 0.27860  0.49600  0.50160  Biso   1.000  H
  H272     1.0000 0.50400  0.78260  0.50160  Biso   1.000  H
  H273     1.0000 0.21740  0.72140  0.50160  Biso   1.000  H
  H274     1.0000 0.94527  0.82933  0.83493  Biso   1.000  H
  H275     1.0000 0.17067  0.11593  0.83493  Biso   1.000  H
  H276     1.0000 0.88407  0.05473  0.83493  Biso   1.000  H
  H277     1.0000 0.61193  0.16267  0.16827  Biso   1.000  H
  H278     1.0000 0.83733  0.44927  0.16827  Biso   1.000  H
  H279     1.0000 0.55073  0.38807  0.16827  Biso   1.000  H
  H280     1.0000 0.72140  0.50400  0.49840  Biso   1.000  H
  H281     1.0000 0.49600  0.21740  0.49840  Biso   1.000  H
  H282     1.0000 0.78260  0.27860  0.49840  Biso   1.000  H
  H283     1.0000 0.38807  0.83733  0.83173  Biso   1.000  H
  H284     1.0000 0.16267  0.55073  0.83173  Biso   1.000  H
  H285     1.0000 0.44927  0.61193  0.83173  Biso   1.000  H
  H286     1.0000 0.05473  0.17067  0.16507  Biso   1.000  H
  H287     1.0000 0.82933  0.88407  0.16507  Biso   1.000  H
  H288     1.0000 0.11593  0.94527  0.16507  Biso   1.000  H
  H289     1.0000 0.24060  0.51330  0.51600  Biso   1.000  H
  H290     1.0000 0.48670  0.72730  0.51600  Biso   1.000  H
  H291     1.0000 0.27270  0.75940  0.51600  Biso   1.000  H
  H292     1.0000 0.90727  0.84663  0.84933  Biso   1.000  H
  H293     1.0000 0.15337  0.06063  0.84933  Biso   1.000  H
  H294     1.0000 0.93937  0.09273  0.84933  Biso   1.000  H
  H295     1.0000 0.57393  0.17997  0.18267  Biso   1.000  H
  H296     1.0000 0.82003  0.39397  0.18267  Biso   1.000  H
  H297     1.0000 0.60603  0.42607  0.18267  Biso   1.000  H
  H298     1.0000 0.75940  0.48670  0.48400  Biso   1.000  H
  H299     1.0000 0.51330  0.27270  0.48400  Biso   1.000  H
  H300     1.0000 0.72730  0.24060  0.48400  Biso   1.000  H
  H301     1.0000 0.42607  0.82003  0.81733  Biso   1.000  H
  H302     1.0000 0.17997  0.60603  0.81733  Biso   1.000  H
  H303     1.0000 0.39397  0.57393  0.81733  Biso   1.000  H
  H304     1.0000 0.09273  0.15337  0.15067  Biso   1.000  H
  H305     1.0000 0.84663  0.93937  0.15067  Biso   1.000  H
  H306     1.0000 0.06063  0.90727  0.15067  Biso   1.000  H
  C253     1.0000 0.13210  0.34060  0.68730  Biso   1.000  C
  C254     1.0000 0.65940  0.79150  0.68730  Biso   1.000  C
  C255     1.0000 0.20850  0.86790  0.68730  Biso   1.000  C
  C256     1.0000 0.79877  0.67393  0.02063  Biso   1.000  C
  C257     1.0000 0.32607  0.12483  0.02063  Biso   1.000  C
  C258     1.0000 0.87517  0.20123  0.02063  Biso   1.000  C
  C259     1.0000 0.46543  0.00727  0.35397  Biso   1.000  C
  C260     1.0000 0.99273  0.45817  0.35397  Biso   1.000  C
  C261     1.0000 0.54183  0.53457  0.35397  Biso   1.000  C
  C262     1.0000 0.86790  0.65940  0.31270  Biso   1.000  C
  C263     1.0000 0.34060  0.20850  0.31270  Biso   1.000  C
  C264     1.0000 0.79150  0.13210  0.31270  Biso   1.000  C
  C265     1.0000 0.53457  0.99273  0.64603  Biso   1.000  C
  C266     1.0000 0.00727  0.54183  0.64603  Biso   1.000  C
  C267     1.0000 0.45817  0.46543  0.64603  Biso   1.000  C
  C268     1.0000 0.20123  0.32607  0.97937  Biso   1.000  C
  C269     1.0000 0.67393  0.87517  0.97937  Biso   1.000  C
  C270     1.0000 0.12483  0.79877  0.97937  Biso   1.000  C
  Ag1      1.0000 0.16670  0.33330  0.83330  Biso   1.000  Ag
  Ag2      1.0000 0.66670  0.83340  0.83330  Biso   1.000  Ag
  Ag3      1.0000 0.16660  0.83330  0.83330  Biso   1.000  Ag
  Ag4      1.0000 0.83337  0.66663  0.16663  Biso   1.000  Ag
  Ag5      1.0000 0.33337  0.16673  0.16663  Biso   1.000  Ag
  Ag6      1.0000 0.83327  0.16663  0.16663  Biso   1.000  Ag
  Ag7      1.0000 0.50003  0.99997  0.49997  Biso   1.000  Ag
  Ag8      1.0000 0.00003  0.50007  0.49997  Biso   1.000  Ag
  Ag9      1.0000 0.49993  0.49997  0.49997  Biso   1.000  Ag
  Cu1      1.0000 0.10678  0.35799  0.41286  Biso   1.000  Cu
  Cu2      1.0000 0.64201  0.74879  0.41286  Biso   1.000  Cu
  Cu3      1.0000 0.25121  0.89322  0.41286  Biso   1.000  Cu
  Cu4      1.0000 0.77345  0.69132  0.74619  Biso   1.000  Cu
  Cu5      1.0000 0.30868  0.08212  0.74619  Biso   1.000  Cu
  Cu6      1.0000 0.91788  0.22655  0.74619  Biso   1.000  Cu
  Cu7      1.0000 0.44011  0.02466  0.07953  Biso   1.000  Cu
  Cu8      1.0000 0.97534  0.41546  0.07953  Biso   1.000  Cu
  Cu9      1.0000 0.58454  0.55989  0.07953  Biso   1.000  Cu
  Cu10     1.0000 0.89322  0.64201  0.58714  Biso   1.000  Cu
  Cu11     1.0000 0.35799  0.25121  0.58714  Biso   1.000  Cu
  Cu12     1.0000 0.74879  0.10678  0.58714  Biso   1.000  Cu
  Cu13     1.0000 0.55989  0.97534  0.92047  Biso   1.000  Cu
  Cu14     1.0000 0.02466  0.58454  0.92047  Biso   1.000  Cu
  Cu15     1.0000 0.41546  0.44011  0.92047  Biso   1.000  Cu
  Cu16     1.0000 0.22655  0.30868  0.25381  Biso   1.000  Cu
  Cu17     1.0000 0.69132  0.91788  0.25381  Biso   1.000  Cu
  Cu18     1.0000 0.08212  0.77345  0.25381  Biso   1.000  Cu
  N1       1.0000 0.16198  0.43210  0.42240  Biso   1.000  N
  N2       1.0000 0.56790  0.72988  0.42240  Biso   1.000  N
  N3       1.0000 0.27012  0.83802  0.42240  Biso   1.000  N
  N4       1.0000 0.82865  0.76543  0.75573  Biso   1.000  N
  N5       1.0000 0.23457  0.06321  0.75573  Biso   1.000  N
  N6       1.0000 0.93679  0.17135  0.75573  Biso   1.000  N
  N7       1.0000 0.49531  0.09877  0.08907  Biso   1.000  N
  N8       1.0000 0.90123  0.39655  0.08907  Biso   1.000  N
  N9       1.0000 0.60345  0.50469  0.08907  Biso   1.000  N
  N10      1.0000 0.83802  0.56790  0.57760  Biso   1.000  N
  N11      1.0000 0.43210  0.27012  0.57760  Biso   1.000  N
  N12      1.0000 0.72988  0.16198  0.57760  Biso   1.000  N
  N13      1.0000 0.50469  0.90123  0.91093  Biso   1.000  N
  N14      1.0000 0.09877  0.60345  0.91093  Biso   1.000  N
  N15      1.0000 0.39655  0.49531  0.91093  Biso   1.000  N
  N16      1.0000 0.17135  0.23457  0.24427  Biso   1.000  N
  N17      1.0000 0.76543  0.93679  0.24427  Biso   1.000  N
  N18      1.0000 0.06321  0.82865  0.24427  Biso   1.000  N
  N19      1.0000 0.25560  0.50790  0.33540  Biso   1.000  N
  N20      1.0000 0.49210  0.74770  0.33540  Biso   1.000  N
  N21      1.0000 0.25230  0.74440  0.33540  Biso   1.000  N
  N22      1.0000 0.92227  0.84123  0.66873  Biso   1.000  N
  N23      1.0000 0.15877  0.08103  0.66873  Biso   1.000  N
  N24      1.0000 0.91897  0.07773  0.66873  Biso   1.000  N
  N25      1.0000 0.58893  0.17457  0.00207  Biso   1.000  N
  N26      1.0000 0.82543  0.41437  0.00207  Biso   1.000  N
  N27      1.0000 0.58563  0.41107  0.00207  Biso   1.000  N
  N28      1.0000 0.74440  0.49210  0.66460  Biso   1.000  N
  N29      1.0000 0.50790  0.25230  0.66460  Biso   1.000  N
  N30      1.0000 0.74770  0.25560  0.66460  Biso   1.000  N
  N31      1.0000 0.41107  0.82543  0.99793  Biso   1.000  N
  N32      1.0000 0.17457  0.58563  0.99793  Biso   1.000  N
  N33      1.0000 0.41437  0.58893  0.99793  Biso   1.000  N
  N34      1.0000 0.07773  0.15877  0.33127  Biso   1.000  N
  N35      1.0000 0.84123  0.91897  0.33127  Biso   1.000  N
  N36      1.0000 0.08103  0.92227  0.33127  Biso   1.000  N
  N37      1.0000 0.06435  0.38500  0.43510  Biso   1.000  N
  N38      1.0000 0.61500  0.67935  0.43510  Biso   1.000  N
  N39      1.0000 0.32065  0.93565  0.43510  Biso   1.000  N
  N40      1.0000 0.73102  0.71833  0.76843  Biso   1.000  N
  N41      1.0000 0.28167  0.01268  0.76843  Biso   1.000  N
  N42      1.0000 0.98732  0.26898  0.76843  Biso   1.000  N
  N43      1.0000 0.39768  0.05167  0.10177  Biso   1.000  N
  N44      1.0000 0.94833  0.34602  0.10177  Biso   1.000  N
  N45      1.0000 0.65398  0.60232  0.10177  Biso   1.000  N
  N46      1.0000 0.93565  0.61500  0.56490  Biso   1.000  N
  N47      1.0000 0.38500  0.32065  0.56490  Biso   1.000  N
  N48      1.0000 0.67935  0.06435  0.56490  Biso   1.000  N
  N49      1.0000 0.60232  0.94833  0.89823  Biso   1.000  N
  N50      1.0000 0.05167  0.65398  0.89823  Biso   1.000  N
  N51      1.0000 0.34602  0.39768  0.89823  Biso   1.000  N
  N52      1.0000 0.26898  0.28167  0.23157  Biso   1.000  N
  N53      1.0000 0.71833  0.98732  0.23157  Biso   1.000  N
  N54      1.0000 0.01268  0.73102  0.23157  Biso   1.000  N
  N55      1.0000 0.11560  0.34590  0.60360  Biso   1.000  N
  N56      1.0000 0.65410  0.76970  0.60360  Biso   1.000  N
  N57      1.0000 0.23030  0.88440  0.60360  Biso   1.000  N
  N58      1.0000 0.78227  0.67923  0.93693  Biso   1.000  N
  N59      1.0000 0.32077  0.10303  0.93693  Biso   1.000  N
  N60      1.0000 0.89697  0.21773  0.93693  Biso   1.000  N
  N61      1.0000 0.44893  0.01257  0.27027  Biso   1.000  N
  N62      1.0000 0.98743  0.43637  0.27027  Biso   1.000  N
  N63      1.0000 0.56363  0.55107  0.27027  Biso   1.000  N
  N64      1.0000 0.88440  0.65410  0.39640  Biso   1.000  N
  N65      1.0000 0.34590  0.23030  0.39640  Biso   1.000  N
  N66      1.0000 0.76970  0.11560  0.39640  Biso   1.000  N
  N67      1.0000 0.55107  0.98743  0.72973  Biso   1.000  N
  N68      1.0000 0.01257  0.56363  0.72973  Biso   1.000  N
  N69      1.0000 0.43637  0.44893  0.72973  Biso   1.000  N
  N70      1.0000 0.21773  0.32077  0.06307  Biso   1.000  N
  N71      1.0000 0.67923  0.89697  0.06307  Biso   1.000  N
  N72      1.0000 0.10303  0.78227  0.06307  Biso   1.000  N
  O1       1.0000 0.05313  0.29363  0.38250  Biso   1.000  O
  O2       1.0000 0.70637  0.75950  0.38250  Biso   1.000  O
  O3       1.0000 0.24050  0.94687  0.38250  Biso   1.000  O
  O4       1.0000 0.71980  0.62696  0.71583  Biso   1.000  O
  O5       1.0000 0.37304  0.09283  0.71583  Biso   1.000  O
  O6       1.0000 0.90717  0.28020  0.71583  Biso   1.000  O
  O7       1.0000 0.38646  0.96030  0.04917  Biso   1.000  O
  O8       1.0000 0.03970  0.42617  0.04917  Biso   1.000  O
  O9       1.0000 0.57383  0.61354  0.04917  Biso   1.000  O
  O10      1.0000 0.94687  0.70637  0.61750  Biso   1.000  O
  O11      1.0000 0.29363  0.24050  0.61750  Biso   1.000  O
  O12      1.0000 0.75950  0.05313  0.61750  Biso   1.000  O
  O13      1.0000 0.61354  0.03970  0.95083  Biso   1.000  O
  O14      1.0000 0.96030  0.57383  0.95083  Biso   1.000  O
  O15      1.0000 0.42617  0.38646  0.95083  Biso   1.000  O
  O16      1.0000 0.28020  0.37304  0.28417  Biso   1.000  O
  O17      1.0000 0.62696  0.90717  0.28417  Biso   1.000  O
  O18      1.0000 0.09283  0.71980  0.28417  Biso   1.000  O
  H307     1.0000 0.26200  0.48800  0.28900  Biso   1.000  H
  H308     1.0000 0.51200  0.77400  0.28900  Biso   1.000  H
  H309     1.0000 0.22600  0.73800  0.28900  Biso   1.000  H
  H310     1.0000 0.92867  0.82133  0.62233  Biso   1.000  H
  H311     1.0000 0.17867  0.10733  0.62233  Biso   1.000  H
  H312     1.0000 0.89267  0.07133  0.62233  Biso   1.000  H
  H313     1.0000 0.59533  0.15467  0.95567  Biso   1.000  H
  H314     1.0000 0.84533  0.44067  0.95567  Biso   1.000  H
  H315     1.0000 0.55933  0.40467  0.95567  Biso   1.000  H
  H316     1.0000 0.73800  0.51200  0.71100  Biso   1.000  H
  H317     1.0000 0.48800  0.22600  0.71100  Biso   1.000  H
  H318     1.0000 0.77400  0.26200  0.71100  Biso   1.000  H
  H319     1.0000 0.40467  0.84533  0.04433  Biso   1.000  H
  H320     1.0000 0.15467  0.55933  0.04433  Biso   1.000  H
  H321     1.0000 0.44067  0.59533  0.04433  Biso   1.000  H
  H322     1.0000 0.07133  0.17867  0.37767  Biso   1.000  H
  H323     1.0000 0.82133  0.89267  0.37767  Biso   1.000  H
  H324     1.0000 0.10733  0.92867  0.37767  Biso   1.000  H
  H325     1.0000 0.28350  0.53520  0.34500  Biso   1.000  H
  H326     1.0000 0.46480  0.74830  0.34500  Biso   1.000  H
  H327     1.0000 0.25170  0.71650  0.34500  Biso   1.000  H
  H328     1.0000 0.95017  0.86853  0.67833  Biso   1.000  H
  H329     1.0000 0.13147  0.08163  0.67833  Biso   1.000  H
  H330     1.0000 0.91837  0.04983  0.67833  Biso   1.000  H
  H331     1.0000 0.61683  0.20187  0.01167  Biso   1.000  H
  H332     1.0000 0.79813  0.41497  0.01167  Biso   1.000  H
  H333     1.0000 0.58503  0.38317  0.01167  Biso   1.000  H
  H334     1.0000 0.71650  0.46480  0.65500  Biso   1.000  H
  H335     1.0000 0.53520  0.25170  0.65500  Biso   1.000  H
  H336     1.0000 0.74830  0.28350  0.65500  Biso   1.000  H
  H337     1.0000 0.38317  0.79813  0.98833  Biso   1.000  H
  H338     1.0000 0.20187  0.58503  0.98833  Biso   1.000  H
  H339     1.0000 0.41497  0.61683  0.98833  Biso   1.000  H
  H340     1.0000 0.04983  0.13147  0.32167  Biso   1.000  H
  H341     1.0000 0.86853  0.91837  0.32167  Biso   1.000  H
  H342     1.0000 0.08163  0.95017  0.32167  Biso   1.000  H
  Cl1      1.0000 0.16741  0.07218  0.21200  Biso   1.000  Cl
  Cl2      1.0000 0.92782  0.09523  0.21200  Biso   1.000  Cl
  Cl3      1.0000 0.90477  0.83259  0.21200  Biso   1.000  Cl
  Cl4      1.0000 0.83408  0.40551  0.54533  Biso   1.000  Cl
  Cl5      1.0000 0.59449  0.42856  0.54533  Biso   1.000  Cl
  Cl6      1.0000 0.57144  0.16592  0.54533  Biso   1.000  Cl
  Cl7      1.0000 0.50074  0.73885  0.87867  Biso   1.000  Cl
  Cl8      1.0000 0.26115  0.76190  0.87867  Biso   1.000  Cl
  Cl9      1.0000 0.23810  0.49926  0.87867  Biso   1.000  Cl
  Cl10     1.0000 0.83259  0.92782  0.78800  Biso   1.000  Cl
  Cl11     1.0000 0.07218  0.90477  0.78800  Biso   1.000  Cl
  Cl12     1.0000 0.09523  0.16741  0.78800  Biso   1.000  Cl
  Cl13     1.0000 0.49926  0.26115  0.12133  Biso   1.000  Cl
  Cl14     1.0000 0.73885  0.23810  0.12133  Biso   1.000  Cl
  Cl15     1.0000 0.76190  0.50074  0.12133  Biso   1.000  Cl
  Cl16     1.0000 0.16592  0.59449  0.45467  Biso   1.000  Cl
  Cl17     1.0000 0.40551  0.57144  0.45467  Biso   1.000  Cl
  Cl18     1.0000 0.42856  0.83408  0.45467  Biso   1.000  Cl
  O19      1.0000 0.20260  0.10910  0.27480  Biso   1.000  O
  O20      1.0000 0.89090  0.09350  0.27480  Biso   1.000  O
  O21      1.0000 0.90650  0.79740  0.27480  Biso   1.000  O
  O22      1.0000 0.86927  0.44243  0.60813  Biso   1.000  O
  O23      1.0000 0.55757  0.42683  0.60813  Biso   1.000  O
  O24      1.0000 0.57317  0.13073  0.60813  Biso   1.000  O
  O25      1.0000 0.53593  0.77577  0.94147  Biso   1.000  O
  O26      1.0000 0.22423  0.76017  0.94147  Biso   1.000  O
  O27      1.0000 0.23983  0.46407  0.94147  Biso   1.000  O
  O28      1.0000 0.79740  0.89090  0.72520  Biso   1.000  O
  O29      1.0000 0.10910  0.90650  0.72520  Biso   1.000  O
  O30      1.0000 0.09350  0.20260  0.72520  Biso   1.000  O
  O31      1.0000 0.46407  0.22423  0.05853  Biso   1.000  O
  O32      1.0000 0.77577  0.23983  0.05853  Biso   1.000  O
  O33      1.0000 0.76017  0.53593  0.05853  Biso   1.000  O
  O34      1.0000 0.13073  0.55757  0.39187  Biso   1.000  O
  O35      1.0000 0.44243  0.57317  0.39187  Biso   1.000  O
  O36      1.0000 0.42683  0.86927  0.39187  Biso   1.000  O
  O37      1.0000 0.17610  0.04610  0.13600  Biso   1.000  O
  O38      1.0000 0.95390  0.13000  0.13600  Biso   1.000  O
  O39      1.0000 0.87000  0.82390  0.13600  Biso   1.000  O
  O40      1.0000 0.84277  0.37943  0.46933  Biso   1.000  O
  O41      1.0000 0.62057  0.46333  0.46933  Biso   1.000  O
  O42      1.0000 0.53667  0.15723  0.46933  Biso   1.000  O
  O43      1.0000 0.50943  0.71277  0.80267  Biso   1.000  O
  O44      1.0000 0.28723  0.79667  0.80267  Biso   1.000  O
  O45      1.0000 0.20333  0.49057  0.80267  Biso   1.000  O
  O46      1.0000 0.82390  0.95390  0.86400  Biso   1.000  O
  O47      1.0000 0.04610  0.87000  0.86400  Biso   1.000  O
  O48      1.0000 0.13000  0.17610  0.86400  Biso   1.000  O
  O49      1.0000 0.49057  0.28723  0.19733  Biso   1.000  O
  O50      1.0000 0.71277  0.20333  0.19733  Biso   1.000  O
  O51      1.0000 0.79667  0.50943  0.19733  Biso   1.000  O
  O52      1.0000 0.15723  0.62057  0.53067  Biso   1.000  O
  O53      1.0000 0.37943  0.53667  0.53067  Biso   1.000  O
  O54      1.0000 0.46333  0.84277  0.53067  Biso   1.000  O
  O55      1.0000 0.13230  0.08050  0.17490  Biso   1.000  O
  O56      1.0000 0.91950  0.05180  0.17490  Biso   1.000  O
  O57      1.0000 0.94820  0.86770  0.17490  Biso   1.000  O
  O58      1.0000 0.79897  0.41383  0.50823  Biso   1.000  O
  O59      1.0000 0.58617  0.38513  0.50823  Biso   1.000  O
  O60      1.0000 0.61487  0.20103  0.50823  Biso   1.000  O
  O61      1.0000 0.46563  0.74717  0.84157  Biso   1.000  O
  O62      1.0000 0.25283  0.71847  0.84157  Biso   1.000  O
  O63      1.0000 0.28153  0.53437  0.84157  Biso   1.000  O
  O64      1.0000 0.86770  0.91950  0.82510  Biso   1.000  O
  O65      1.0000 0.08050  0.94820  0.82510  Biso   1.000  O
  O66      1.0000 0.05180  0.13230  0.82510  Biso   1.000  O
  O67      1.0000 0.53437  0.25283  0.15843  Biso   1.000  O
  O68      1.0000 0.74717  0.28153  0.15843  Biso   1.000  O
  O69      1.0000 0.71847  0.46563  0.15843  Biso   1.000  O
  O70      1.0000 0.20103  0.58617  0.49177  Biso   1.000  O
  O71      1.0000 0.41383  0.61487  0.49177  Biso   1.000  O
  O72      1.0000 0.38513  0.79897  0.49177  Biso   1.000  O
  O73      1.0000 0.14880  0.03250  0.28800  Biso   1.000  O
  O74      1.0000 0.96750  0.11630  0.28800  Biso   1.000  O
  O75      1.0000 0.88370  0.85120  0.28800  Biso   1.000  O
  O76      1.0000 0.81547  0.36583  0.62133  Biso   1.000  O
  O77      1.0000 0.63417  0.44963  0.62133  Biso   1.000  O
  O78      1.0000 0.55037  0.18453  0.62133  Biso   1.000  O
  O79      1.0000 0.48213  0.69917  0.95467  Biso   1.000  O
  O80      1.0000 0.30083  0.78297  0.95467  Biso   1.000  O
  O81      1.0000 0.21703  0.51787  0.95467  Biso   1.000  O
  O82      1.0000 0.85120  0.96750  0.71200  Biso   1.000  O
  O83      1.0000 0.03250  0.88370  0.71200  Biso   1.000  O
  O84      1.0000 0.11630  0.14880  0.71200  Biso   1.000  O
  O85      1.0000 0.51787  0.30083  0.04533  Biso   1.000  O
  O86      1.0000 0.69917  0.21703  0.04533  Biso   1.000  O
  O87      1.0000 0.78297  0.48213  0.04533  Biso   1.000  O
  O88      1.0000 0.18453  0.63417  0.37867  Biso   1.000  O
  O89      1.0000 0.36583  0.55037  0.37867  Biso   1.000  O
  O90      1.0000 0.44963  0.81547  0.37867  Biso   1.000  O
  O91      1.0000 0.30400  0.60850  0.41800  Biso   1.000  O
  O92      1.0000 0.39150  0.69550  0.41800  Biso   1.000  O
  O93      1.0000 0.30450  0.69600  0.41800  Biso   1.000  O
  O94      1.0000 0.97067  0.94183  0.75133  Biso   1.000  O
  O95      1.0000 0.05817  0.02883  0.75133  Biso   1.000  O
  O96      1.0000 0.97117  0.02933  0.75133  Biso   1.000  O
  O97      1.0000 0.63733  0.27517  0.08467  Biso   1.000  O
  O98      1.0000 0.72483  0.36217  0.08467  Biso   1.000  O
  O99      1.0000 0.63783  0.36267  0.08467  Biso   1.000  O
  O100     1.0000 0.69600  0.39150  0.58200  Biso   1.000  O
  O101     1.0000 0.60850  0.30450  0.58200  Biso   1.000  O
  O102     1.0000 0.69550  0.30400  0.58200  Biso   1.000  O
  O103     1.0000 0.36267  0.72483  0.91533  Biso   1.000  O
  O104     1.0000 0.27517  0.63783  0.91533  Biso   1.000  O
  O105     1.0000 0.36217  0.63733  0.91533  Biso   1.000  O
  O106     1.0000 0.02933  0.05817  0.24867  Biso   1.000  O
  O107     1.0000 0.94183  0.97117  0.24867  Biso   1.000  O
  O108     1.0000 0.02883  0.97067  0.24867  Biso   1.000  O
  O109     1.0000 0.31730  0.60480  0.27500  Biso   1.000  O
  O110     1.0000 0.39520  0.71250  0.27500  Biso   1.000  O
  O111     1.0000 0.28750  0.68270  0.27500  Biso   1.000  O
  O112     1.0000 0.98397  0.93813  0.60833  Biso   1.000  O
  O113     1.0000 0.06187  0.04583  0.60833  Biso   1.000  O
  O114     1.0000 0.95417  0.01603  0.60833  Biso   1.000  O
  O115     1.0000 0.65063  0.27147  0.94167  Biso   1.000  O
  O116     1.0000 0.72853  0.37917  0.94167  Biso   1.000  O
  O117     1.0000 0.62083  0.34937  0.94167  Biso   1.000  O
  O118     1.0000 0.68270  0.39520  0.72500  Biso   1.000  O
  O119     1.0000 0.60480  0.28750  0.72500  Biso   1.000  O
  O120     1.0000 0.71250  0.31730  0.72500  Biso   1.000  O
  O121     1.0000 0.34937  0.72853  0.05833  Biso   1.000  O
  O122     1.0000 0.27147  0.62083  0.05833  Biso   1.000  O
  O123     1.0000 0.37917  0.65063  0.05833  Biso   1.000  O
  O124     1.0000 0.01603  0.06187  0.39167  Biso   1.000  O
  O125     1.0000 0.93813  0.95417  0.39167  Biso   1.000  O
  O126     1.0000 0.04583  0.98397  0.39167  Biso   1.000  O
  O127     1.0000 0.06340  0.22080  0.48020  Biso   1.000  O
  O128     1.0000 0.77920  0.84260  0.48020  Biso   1.000  O
  O129     1.0000 0.15740  0.93660  0.48020  Biso   1.000  O
  O130     1.0000 0.73007  0.55413  0.81353  Biso   1.000  O
  O131     1.0000 0.44587  0.17593  0.81353  Biso   1.000  O
  O132     1.0000 0.82407  0.26993  0.81353  Biso   1.000  O
  O133     1.0000 0.39673  0.88747  0.14687  Biso   1.000  O
  O134     1.0000 0.11253  0.50927  0.14687  Biso   1.000  O
  O135     1.0000 0.49073  0.60327  0.14687  Biso   1.000  O
  O136     1.0000 0.93660  0.77920  0.51980  Biso   1.000  O
  O137     1.0000 0.22080  0.15740  0.51980  Biso   1.000  O
  O138     1.0000 0.84260  0.06340  0.51980  Biso   1.000  O
  O139     1.0000 0.60327  0.11253  0.85313  Biso   1.000  O
  O140     1.0000 0.88747  0.49073  0.85313  Biso   1.000  O
  O141     1.0000 0.50927  0.39673  0.85313  Biso   1.000  O
  O142     1.0000 0.26993  0.44587  0.18647  Biso   1.000  O
  O143     1.0000 0.55413  0.82407  0.18647  Biso   1.000  O
  O144     1.0000 0.17593  0.73007  0.18647  Biso   1.000  O
  H343     1.0000 0.06800  0.24780  0.44600  Biso   1.000  H
  H344     1.0000 0.75220  0.82020  0.44600  Biso   1.000  H
  H345     1.0000 0.17980  0.93200  0.44600  Biso   1.000  H
  H346     1.0000 0.73467  0.58113  0.77933  Biso   1.000  H
  H347     1.0000 0.41887  0.15353  0.77933  Biso   1.000  H
  H348     1.0000 0.84647  0.26533  0.77933  Biso   1.000  H
  H349     1.0000 0.40133  0.91447  0.11267  Biso   1.000  H
  H350     1.0000 0.08553  0.48687  0.11267  Biso   1.000  H
  H351     1.0000 0.51313  0.59867  0.11267  Biso   1.000  H
  H352     1.0000 0.93200  0.75220  0.55400  Biso   1.000  H
  H353     1.0000 0.24780  0.17980  0.55400  Biso   1.000  H
  H354     1.0000 0.82020  0.06800  0.55400  Biso   1.000  H
  H355     1.0000 0.59867  0.08553  0.88733  Biso   1.000  H
  H356     1.0000 0.91447  0.51313  0.88733  Biso   1.000  H
  H357     1.0000 0.48687  0.40133  0.88733  Biso   1.000  H
  H358     1.0000 0.26533  0.41887  0.22067  Biso   1.000  H
  H359     1.0000 0.58113  0.84647  0.22067  Biso   1.000  H
  H360     1.0000 0.15353  0.73467  0.22067  Biso   1.000  H
  H361     1.0000 0.07400  0.22700  0.55500  Biso   1.000  H
  H362     1.0000 0.77300  0.84700  0.55500  Biso   1.000  H
  H363     1.0000 0.15300  0.92600  0.55500  Biso   1.000  H
  H364     1.0000 0.74067  0.56033  0.88833  Biso   1.000  H
  H365     1.0000 0.43967  0.18033  0.88833  Biso   1.000  H
  H366     1.0000 0.81967  0.25933  0.88833  Biso   1.000  H
  H367     1.0000 0.40733  0.89367  0.22167  Biso   1.000  H
  H368     1.0000 0.10633  0.51367  0.22167  Biso   1.000  H
  H369     1.0000 0.48633  0.59267  0.22167  Biso   1.000  H
  H370     1.0000 0.92600  0.77300  0.44500  Biso   1.000  H
  H371     1.0000 0.22700  0.15300  0.44500  Biso   1.000  H
  H372     1.0000 0.84700  0.07400  0.44500  Biso   1.000  H
  H373     1.0000 0.59267  0.10633  0.77833  Biso   1.000  H
  H374     1.0000 0.89367  0.48633  0.77833  Biso   1.000  H
  H375     1.0000 0.51367  0.40733  0.77833  Biso   1.000  H
  H376     1.0000 0.25933  0.43967  0.11167  Biso   1.000  H
  H377     1.0000 0.56033  0.81967  0.11167  Biso   1.000  H
  H378     1.0000 0.18033  0.74067  0.11167  Biso   1.000  H
