data_image0
_cell_length_a       24.4616
_cell_length_b       24.4616
_cell_length_c       71.8721
_cell_angle_alpha    90
_cell_angle_beta     90
_cell_angle_gamma    90

_symmetry_space_group_name_H-M    "P 1"
_symmetry_int_tables_number       1

loop_
  _symmetry_equiv_pos_as_xyz
  'x, y, z'

loop_
  _atom_site_label
  _atom_site_occupancy
  _atom_site_fract_x
  _atom_site_fract_y
  _atom_site_fract_z
  _atom_site_thermal_displace_type
  _atom_site_B_iso_or_equiv
  _atom_site_type_symbol
  Cu1      1.0000 0.96376  0.96022  0.86322  Biso   1.000  Cu
  Cu2      1.0000 0.53624  0.53978  0.36322  Biso   1.000  Cu
  Cu3      1.0000 0.03978  0.46376  0.11322  Biso   1.000  Cu
  Cu4      1.0000 0.46022  0.03624  0.61322  Biso   1.000  Cu
  Cu5      1.0000 0.53624  0.96022  0.88678  Biso   1.000  Cu
  Cu6      1.0000 0.96376  0.53978  0.38678  Biso   1.000  Cu
  Cu7      1.0000 0.46022  0.46376  0.63678  Biso   1.000  Cu
  Cu8      1.0000 0.03978  0.03624  0.13678  Biso   1.000  Cu
  Cu9      1.0000 0.46376  0.46022  0.36322  Biso   1.000  Cu
  Cu10     1.0000 0.03624  0.03978  0.86322  Biso   1.000  Cu
  Cu11     1.0000 0.53978  0.96376  0.61322  Biso   1.000  Cu
  Cu12     1.0000 0.96022  0.53624  0.11322  Biso   1.000  Cu
  Cu13     1.0000 0.03624  0.46022  0.38678  Biso   1.000  Cu
  Cu14     1.0000 0.46376  0.03978  0.88678  Biso   1.000  Cu
  Cu15     1.0000 0.96022  0.96376  0.13678  Biso   1.000  Cu
  Cu16     1.0000 0.53978  0.53624  0.63678  Biso   1.000  Cu
  O1       1.0000 0.99597  0.43088  0.09292  Biso   1.000  O
  O2       1.0000 0.50403  0.06912  0.59292  Biso   1.000  O
  O3       1.0000 0.56912  0.49597  0.34292  Biso   1.000  O
  O4       1.0000 0.93088  0.00403  0.84292  Biso   1.000  O
  O5       1.0000 0.50403  0.43088  0.65708  Biso   1.000  O
  O6       1.0000 0.99597  0.06912  0.15708  Biso   1.000  O
  O7       1.0000 0.93088  0.49597  0.40708  Biso   1.000  O
  O8       1.0000 0.56912  0.00403  0.90708  Biso   1.000  O
  O9       1.0000 0.49597  0.93088  0.59292  Biso   1.000  O
  O10      1.0000 0.00403  0.56912  0.09292  Biso   1.000  O
  O11      1.0000 0.06912  0.99597  0.84292  Biso   1.000  O
  O12      1.0000 0.43088  0.50403  0.34292  Biso   1.000  O
  O13      1.0000 0.00403  0.93088  0.15708  Biso   1.000  O
  O14      1.0000 0.49597  0.56912  0.65708  Biso   1.000  O
  O15      1.0000 0.43088  0.99597  0.90708  Biso   1.000  O
  O16      1.0000 0.06912  0.50403  0.40708  Biso   1.000  O
  O17      1.0000 0.92483  0.48867  0.09549  Biso   1.000  O
  O18      1.0000 0.57517  0.01133  0.59549  Biso   1.000  O
  O19      1.0000 0.51133  0.42483  0.34549  Biso   1.000  O
  O20      1.0000 0.98867  0.07517  0.84549  Biso   1.000  O
  O21      1.0000 0.57517  0.48867  0.65451  Biso   1.000  O
  O22      1.0000 0.92483  0.01133  0.15451  Biso   1.000  O
  O23      1.0000 0.98867  0.42483  0.40451  Biso   1.000  O
  O24      1.0000 0.51133  0.07517  0.90451  Biso   1.000  O
  O25      1.0000 0.42483  0.98867  0.59549  Biso   1.000  O
  O26      1.0000 0.07517  0.51133  0.09549  Biso   1.000  O
  O27      1.0000 0.01133  0.92483  0.84549  Biso   1.000  O
  O28      1.0000 0.48867  0.57517  0.34549  Biso   1.000  O
  O29      1.0000 0.07517  0.98867  0.15451  Biso   1.000  O
  O30      1.0000 0.42483  0.51133  0.65451  Biso   1.000  O
  O31      1.0000 0.48867  0.92483  0.90451  Biso   1.000  O
  O32      1.0000 0.01133  0.57517  0.40451  Biso   1.000  O
  O33      1.0000 0.99688  0.07441  0.11899  Biso   1.000  O
  O34      1.0000 0.50312  0.42559  0.61899  Biso   1.000  O
  O35      1.0000 0.92559  0.49688  0.36899  Biso   1.000  O
  O36      1.0000 0.57441  0.00312  0.86899  Biso   1.000  O
  O37      1.0000 0.50312  0.07441  0.63101  Biso   1.000  O
  O38      1.0000 0.99688  0.42559  0.13101  Biso   1.000  O
  O39      1.0000 0.57441  0.49688  0.38101  Biso   1.000  O
  O40      1.0000 0.92559  0.00312  0.88101  Biso   1.000  O
  O41      1.0000 0.49688  0.57441  0.61899  Biso   1.000  O
  O42      1.0000 0.00312  0.92559  0.11899  Biso   1.000  O
  O43      1.0000 0.42559  0.99688  0.86899  Biso   1.000  O
  O44      1.0000 0.07441  0.50312  0.36899  Biso   1.000  O
  O45      1.0000 0.00312  0.57441  0.13101  Biso   1.000  O
  O46      1.0000 0.49688  0.92559  0.63101  Biso   1.000  O
  O47      1.0000 0.07441  0.99688  0.88101  Biso   1.000  O
  O48      1.0000 0.42559  0.50312  0.38101  Biso   1.000  O
  O49      1.0000 0.93102  0.01047  0.11630  Biso   1.000  O
  O50      1.0000 0.56898  0.48953  0.61630  Biso   1.000  O
  O51      1.0000 0.98953  0.43102  0.36630  Biso   1.000  O
  O52      1.0000 0.51047  0.06898  0.86630  Biso   1.000  O
  O53      1.0000 0.56898  0.01047  0.63370  Biso   1.000  O
  O54      1.0000 0.93102  0.48953  0.13370  Biso   1.000  O
  O55      1.0000 0.51047  0.43102  0.38370  Biso   1.000  O
  O56      1.0000 0.98953  0.06898  0.88370  Biso   1.000  O
  O57      1.0000 0.43102  0.51047  0.61630  Biso   1.000  O
  O58      1.0000 0.06898  0.98953  0.11630  Biso   1.000  O
  O59      1.0000 0.48953  0.93102  0.86630  Biso   1.000  O
  O60      1.0000 0.01047  0.56898  0.36630  Biso   1.000  O
  O61      1.0000 0.06898  0.51047  0.13370  Biso   1.000  O
  O62      1.0000 0.43102  0.98953  0.63370  Biso   1.000  O
  O63      1.0000 0.01047  0.93102  0.88370  Biso   1.000  O
  O64      1.0000 0.48953  0.56898  0.38370  Biso   1.000  O
  C1       1.0000 0.94772  0.44980  0.08938  Biso   1.000  C
  C2       1.0000 0.55228  0.05020  0.58938  Biso   1.000  C
  C3       1.0000 0.55020  0.44772  0.33938  Biso   1.000  C
  C4       1.0000 0.94980  0.05228  0.83938  Biso   1.000  C
  C5       1.0000 0.55228  0.44980  0.66062  Biso   1.000  C
  C6       1.0000 0.94772  0.05020  0.16062  Biso   1.000  C
  C7       1.0000 0.94980  0.44772  0.41062  Biso   1.000  C
  C8       1.0000 0.55020  0.05228  0.91062  Biso   1.000  C
  C9       1.0000 0.44772  0.94980  0.58938  Biso   1.000  C
  C10      1.0000 0.05228  0.55020  0.08938  Biso   1.000  C
  C11      1.0000 0.05020  0.94772  0.83938  Biso   1.000  C
  C12      1.0000 0.44980  0.55228  0.33938  Biso   1.000  C
  C13      1.0000 0.05228  0.94980  0.16062  Biso   1.000  C
  C14      1.0000 0.44772  0.55020  0.66062  Biso   1.000  C
  C15      1.0000 0.44980  0.94772  0.91062  Biso   1.000  C
  C16      1.0000 0.05020  0.55228  0.41062  Biso   1.000  C
  C17      1.0000 0.91640  0.41430  0.07493  Biso   1.000  C
  C18      1.0000 0.58360  0.08570  0.57493  Biso   1.000  C
  C19      1.0000 0.58570  0.41640  0.32493  Biso   1.000  C
  C20      1.0000 0.91430  0.08360  0.82493  Biso   1.000  C
  C21      1.0000 0.58360  0.41430  0.67507  Biso   1.000  C
  C22      1.0000 0.91640  0.08570  0.17507  Biso   1.000  C
  C23      1.0000 0.91430  0.41640  0.42507  Biso   1.000  C
  C24      1.0000 0.58570  0.08360  0.92507  Biso   1.000  C
  C25      1.0000 0.41640  0.91430  0.57493  Biso   1.000  C
  C26      1.0000 0.08360  0.58570  0.07493  Biso   1.000  C
  C27      1.0000 0.08570  0.91640  0.82493  Biso   1.000  C
  C28      1.0000 0.41430  0.58360  0.32493  Biso   1.000  C
  C29      1.0000 0.08360  0.91430  0.17507  Biso   1.000  C
  C30      1.0000 0.41640  0.58570  0.67507  Biso   1.000  C
  C31      1.0000 0.41430  0.91640  0.92507  Biso   1.000  C
  C32      1.0000 0.08570  0.58360  0.42507  Biso   1.000  C
  C33      1.0000 0.94346  0.37160  0.06594  Biso   1.000  C
  C34      1.0000 0.55654  0.12840  0.56594  Biso   1.000  C
  C35      1.0000 0.62840  0.44346  0.31594  Biso   1.000  C
  C36      1.0000 0.87160  0.05654  0.81594  Biso   1.000  C
  C37      1.0000 0.55654  0.37160  0.68406  Biso   1.000  C
  C38      1.0000 0.94346  0.12840  0.18406  Biso   1.000  C
  C39      1.0000 0.87160  0.44346  0.43406  Biso   1.000  C
  C40      1.0000 0.62840  0.05654  0.93406  Biso   1.000  C
  C41      1.0000 0.44346  0.87160  0.56594  Biso   1.000  C
  C42      1.0000 0.05654  0.62840  0.06594  Biso   1.000  C
  C43      1.0000 0.12840  0.94346  0.81594  Biso   1.000  C
  C44      1.0000 0.37160  0.55654  0.31594  Biso   1.000  C
  C45      1.0000 0.05654  0.87160  0.18406  Biso   1.000  C
  C46      1.0000 0.44346  0.62840  0.68406  Biso   1.000  C
  C47      1.0000 0.37160  0.94346  0.93406  Biso   1.000  C
  C48      1.0000 0.12840  0.55654  0.43406  Biso   1.000  C
  H1       1.0000 0.97970  0.36340  0.06860  Biso   1.000  H
  H2       1.0000 0.52030  0.13660  0.56860  Biso   1.000  H
  H3       1.0000 0.63660  0.47970  0.31860  Biso   1.000  H
  H4       1.0000 0.86340  0.02030  0.81860  Biso   1.000  H
  H5       1.0000 0.52030  0.36340  0.68140  Biso   1.000  H
  H6       1.0000 0.97970  0.13660  0.18140  Biso   1.000  H
  H7       1.0000 0.86340  0.47970  0.43140  Biso   1.000  H
  H8       1.0000 0.63660  0.02030  0.93140  Biso   1.000  H
  H9       1.0000 0.47970  0.86340  0.56860  Biso   1.000  H
  H10      1.0000 0.02030  0.63660  0.06860  Biso   1.000  H
  H11      1.0000 0.13660  0.97970  0.81860  Biso   1.000  H
  H12      1.0000 0.36340  0.52030  0.31860  Biso   1.000  H
  H13      1.0000 0.02030  0.86340  0.18140  Biso   1.000  H
  H14      1.0000 0.47970  0.63660  0.68140  Biso   1.000  H
  H15      1.0000 0.36340  0.97970  0.93140  Biso   1.000  H
  H16      1.0000 0.13660  0.52030  0.43140  Biso   1.000  H
  C49      1.0000 0.83288  0.39400  0.05942  Biso   1.000  C
  C50      1.0000 0.66712  0.10600  0.55942  Biso   1.000  C
  C51      1.0000 0.60600  0.33288  0.30942  Biso   1.000  C
  C52      1.0000 0.89400  0.16712  0.80942  Biso   1.000  C
  C53      1.0000 0.66712  0.39400  0.69058  Biso   1.000  C
  C54      1.0000 0.83288  0.10600  0.19058  Biso   1.000  C
  C55      1.0000 0.89400  0.33288  0.44058  Biso   1.000  C
  C56      1.0000 0.60600  0.16712  0.94058  Biso   1.000  C
  C57      1.0000 0.33288  0.89400  0.55942  Biso   1.000  C
  C58      1.0000 0.16712  0.60600  0.05942  Biso   1.000  C
  C59      1.0000 0.10600  0.83288  0.80942  Biso   1.000  C
  C60      1.0000 0.39400  0.66712  0.30942  Biso   1.000  C
  C61      1.0000 0.16712  0.89400  0.19058  Biso   1.000  C
  C62      1.0000 0.33288  0.60600  0.69058  Biso   1.000  C
  C63      1.0000 0.39400  0.83288  0.94058  Biso   1.000  C
  C64      1.0000 0.10600  0.66712  0.44058  Biso   1.000  C
  H17      1.0000 0.79600  0.40090  0.05740  Biso   1.000  H
  H18      1.0000 0.70400  0.09910  0.55740  Biso   1.000  H
  H19      1.0000 0.59910  0.29600  0.30740  Biso   1.000  H
  H20      1.0000 0.90090  0.20400  0.80740  Biso   1.000  H
  H21      1.0000 0.70400  0.40090  0.69260  Biso   1.000  H
  H22      1.0000 0.79600  0.09910  0.19260  Biso   1.000  H
  H23      1.0000 0.90090  0.29600  0.44260  Biso   1.000  H
  H24      1.0000 0.59910  0.20400  0.94260  Biso   1.000  H
  H25      1.0000 0.29600  0.90090  0.55740  Biso   1.000  H
  H26      1.0000 0.20400  0.59910  0.05740  Biso   1.000  H
  H27      1.0000 0.09910  0.79600  0.80740  Biso   1.000  H
  H28      1.0000 0.40090  0.70400  0.30740  Biso   1.000  H
  H29      1.0000 0.20400  0.90090  0.19260  Biso   1.000  H
  H30      1.0000 0.29600  0.59910  0.69260  Biso   1.000  H
  H31      1.0000 0.40090  0.79600  0.94260  Biso   1.000  H
  H32      1.0000 0.09910  0.70400  0.44260  Biso   1.000  H
  C65      1.0000 0.77040  0.25710  0.00846  Biso   1.000  C
  C66      1.0000 0.72960  0.24290  0.50846  Biso   1.000  C
  C67      1.0000 0.74290  0.27040  0.25846  Biso   1.000  C
  C68      1.0000 0.75710  0.22960  0.75846  Biso   1.000  C
  C69      1.0000 0.72960  0.25710  0.74154  Biso   1.000  C
  C70      1.0000 0.77040  0.24290  0.24154  Biso   1.000  C
  C71      1.0000 0.75710  0.27040  0.49154  Biso   1.000  C
  C72      1.0000 0.74290  0.22960  0.99154  Biso   1.000  C
  C73      1.0000 0.27040  0.75710  0.50846  Biso   1.000  C
  C74      1.0000 0.22960  0.74290  0.00846  Biso   1.000  C
  C75      1.0000 0.24290  0.77040  0.75846  Biso   1.000  C
  C76      1.0000 0.25710  0.72960  0.25846  Biso   1.000  C
  C77      1.0000 0.22960  0.75710  0.24154  Biso   1.000  C
  C78      1.0000 0.27040  0.74290  0.74154  Biso   1.000  C
  C79      1.0000 0.25710  0.77040  0.99154  Biso   1.000  C
  C80      1.0000 0.24290  0.72960  0.49154  Biso   1.000  C
  C81      1.0000 0.86170  0.34990  0.05018  Biso   1.000  C
  C82      1.0000 0.63830  0.15010  0.55018  Biso   1.000  C
  C83      1.0000 0.65010  0.36170  0.30018  Biso   1.000  C
  C84      1.0000 0.84990  0.13830  0.80018  Biso   1.000  C
  C85      1.0000 0.63830  0.34990  0.69982  Biso   1.000  C
  C86      1.0000 0.86170  0.15010  0.19982  Biso   1.000  C
  C87      1.0000 0.84990  0.36170  0.44982  Biso   1.000  C
  C88      1.0000 0.65010  0.13830  0.94982  Biso   1.000  C
  C89      1.0000 0.36170  0.84990  0.55018  Biso   1.000  C
  C90      1.0000 0.13830  0.65010  0.05018  Biso   1.000  C
  C91      1.0000 0.15010  0.86170  0.80018  Biso   1.000  C
  C92      1.0000 0.34990  0.63830  0.30018  Biso   1.000  C
  C93      1.0000 0.13830  0.84990  0.19982  Biso   1.000  C
  C94      1.0000 0.36170  0.65010  0.69982  Biso   1.000  C
  C95      1.0000 0.34990  0.86170  0.94982  Biso   1.000  C
  C96      1.0000 0.15010  0.63830  0.44982  Biso   1.000  C
  C97      1.0000 0.87930  0.06443  0.08776  Biso   1.000  C
  C98      1.0000 0.62070  0.43557  0.58776  Biso   1.000  C
  C99      1.0000 0.93557  0.37930  0.33776  Biso   1.000  C
  C100     1.0000 0.56443  0.12070  0.83776  Biso   1.000  C
  C101     1.0000 0.62070  0.06443  0.66224  Biso   1.000  C
  C102     1.0000 0.87930  0.43557  0.16224  Biso   1.000  C
  C103     1.0000 0.56443  0.37930  0.41224  Biso   1.000  C
  C104     1.0000 0.93557  0.12070  0.91224  Biso   1.000  C
  C105     1.0000 0.37930  0.56443  0.58776  Biso   1.000  C
  C106     1.0000 0.12070  0.93557  0.08776  Biso   1.000  C
  C107     1.0000 0.43557  0.87930  0.83776  Biso   1.000  C
  C108     1.0000 0.06443  0.62070  0.33776  Biso   1.000  C
  C109     1.0000 0.12070  0.56443  0.16224  Biso   1.000  C
  C110     1.0000 0.37930  0.93557  0.66224  Biso   1.000  C
  C111     1.0000 0.06443  0.87930  0.91224  Biso   1.000  C
  C112     1.0000 0.43557  0.62070  0.41224  Biso   1.000  C
  H33      1.0000 0.86390  0.03210  0.09210  Biso   1.000  H
  H34      1.0000 0.63610  0.46790  0.59210  Biso   1.000  H
  H35      1.0000 0.96790  0.36390  0.34210  Biso   1.000  H
  H36      1.0000 0.53210  0.13610  0.84210  Biso   1.000  H
  H37      1.0000 0.63610  0.03210  0.65790  Biso   1.000  H
  H38      1.0000 0.86390  0.46790  0.15790  Biso   1.000  H
  H39      1.0000 0.53210  0.36390  0.40790  Biso   1.000  H
  H40      1.0000 0.96790  0.13610  0.90790  Biso   1.000  H
  H41      1.0000 0.36390  0.53210  0.59210  Biso   1.000  H
  H42      1.0000 0.13610  0.96790  0.09210  Biso   1.000  H
  H43      1.0000 0.46790  0.86390  0.84210  Biso   1.000  H
  H44      1.0000 0.03210  0.63610  0.34210  Biso   1.000  H
  H45      1.0000 0.13610  0.53210  0.15790  Biso   1.000  H
  H46      1.0000 0.36390  0.96790  0.65790  Biso   1.000  H
  H47      1.0000 0.03210  0.86390  0.90790  Biso   1.000  H
  H48      1.0000 0.46790  0.63610  0.40790  Biso   1.000  H
  C113     1.0000 0.92550  0.16108  0.07515  Biso   1.000  C
  C114     1.0000 0.57450  0.33892  0.57515  Biso   1.000  C
  C115     1.0000 0.83892  0.42550  0.32515  Biso   1.000  C
  C116     1.0000 0.66108  0.07450  0.82515  Biso   1.000  C
  C117     1.0000 0.57450  0.16108  0.67485  Biso   1.000  C
  C118     1.0000 0.92550  0.33892  0.17485  Biso   1.000  C
  C119     1.0000 0.66108  0.42550  0.42485  Biso   1.000  C
  C120     1.0000 0.83892  0.07450  0.92485  Biso   1.000  C
  C121     1.0000 0.42550  0.66108  0.57515  Biso   1.000  C
  C122     1.0000 0.07450  0.83892  0.07515  Biso   1.000  C
  C123     1.0000 0.33892  0.92550  0.82515  Biso   1.000  C
  C124     1.0000 0.16108  0.57450  0.32515  Biso   1.000  C
  C125     1.0000 0.07450  0.66108  0.17485  Biso   1.000  C
  C126     1.0000 0.42550  0.83892  0.67485  Biso   1.000  C
  C127     1.0000 0.16108  0.92550  0.92485  Biso   1.000  C
  C128     1.0000 0.33892  0.57450  0.42485  Biso   1.000  C
  H49      1.0000 0.94140  0.19320  0.07080  Biso   1.000  H
  H50      1.0000 0.55860  0.30680  0.57080  Biso   1.000  H
  H51      1.0000 0.80680  0.44140  0.32080  Biso   1.000  H
  H52      1.0000 0.69320  0.05860  0.82080  Biso   1.000  H
  H53      1.0000 0.55860  0.19320  0.67920  Biso   1.000  H
  H54      1.0000 0.94140  0.30680  0.17920  Biso   1.000  H
  H55      1.0000 0.69320  0.44140  0.42920  Biso   1.000  H
  H56      1.0000 0.80680  0.05860  0.92920  Biso   1.000  H
  H57      1.0000 0.44140  0.69320  0.57080  Biso   1.000  H
  H58      1.0000 0.05860  0.80680  0.07080  Biso   1.000  H
  H59      1.0000 0.30680  0.94140  0.82080  Biso   1.000  H
  H60      1.0000 0.19320  0.55860  0.32080  Biso   1.000  H
  H61      1.0000 0.05860  0.69320  0.17920  Biso   1.000  H
  H62      1.0000 0.44140  0.80680  0.67920  Biso   1.000  H
  H63      1.0000 0.19320  0.94140  0.92920  Biso   1.000  H
  H64      1.0000 0.30680  0.55860  0.42920  Biso   1.000  H
  C129     1.0000 0.95466  0.05524  0.11235  Biso   1.000  C
  C130     1.0000 0.54534  0.44476  0.61235  Biso   1.000  C
  C131     1.0000 0.94476  0.45466  0.36235  Biso   1.000  C
  C132     1.0000 0.55524  0.04534  0.86235  Biso   1.000  C
  C133     1.0000 0.54534  0.05524  0.63765  Biso   1.000  C
  C134     1.0000 0.95466  0.44476  0.13765  Biso   1.000  C
  C135     1.0000 0.55524  0.45466  0.38765  Biso   1.000  C
  C136     1.0000 0.94476  0.04534  0.88765  Biso   1.000  C
  C137     1.0000 0.45466  0.55524  0.61235  Biso   1.000  C
  C138     1.0000 0.04534  0.94476  0.11235  Biso   1.000  C
  C139     1.0000 0.44476  0.95466  0.86235  Biso   1.000  C
  C140     1.0000 0.05524  0.54534  0.36235  Biso   1.000  C
  C141     1.0000 0.04534  0.55524  0.13765  Biso   1.000  C
  C142     1.0000 0.45466  0.94476  0.63765  Biso   1.000  C
  C143     1.0000 0.05524  0.95466  0.88765  Biso   1.000  C
  C144     1.0000 0.44476  0.54534  0.38765  Biso   1.000  C
  C145     1.0000 0.92610  0.08450  0.09627  Biso   1.000  C
  C146     1.0000 0.57390  0.41550  0.59627  Biso   1.000  C
  C147     1.0000 0.91550  0.42610  0.34627  Biso   1.000  C
  C148     1.0000 0.58450  0.07390  0.84627  Biso   1.000  C
  C149     1.0000 0.57390  0.08450  0.65373  Biso   1.000  C
  C150     1.0000 0.92610  0.41550  0.15373  Biso   1.000  C
  C151     1.0000 0.58450  0.42610  0.40373  Biso   1.000  C
  C152     1.0000 0.91550  0.07390  0.90373  Biso   1.000  C
  C153     1.0000 0.42610  0.58450  0.59627  Biso   1.000  C
  C154     1.0000 0.07390  0.91550  0.09627  Biso   1.000  C
  C155     1.0000 0.41550  0.92610  0.84627  Biso   1.000  C
  C156     1.0000 0.08450  0.57390  0.34627  Biso   1.000  C
  C157     1.0000 0.07390  0.58450  0.15373  Biso   1.000  C
  C158     1.0000 0.42610  0.91550  0.65373  Biso   1.000  C
  C159     1.0000 0.08450  0.92610  0.90373  Biso   1.000  C
  C160     1.0000 0.41550  0.57390  0.40373  Biso   1.000  C
  C161     1.0000 0.86360  0.42461  0.07132  Biso   1.000  C
  C162     1.0000 0.63640  0.07539  0.57132  Biso   1.000  C
  C163     1.0000 0.57539  0.36360  0.32132  Biso   1.000  C
  C164     1.0000 0.92461  0.13640  0.82132  Biso   1.000  C
  C165     1.0000 0.63640  0.42461  0.67868  Biso   1.000  C
  C166     1.0000 0.86360  0.07539  0.17868  Biso   1.000  C
  C167     1.0000 0.92461  0.36360  0.42868  Biso   1.000  C
  C168     1.0000 0.57539  0.13640  0.92868  Biso   1.000  C
  C169     1.0000 0.36360  0.92461  0.57132  Biso   1.000  C
  C170     1.0000 0.13640  0.57539  0.07132  Biso   1.000  C
  C171     1.0000 0.07539  0.86360  0.82132  Biso   1.000  C
  C172     1.0000 0.42461  0.63640  0.32132  Biso   1.000  C
  C173     1.0000 0.13640  0.92461  0.17868  Biso   1.000  C
  C174     1.0000 0.36360  0.57539  0.67868  Biso   1.000  C
  C175     1.0000 0.42461  0.86360  0.92868  Biso   1.000  C
  C176     1.0000 0.07539  0.63640  0.42868  Biso   1.000  C
  H65      1.0000 0.84720  0.45410  0.07720  Biso   1.000  H
  H66      1.0000 0.65280  0.04590  0.57720  Biso   1.000  H
  H67      1.0000 0.54590  0.34720  0.32720  Biso   1.000  H
  H68      1.0000 0.95410  0.15280  0.82720  Biso   1.000  H
  H69      1.0000 0.65280  0.45410  0.67280  Biso   1.000  H
  H70      1.0000 0.84720  0.04590  0.17280  Biso   1.000  H
  H71      1.0000 0.95410  0.34720  0.42280  Biso   1.000  H
  H72      1.0000 0.54590  0.15280  0.92280  Biso   1.000  H
  H73      1.0000 0.34720  0.95410  0.57720  Biso   1.000  H
  H74      1.0000 0.15280  0.54590  0.07720  Biso   1.000  H
  H75      1.0000 0.04590  0.84720  0.82720  Biso   1.000  H
  H76      1.0000 0.45410  0.65280  0.32720  Biso   1.000  H
  H77      1.0000 0.15280  0.95410  0.17280  Biso   1.000  H
  H78      1.0000 0.34720  0.54590  0.67280  Biso   1.000  H
  H79      1.0000 0.45410  0.84720  0.92280  Biso   1.000  H
  H80      1.0000 0.04590  0.65280  0.42280  Biso   1.000  H
  C177     1.0000 0.85304  0.09290  0.07198  Biso   1.000  C
  C178     1.0000 0.64696  0.40710  0.57198  Biso   1.000  C
  C179     1.0000 0.90710  0.35304  0.32198  Biso   1.000  C
  C180     1.0000 0.59290  0.14696  0.82198  Biso   1.000  C
  C181     1.0000 0.64696  0.09290  0.67802  Biso   1.000  C
  C182     1.0000 0.85304  0.40710  0.17802  Biso   1.000  C
  C183     1.0000 0.59290  0.35304  0.42802  Biso   1.000  C
  C184     1.0000 0.90710  0.14696  0.92802  Biso   1.000  C
  C185     1.0000 0.35304  0.59290  0.57198  Biso   1.000  C
  C186     1.0000 0.14696  0.90710  0.07198  Biso   1.000  C
  C187     1.0000 0.40710  0.85304  0.82198  Biso   1.000  C
  C188     1.0000 0.09290  0.64696  0.32198  Biso   1.000  C
  C189     1.0000 0.14696  0.59290  0.17802  Biso   1.000  C
  C190     1.0000 0.35304  0.90710  0.67802  Biso   1.000  C
  C191     1.0000 0.09290  0.85304  0.92802  Biso   1.000  C
  C192     1.0000 0.40710  0.64696  0.42802  Biso   1.000  C
  H81      1.0000 0.82210  0.07960  0.06600  Biso   1.000  H
  H82      1.0000 0.67790  0.42040  0.56600  Biso   1.000  H
  H83      1.0000 0.92040  0.32210  0.31600  Biso   1.000  H
  H84      1.0000 0.57960  0.17790  0.81600  Biso   1.000  H
  H85      1.0000 0.67790  0.07960  0.68400  Biso   1.000  H
  H86      1.0000 0.82210  0.42040  0.18400  Biso   1.000  H
  H87      1.0000 0.57960  0.32210  0.43400  Biso   1.000  H
  H88      1.0000 0.92040  0.17790  0.93400  Biso   1.000  H
  H89      1.0000 0.32210  0.57960  0.56600  Biso   1.000  H
  H90      1.0000 0.17790  0.92040  0.06600  Biso   1.000  H
  H91      1.0000 0.42040  0.82210  0.81600  Biso   1.000  H
  H92      1.0000 0.07960  0.67790  0.31600  Biso   1.000  H
  H93      1.0000 0.17790  0.57960  0.18400  Biso   1.000  H
  H94      1.0000 0.32210  0.92040  0.68400  Biso   1.000  H
  H95      1.0000 0.07960  0.82210  0.93400  Biso   1.000  H
  H96      1.0000 0.42040  0.67790  0.43400  Biso   1.000  H
  C193     1.0000 0.82649  0.25910  0.03578  Biso   1.000  C
  C194     1.0000 0.67351  0.24090  0.53578  Biso   1.000  C
  C195     1.0000 0.74090  0.32649  0.28578  Biso   1.000  C
  C196     1.0000 0.75910  0.17351  0.78578  Biso   1.000  C
  C197     1.0000 0.67351  0.25910  0.71422  Biso   1.000  C
  C198     1.0000 0.82649  0.24090  0.21422  Biso   1.000  C
  C199     1.0000 0.75910  0.32649  0.46422  Biso   1.000  C
  C200     1.0000 0.74090  0.17351  0.96422  Biso   1.000  C
  C201     1.0000 0.32649  0.75910  0.53578  Biso   1.000  C
  C202     1.0000 0.17351  0.74090  0.03578  Biso   1.000  C
  C203     1.0000 0.24090  0.82649  0.78578  Biso   1.000  C
  C204     1.0000 0.25910  0.67351  0.28578  Biso   1.000  C
  C205     1.0000 0.17351  0.75910  0.21422  Biso   1.000  C
  C206     1.0000 0.32649  0.74090  0.71422  Biso   1.000  C
  C207     1.0000 0.25910  0.82649  0.96422  Biso   1.000  C
  C208     1.0000 0.24090  0.67351  0.46422  Biso   1.000  C
  C209     1.0000 0.91380  0.34123  0.05262  Biso   1.000  C
  C210     1.0000 0.58620  0.15877  0.55262  Biso   1.000  C
  C211     1.0000 0.65877  0.41380  0.30262  Biso   1.000  C
  C212     1.0000 0.84123  0.08620  0.80262  Biso   1.000  C
  C213     1.0000 0.58620  0.34123  0.69738  Biso   1.000  C
  C214     1.0000 0.91380  0.15877  0.19738  Biso   1.000  C
  C215     1.0000 0.84123  0.41380  0.44738  Biso   1.000  C
  C216     1.0000 0.65877  0.08620  0.94738  Biso   1.000  C
  C217     1.0000 0.41380  0.84123  0.55262  Biso   1.000  C
  C218     1.0000 0.08620  0.65877  0.05262  Biso   1.000  C
  C219     1.0000 0.15877  0.91380  0.80262  Biso   1.000  C
  C220     1.0000 0.34123  0.58620  0.30262  Biso   1.000  C
  C221     1.0000 0.08620  0.84123  0.19738  Biso   1.000  C
  C222     1.0000 0.41380  0.65877  0.69738  Biso   1.000  C
  C223     1.0000 0.34123  0.91380  0.94738  Biso   1.000  C
  C224     1.0000 0.15877  0.58620  0.44738  Biso   1.000  C
  H97      1.0000 0.93160  0.31490  0.04550  Biso   1.000  H
  H98      1.0000 0.56840  0.18510  0.54550  Biso   1.000  H
  H99      1.0000 0.68510  0.43160  0.29550  Biso   1.000  H
  H100     1.0000 0.81490  0.06840  0.79550  Biso   1.000  H
  H101     1.0000 0.56840  0.31490  0.70450  Biso   1.000  H
  H102     1.0000 0.93160  0.18510  0.20450  Biso   1.000  H
  H103     1.0000 0.81490  0.43160  0.45450  Biso   1.000  H
  H104     1.0000 0.68510  0.06840  0.95450  Biso   1.000  H
  H105     1.0000 0.43160  0.81490  0.54550  Biso   1.000  H
  H106     1.0000 0.06840  0.68510  0.04550  Biso   1.000  H
  H107     1.0000 0.18510  0.93160  0.79550  Biso   1.000  H
  H108     1.0000 0.31490  0.56840  0.29550  Biso   1.000  H
  H109     1.0000 0.06840  0.81490  0.20450  Biso   1.000  H
  H110     1.0000 0.43160  0.68510  0.70450  Biso   1.000  H
  H111     1.0000 0.31490  0.93160  0.95450  Biso   1.000  H
  H112     1.0000 0.18510  0.56840  0.45450  Biso   1.000  H
  C225     1.0000 0.94846  0.13280  0.08981  Biso   1.000  C
  C226     1.0000 0.55154  0.36720  0.58981  Biso   1.000  C
  C227     1.0000 0.86720  0.44846  0.33981  Biso   1.000  C
  C228     1.0000 0.63280  0.05154  0.83981  Biso   1.000  C
  C229     1.0000 0.55154  0.13280  0.66019  Biso   1.000  C
  C230     1.0000 0.94846  0.36720  0.16019  Biso   1.000  C
  C231     1.0000 0.63280  0.44846  0.41019  Biso   1.000  C
  C232     1.0000 0.86720  0.05154  0.91019  Biso   1.000  C
  C233     1.0000 0.44846  0.63280  0.58981  Biso   1.000  C
  C234     1.0000 0.05154  0.86720  0.08981  Biso   1.000  C
  C235     1.0000 0.36720  0.94846  0.83981  Biso   1.000  C
  C236     1.0000 0.13280  0.55154  0.33981  Biso   1.000  C
  C237     1.0000 0.05154  0.63280  0.16019  Biso   1.000  C
  C238     1.0000 0.44846  0.86720  0.66019  Biso   1.000  C
  C239     1.0000 0.13280  0.94846  0.91019  Biso   1.000  C
  C240     1.0000 0.36720  0.55154  0.41019  Biso   1.000  C
  H113     1.0000 0.97970  0.14660  0.09550  Biso   1.000  H
  H114     1.0000 0.52030  0.35340  0.59550  Biso   1.000  H
  H115     1.0000 0.85340  0.47970  0.34550  Biso   1.000  H
  H116     1.0000 0.64660  0.02030  0.84550  Biso   1.000  H
  H117     1.0000 0.52030  0.14660  0.65450  Biso   1.000  H
  H118     1.0000 0.97970  0.35340  0.15450  Biso   1.000  H
  H119     1.0000 0.64660  0.47970  0.40450  Biso   1.000  H
  H120     1.0000 0.85340  0.02030  0.90450  Biso   1.000  H
  H121     1.0000 0.47970  0.64660  0.59550  Biso   1.000  H
  H122     1.0000 0.02030  0.85340  0.09550  Biso   1.000  H
  H123     1.0000 0.35340  0.97970  0.84550  Biso   1.000  H
  H124     1.0000 0.14660  0.52030  0.34550  Biso   1.000  H
  H125     1.0000 0.02030  0.64660  0.15450  Biso   1.000  H
  H126     1.0000 0.47970  0.85340  0.65450  Biso   1.000  H
  H127     1.0000 0.14660  0.97970  0.90450  Biso   1.000  H
  H128     1.0000 0.35340  0.52030  0.40450  Biso   1.000  H
  C241     1.0000 0.80020  0.34310  0.02430  Biso   1.000  C
  C242     1.0000 0.69980  0.15690  0.52430  Biso   1.000  C
  C243     1.0000 0.65690  0.30020  0.27430  Biso   1.000  C
  C244     1.0000 0.84310  0.19980  0.77430  Biso   1.000  C
  C245     1.0000 0.69980  0.34310  0.72570  Biso   1.000  C
  C246     1.0000 0.80020  0.15690  0.22570  Biso   1.000  C
  C247     1.0000 0.84310  0.30020  0.47570  Biso   1.000  C
  C248     1.0000 0.65690  0.19980  0.97570  Biso   1.000  C
  C249     1.0000 0.30020  0.84310  0.52430  Biso   1.000  C
  C250     1.0000 0.19980  0.65690  0.02430  Biso   1.000  C
  C251     1.0000 0.15690  0.80020  0.77430  Biso   1.000  C
  C252     1.0000 0.34310  0.69980  0.27430  Biso   1.000  C
  C253     1.0000 0.19980  0.84310  0.22570  Biso   1.000  C
  C254     1.0000 0.30020  0.65690  0.72570  Biso   1.000  C
  C255     1.0000 0.34310  0.80020  0.97570  Biso   1.000  C
  C256     1.0000 0.15690  0.69980  0.47570  Biso   1.000  C
  H129     1.0000 0.80080  0.38110  0.02420  Biso   1.000  H
  H130     1.0000 0.69920  0.11890  0.52420  Biso   1.000  H
  H131     1.0000 0.61890  0.30080  0.27420  Biso   1.000  H
  H132     1.0000 0.88110  0.19920  0.77420  Biso   1.000  H
  H133     1.0000 0.69920  0.38110  0.72580  Biso   1.000  H
  H134     1.0000 0.80080  0.11890  0.22580  Biso   1.000  H
  H135     1.0000 0.88110  0.30080  0.47580  Biso   1.000  H
  H136     1.0000 0.61890  0.19920  0.97580  Biso   1.000  H
  H137     1.0000 0.30080  0.88110  0.52420  Biso   1.000  H
  H138     1.0000 0.19920  0.61890  0.02420  Biso   1.000  H
  H139     1.0000 0.11890  0.80080  0.77420  Biso   1.000  H
  H140     1.0000 0.38110  0.69920  0.27420  Biso   1.000  H
  H141     1.0000 0.19920  0.88110  0.22580  Biso   1.000  H
  H142     1.0000 0.30080  0.61890  0.72580  Biso   1.000  H
  H143     1.0000 0.38110  0.80080  0.97580  Biso   1.000  H
  H144     1.0000 0.11890  0.69920  0.47580  Biso   1.000  H
  C257     1.0000 0.82800  0.31690  0.03732  Biso   1.000  C
  C258     1.0000 0.67200  0.18310  0.53732  Biso   1.000  C
  C259     1.0000 0.68310  0.32800  0.28732  Biso   1.000  C
  C260     1.0000 0.81690  0.17200  0.78732  Biso   1.000  C
  C261     1.0000 0.67200  0.31690  0.71268  Biso   1.000  C
  C262     1.0000 0.82800  0.18310  0.21268  Biso   1.000  C
  C263     1.0000 0.81690  0.32800  0.46268  Biso   1.000  C
  C264     1.0000 0.68310  0.17200  0.96268  Biso   1.000  C
  C265     1.0000 0.32800  0.81690  0.53732  Biso   1.000  C
  C266     1.0000 0.17200  0.68310  0.03732  Biso   1.000  C
  C267     1.0000 0.18310  0.82800  0.78732  Biso   1.000  C
  C268     1.0000 0.31690  0.67200  0.28732  Biso   1.000  C
  C269     1.0000 0.17200  0.81690  0.21268  Biso   1.000  C
  C270     1.0000 0.32800  0.68310  0.71268  Biso   1.000  C
  C271     1.0000 0.31690  0.82800  0.96268  Biso   1.000  C
  C272     1.0000 0.18310  0.67200  0.46268  Biso   1.000  C
  C273     1.0000 0.79900  0.22960  0.02143  Biso   1.000  C
  C274     1.0000 0.70100  0.27040  0.52143  Biso   1.000  C
  C275     1.0000 0.77040  0.29900  0.27143  Biso   1.000  C
  C276     1.0000 0.72960  0.20100  0.77143  Biso   1.000  C
  C277     1.0000 0.70100  0.22960  0.72857  Biso   1.000  C
  C278     1.0000 0.79900  0.27040  0.22857  Biso   1.000  C
  C279     1.0000 0.72960  0.29900  0.47857  Biso   1.000  C
  C280     1.0000 0.77040  0.20100  0.97857  Biso   1.000  C
  C281     1.0000 0.29900  0.72960  0.52143  Biso   1.000  C
  C282     1.0000 0.20100  0.77040  0.02143  Biso   1.000  C
  C283     1.0000 0.27040  0.79900  0.77143  Biso   1.000  C
  C284     1.0000 0.22960  0.70100  0.27143  Biso   1.000  C
  C285     1.0000 0.20100  0.72960  0.22857  Biso   1.000  C
  C286     1.0000 0.29900  0.77040  0.72857  Biso   1.000  C
  C287     1.0000 0.22960  0.79900  0.97857  Biso   1.000  C
  C288     1.0000 0.27040  0.70100  0.47857  Biso   1.000  C
  C289     1.0000 0.87860  0.14100  0.06695  Biso   1.000  C
  C290     1.0000 0.62140  0.35900  0.56695  Biso   1.000  C
  C291     1.0000 0.85900  0.37860  0.31695  Biso   1.000  C
  C292     1.0000 0.64100  0.12140  0.81695  Biso   1.000  C
  C293     1.0000 0.62140  0.14100  0.68305  Biso   1.000  C
  C294     1.0000 0.87860  0.35900  0.18305  Biso   1.000  C
  C295     1.0000 0.64100  0.37860  0.43305  Biso   1.000  C
  C296     1.0000 0.85900  0.12140  0.93305  Biso   1.000  C
  C297     1.0000 0.37860  0.64100  0.56695  Biso   1.000  C
  C298     1.0000 0.12140  0.85900  0.06695  Biso   1.000  C
  C299     1.0000 0.35900  0.87860  0.81695  Biso   1.000  C
  C300     1.0000 0.14100  0.62140  0.31695  Biso   1.000  C
  C301     1.0000 0.12140  0.64100  0.18305  Biso   1.000  C
  C302     1.0000 0.37860  0.85900  0.68305  Biso   1.000  C
  C303     1.0000 0.14100  0.87860  0.93305  Biso   1.000  C
  C304     1.0000 0.35900  0.62140  0.43305  Biso   1.000  C
  C305     1.0000 0.80211  0.17040  0.02246  Biso   1.000  C
  C306     1.0000 0.69789  0.32960  0.52246  Biso   1.000  C
  C307     1.0000 0.82960  0.30211  0.27246  Biso   1.000  C
  C308     1.0000 0.67040  0.19789  0.77246  Biso   1.000  C
  C309     1.0000 0.69789  0.17040  0.72754  Biso   1.000  C
  C310     1.0000 0.80211  0.32960  0.22754  Biso   1.000  C
  C311     1.0000 0.67040  0.30211  0.47754  Biso   1.000  C
  C312     1.0000 0.82960  0.19789  0.97754  Biso   1.000  C
  C313     1.0000 0.30211  0.67040  0.52246  Biso   1.000  C
  C314     1.0000 0.19789  0.82960  0.02246  Biso   1.000  C
  C315     1.0000 0.32960  0.80211  0.77246  Biso   1.000  C
  C316     1.0000 0.17040  0.69789  0.27246  Biso   1.000  C
  C317     1.0000 0.19789  0.67040  0.22754  Biso   1.000  C
  C318     1.0000 0.30211  0.82960  0.72754  Biso   1.000  C
  C319     1.0000 0.17040  0.80211  0.97754  Biso   1.000  C
  C320     1.0000 0.32960  0.69789  0.47754  Biso   1.000  C
  H145     1.0000 0.78670  0.15040  0.01280  Biso   1.000  H
  H146     1.0000 0.71330  0.34960  0.51280  Biso   1.000  H
  H147     1.0000 0.84960  0.28670  0.26280  Biso   1.000  H
  H148     1.0000 0.65040  0.21330  0.76280  Biso   1.000  H
  H149     1.0000 0.71330  0.15040  0.73720  Biso   1.000  H
  H150     1.0000 0.78670  0.34960  0.23720  Biso   1.000  H
  H151     1.0000 0.65040  0.28670  0.48720  Biso   1.000  H
  H152     1.0000 0.84960  0.21330  0.98720  Biso   1.000  H
  H153     1.0000 0.28670  0.65040  0.51280  Biso   1.000  H
  H154     1.0000 0.21330  0.84960  0.01280  Biso   1.000  H
  H155     1.0000 0.34960  0.78670  0.76280  Biso   1.000  H
  H156     1.0000 0.15040  0.71330  0.26280  Biso   1.000  H
  H157     1.0000 0.21330  0.65040  0.23720  Biso   1.000  H
  H158     1.0000 0.28670  0.84960  0.73720  Biso   1.000  H
  H159     1.0000 0.15040  0.78670  0.98720  Biso   1.000  H
  H160     1.0000 0.34960  0.71330  0.48720  Biso   1.000  H
  C321     1.0000 0.82637  0.14142  0.03681  Biso   1.000  C
  C322     1.0000 0.67363  0.35858  0.53681  Biso   1.000  C
  C323     1.0000 0.85858  0.32637  0.28681  Biso   1.000  C
  C324     1.0000 0.64142  0.17363  0.78681  Biso   1.000  C
  C325     1.0000 0.67363  0.14142  0.71319  Biso   1.000  C
  C326     1.0000 0.82637  0.35858  0.21319  Biso   1.000  C
  C327     1.0000 0.64142  0.32637  0.46319  Biso   1.000  C
  C328     1.0000 0.85858  0.17363  0.96319  Biso   1.000  C
  C329     1.0000 0.32637  0.64142  0.53681  Biso   1.000  C
  C330     1.0000 0.17363  0.85858  0.03681  Biso   1.000  C
  C331     1.0000 0.35858  0.82637  0.78681  Biso   1.000  C
  C332     1.0000 0.14142  0.67363  0.28681  Biso   1.000  C
  C333     1.0000 0.17363  0.64142  0.21319  Biso   1.000  C
  C334     1.0000 0.32637  0.85858  0.71319  Biso   1.000  C
  C335     1.0000 0.14142  0.82637  0.96319  Biso   1.000  C
  C336     1.0000 0.35858  0.67363  0.46319  Biso   1.000  C
  H161     1.0000 0.82600  0.10340  0.03700  Biso   1.000  H
  H162     1.0000 0.67400  0.39660  0.53700  Biso   1.000  H
  H163     1.0000 0.89660  0.32600  0.28700  Biso   1.000  H
  H164     1.0000 0.60340  0.17400  0.78700  Biso   1.000  H
  H165     1.0000 0.67400  0.10340  0.71300  Biso   1.000  H
  H166     1.0000 0.82600  0.39660  0.21300  Biso   1.000  H
  H167     1.0000 0.60340  0.32600  0.46300  Biso   1.000  H
  H168     1.0000 0.89660  0.17400  0.96300  Biso   1.000  H
  H169     1.0000 0.32600  0.60340  0.53700  Biso   1.000  H
  H170     1.0000 0.17400  0.89660  0.03700  Biso   1.000  H
  H171     1.0000 0.39660  0.82600  0.78700  Biso   1.000  H
  H172     1.0000 0.10340  0.67400  0.28700  Biso   1.000  H
  H173     1.0000 0.17400  0.60340  0.21300  Biso   1.000  H
  H174     1.0000 0.32600  0.89660  0.71300  Biso   1.000  H
  H175     1.0000 0.10340  0.82600  0.96300  Biso   1.000  H
  H176     1.0000 0.39660  0.67400  0.46300  Biso   1.000  H
  C337     1.0000 0.85287  0.17340  0.05174  Biso   1.000  C
  C338     1.0000 0.64713  0.32660  0.55174  Biso   1.000  C
  C339     1.0000 0.82660  0.35287  0.30174  Biso   1.000  C
  C340     1.0000 0.67340  0.14713  0.80174  Biso   1.000  C
  C341     1.0000 0.64713  0.17340  0.69826  Biso   1.000  C
  C342     1.0000 0.85287  0.32660  0.19826  Biso   1.000  C
  C343     1.0000 0.67340  0.35287  0.44826  Biso   1.000  C
  C344     1.0000 0.82660  0.14713  0.94826  Biso   1.000  C
  C345     1.0000 0.35287  0.67340  0.55174  Biso   1.000  C
  C346     1.0000 0.14713  0.82660  0.05174  Biso   1.000  C
  C347     1.0000 0.32660  0.85287  0.80174  Biso   1.000  C
  C348     1.0000 0.17340  0.64713  0.30174  Biso   1.000  C
  C349     1.0000 0.14713  0.67340  0.19826  Biso   1.000  C
  C350     1.0000 0.35287  0.82660  0.69826  Biso   1.000  C
  C351     1.0000 0.17340  0.85287  0.94826  Biso   1.000  C
  C352     1.0000 0.32660  0.64713  0.44826  Biso   1.000  C
  C353     1.0000 0.85234  0.23030  0.05007  Biso   1.000  C
  C354     1.0000 0.64766  0.26970  0.55007  Biso   1.000  C
  C355     1.0000 0.76970  0.35234  0.30007  Biso   1.000  C
  C356     1.0000 0.73030  0.14766  0.80007  Biso   1.000  C
  C357     1.0000 0.64766  0.23030  0.69993  Biso   1.000  C
  C358     1.0000 0.85234  0.26970  0.19993  Biso   1.000  C
  C359     1.0000 0.73030  0.35234  0.44993  Biso   1.000  C
  C360     1.0000 0.76970  0.14766  0.94993  Biso   1.000  C
  C361     1.0000 0.35234  0.73030  0.55007  Biso   1.000  C
  C362     1.0000 0.14766  0.76970  0.05007  Biso   1.000  C
  C363     1.0000 0.26970  0.85234  0.80007  Biso   1.000  C
  C364     1.0000 0.23030  0.64766  0.30007  Biso   1.000  C
  C365     1.0000 0.14766  0.73030  0.19993  Biso   1.000  C
  C366     1.0000 0.35234  0.76970  0.69993  Biso   1.000  C
  C367     1.0000 0.23030  0.85234  0.94993  Biso   1.000  C
  C368     1.0000 0.26970  0.64766  0.44993  Biso   1.000  C
  H177     1.0000 0.87050  0.25050  0.05910  Biso   1.000  H
  H178     1.0000 0.62950  0.24950  0.55910  Biso   1.000  H
  H179     1.0000 0.74950  0.37050  0.30910  Biso   1.000  H
  H180     1.0000 0.75050  0.12950  0.80910  Biso   1.000  H
  H181     1.0000 0.62950  0.25050  0.69090  Biso   1.000  H
  H182     1.0000 0.87050  0.24950  0.19090  Biso   1.000  H
  H183     1.0000 0.75050  0.37050  0.44090  Biso   1.000  H
  H184     1.0000 0.74950  0.12950  0.94090  Biso   1.000  H
  H185     1.0000 0.37050  0.75050  0.55910  Biso   1.000  H
  H186     1.0000 0.12950  0.74950  0.05910  Biso   1.000  H
  H187     1.0000 0.24950  0.87050  0.80910  Biso   1.000  H
  H188     1.0000 0.25050  0.62950  0.30910  Biso   1.000  H
  H189     1.0000 0.12950  0.75050  0.19090  Biso   1.000  H
  H190     1.0000 0.37050  0.74950  0.69090  Biso   1.000  H
  H191     1.0000 0.25050  0.87050  0.94090  Biso   1.000  H
  H192     1.0000 0.24950  0.62950  0.44090  Biso   1.000  H
  C369     1.0000 0.76810  0.31380  0.00996  Biso   1.000  C
  C370     1.0000 0.73190  0.18620  0.50996  Biso   1.000  C
  C371     1.0000 0.68620  0.26810  0.25996  Biso   1.000  C
  C372     1.0000 0.81380  0.23190  0.75996  Biso   1.000  C
  C373     1.0000 0.73190  0.31380  0.74004  Biso   1.000  C
  C374     1.0000 0.76810  0.18620  0.24004  Biso   1.000  C
  C375     1.0000 0.81380  0.26810  0.49004  Biso   1.000  C
  C376     1.0000 0.68620  0.23190  0.99004  Biso   1.000  C
  C377     1.0000 0.26810  0.81380  0.50996  Biso   1.000  C
  C378     1.0000 0.23190  0.68620  0.00996  Biso   1.000  C
  C379     1.0000 0.18620  0.76810  0.75996  Biso   1.000  C
  C380     1.0000 0.31380  0.73190  0.25996  Biso   1.000  C
  C381     1.0000 0.23190  0.81380  0.24004  Biso   1.000  C
  C382     1.0000 0.26810  0.68620  0.74004  Biso   1.000  C
  C383     1.0000 0.31380  0.76810  0.99004  Biso   1.000  C
  C384     1.0000 0.18620  0.73190  0.49004  Biso   1.000  C
  O65      1.0000 0.90466  0.89481  0.86323  Biso   1.000  O
  O66      1.0000 0.59534  0.60519  0.36323  Biso   1.000  O
  O67      1.0000 0.10519  0.40466  0.11323  Biso   1.000  O
  O68      1.0000 0.39481  0.09534  0.61323  Biso   1.000  O
  O69      1.0000 0.59534  0.89481  0.88677  Biso   1.000  O
  O70      1.0000 0.90466  0.60519  0.38677  Biso   1.000  O
  O71      1.0000 0.39481  0.40466  0.63677  Biso   1.000  O
  O72      1.0000 0.10519  0.09534  0.13677  Biso   1.000  O
  O73      1.0000 0.40466  0.39481  0.36323  Biso   1.000  O
  O74      1.0000 0.09534  0.10519  0.86323  Biso   1.000  O
  O75      1.0000 0.60519  0.90466  0.61323  Biso   1.000  O
  O76      1.0000 0.89481  0.59534  0.11323  Biso   1.000  O
  O77      1.0000 0.09534  0.39481  0.38677  Biso   1.000  O
  O78      1.0000 0.40466  0.10519  0.88677  Biso   1.000  O
  O79      1.0000 0.89481  0.90466  0.13677  Biso   1.000  O
  O80      1.0000 0.60519  0.59534  0.63677  Biso   1.000  O
  O81      1.0000 0.73400  0.34312  0.99698  Biso   1.000  O
  O82      1.0000 0.76600  0.15688  0.49698  Biso   1.000  O
  O83      1.0000 0.65688  0.23400  0.24698  Biso   1.000  O
  O84      1.0000 0.84312  0.26600  0.74698  Biso   1.000  O
  O85      1.0000 0.76600  0.34312  0.75302  Biso   1.000  O
  O86      1.0000 0.73400  0.15688  0.25302  Biso   1.000  O
  O87      1.0000 0.84312  0.23400  0.50302  Biso   1.000  O
  O88      1.0000 0.65688  0.26600  0.00302  Biso   1.000  O
  O89      1.0000 0.23400  0.84312  0.49698  Biso   1.000  O
  O90      1.0000 0.26600  0.65688  0.99698  Biso   1.000  O
  O91      1.0000 0.15688  0.73400  0.74698  Biso   1.000  O
  O92      1.0000 0.34312  0.76600  0.24698  Biso   1.000  O
  O93      1.0000 0.26600  0.84312  0.25302  Biso   1.000  O
  O94      1.0000 0.23400  0.65688  0.75302  Biso   1.000  O
  O95      1.0000 0.34312  0.73400  0.00302  Biso   1.000  O
  O96      1.0000 0.15688  0.76600  0.50302  Biso   1.000  O
  P1       1.0000 0.66301  0.33699  0.00000  Biso   1.000  P
  P2       1.0000 0.83699  0.16301  0.50000  Biso   1.000  P
  P3       1.0000 0.66301  0.16301  0.25000  Biso   1.000  P
  P4       1.0000 0.83699  0.33699  0.75000  Biso   1.000  P
  P5       1.0000 0.16301  0.83699  0.50000  Biso   1.000  P
  P6       1.0000 0.33699  0.66301  0.00000  Biso   1.000  P
  P7       1.0000 0.16301  0.66301  0.75000  Biso   1.000  P
  P8       1.0000 0.33699  0.83699  0.25000  Biso   1.000  P
  O97      1.0000 0.63976  0.35202  0.98161  Biso   1.000  O
  O98      1.0000 0.86024  0.14798  0.48161  Biso   1.000  O
  O99      1.0000 0.64798  0.13976  0.23161  Biso   1.000  O
  O100     1.0000 0.85202  0.36024  0.73161  Biso   1.000  O
  O101     1.0000 0.86024  0.35202  0.76839  Biso   1.000  O
  O102     1.0000 0.63976  0.14798  0.26839  Biso   1.000  O
  O103     1.0000 0.85202  0.13976  0.51839  Biso   1.000  O
  O104     1.0000 0.64798  0.36024  0.01839  Biso   1.000  O
  O105     1.0000 0.13976  0.85202  0.48161  Biso   1.000  O
  O106     1.0000 0.36024  0.64798  0.98161  Biso   1.000  O
  O107     1.0000 0.14798  0.63976  0.73161  Biso   1.000  O
  O108     1.0000 0.35202  0.86024  0.23161  Biso   1.000  O
  O109     1.0000 0.36024  0.85202  0.26839  Biso   1.000  O
  O110     1.0000 0.13976  0.64798  0.76839  Biso   1.000  O
  O111     1.0000 0.35202  0.63976  0.01839  Biso   1.000  O
  O112     1.0000 0.14798  0.86024  0.51839  Biso   1.000  O
