data_image0
_cell_length_a       18.672
_cell_length_b       18.672
_cell_length_c       35.448
_cell_angle_alpha    90
_cell_angle_beta     90
_cell_angle_gamma    120

_symmetry_space_group_name_H-M    "P 1"
_symmetry_int_tables_number       1

loop_
  _symmetry_equiv_pos_as_xyz
  'x, y, z'

loop_
  _atom_site_label
  _atom_site_occupancy
  _atom_site_fract_x
  _atom_site_fract_y
  _atom_site_fract_z
  _atom_site_thermal_displace_type
  _atom_site_B_iso_or_equiv
  _atom_site_type_symbol
  C1       1.0000 0.15160  0.07580  0.25751  Biso   1.000  C
  C2       1.0000 0.92420  0.07580  0.25751  Biso   1.000  C
  C3       1.0000 0.92420  0.84840  0.25751  Biso   1.000  C
  C4       1.0000 0.07580  0.15160  0.74249  Biso   1.000  C
  C5       1.0000 0.84840  0.92420  0.74249  Biso   1.000  C
  C6       1.0000 0.07580  0.92420  0.74249  Biso   1.000  C
  C7       1.0000 0.81827  0.40913  0.59084  Biso   1.000  C
  C8       1.0000 0.59087  0.40913  0.59084  Biso   1.000  C
  C9       1.0000 0.59087  0.18173  0.59084  Biso   1.000  C
  C10      1.0000 0.74247  0.48493  0.07582  Biso   1.000  C
  C11      1.0000 0.51507  0.25753  0.07582  Biso   1.000  C
  C12      1.0000 0.74247  0.25753  0.07582  Biso   1.000  C
  C13      1.0000 0.48493  0.74247  0.92418  Biso   1.000  C
  C14      1.0000 0.25753  0.74247  0.92418  Biso   1.000  C
  C15      1.0000 0.25753  0.51507  0.92418  Biso   1.000  C
  C16      1.0000 0.40913  0.81827  0.40916  Biso   1.000  C
  C17      1.0000 0.18173  0.59087  0.40916  Biso   1.000  C
  C18      1.0000 0.40913  0.59087  0.40916  Biso   1.000  C
  C19      1.0000 0.17360  0.05780  0.32188  Biso   1.000  C
  C20      1.0000 0.94220  0.11580  0.32188  Biso   1.000  C
  C21      1.0000 0.88420  0.82640  0.32188  Biso   1.000  C
  C22      1.0000 0.05780  0.17360  0.67812  Biso   1.000  C
  C23      1.0000 0.82640  0.88420  0.67812  Biso   1.000  C
  C24      1.0000 0.11580  0.94220  0.67812  Biso   1.000  C
  C25      1.0000 0.84027  0.39113  0.65521  Biso   1.000  C
  C26      1.0000 0.60887  0.44913  0.65521  Biso   1.000  C
  C27      1.0000 0.55087  0.15973  0.65521  Biso   1.000  C
  C28      1.0000 0.72447  0.50693  0.01145  Biso   1.000  C
  C29      1.0000 0.49307  0.21753  0.01145  Biso   1.000  C
  C30      1.0000 0.78247  0.27553  0.01145  Biso   1.000  C
  C31      1.0000 0.50693  0.72447  0.98855  Biso   1.000  C
  C32      1.0000 0.27553  0.78247  0.98855  Biso   1.000  C
  C33      1.0000 0.21753  0.49307  0.98855  Biso   1.000  C
  C34      1.0000 0.39113  0.84027  0.34479  Biso   1.000  C
  C35      1.0000 0.15973  0.55087  0.34479  Biso   1.000  C
  C36      1.0000 0.44913  0.60887  0.34479  Biso   1.000  C
  C37      1.0000 0.82640  0.94220  0.67812  Biso   1.000  C
  C38      1.0000 0.05780  0.88420  0.67812  Biso   1.000  C
  C39      1.0000 0.11580  0.17360  0.67812  Biso   1.000  C
  C40      1.0000 0.94220  0.82640  0.32188  Biso   1.000  C
  C41      1.0000 0.17360  0.11580  0.32188  Biso   1.000  C
  C42      1.0000 0.88420  0.05780  0.32188  Biso   1.000  C
  C43      1.0000 0.49307  0.27553  0.01145  Biso   1.000  C
  C44      1.0000 0.72447  0.21753  0.01145  Biso   1.000  C
  C45      1.0000 0.78247  0.50693  0.01145  Biso   1.000  C
  C46      1.0000 0.60887  0.15973  0.65521  Biso   1.000  C
  C47      1.0000 0.84027  0.44913  0.65521  Biso   1.000  C
  C48      1.0000 0.55087  0.39113  0.65521  Biso   1.000  C
  C49      1.0000 0.15973  0.60887  0.34479  Biso   1.000  C
  C50      1.0000 0.39113  0.55087  0.34479  Biso   1.000  C
  C51      1.0000 0.44913  0.84027  0.34479  Biso   1.000  C
  C52      1.0000 0.27553  0.49307  0.98855  Biso   1.000  C
  C53      1.0000 0.50693  0.78247  0.98855  Biso   1.000  C
  C54      1.0000 0.21753  0.72447  0.98855  Biso   1.000  C
  C55      1.0000 0.26000  0.09570  0.31689  Biso   1.000  C
  C56      1.0000 0.90430  0.16430  0.31689  Biso   1.000  C
  C57      1.0000 0.83570  0.74000  0.31689  Biso   1.000  C
  C58      1.0000 0.09570  0.26000  0.68311  Biso   1.000  C
  C59      1.0000 0.74000  0.83570  0.68311  Biso   1.000  C
  C60      1.0000 0.16430  0.90430  0.68311  Biso   1.000  C
  C61      1.0000 0.92667  0.42903  0.65022  Biso   1.000  C
  C62      1.0000 0.57097  0.49763  0.65022  Biso   1.000  C
  C63      1.0000 0.50237  0.07333  0.65022  Biso   1.000  C
  C64      1.0000 0.76237  0.59333  0.01644  Biso   1.000  C
  C65      1.0000 0.40667  0.16903  0.01644  Biso   1.000  C
  C66      1.0000 0.83097  0.23763  0.01644  Biso   1.000  C
  C67      1.0000 0.59333  0.76237  0.98356  Biso   1.000  C
  C68      1.0000 0.23763  0.83097  0.98356  Biso   1.000  C
  C69      1.0000 0.16903  0.40667  0.98356  Biso   1.000  C
  C70      1.0000 0.42903  0.92667  0.34978  Biso   1.000  C
  C71      1.0000 0.07333  0.50237  0.34978  Biso   1.000  C
  C72      1.0000 0.49763  0.57097  0.34978  Biso   1.000  C
  C73      1.0000 0.74000  0.90430  0.68311  Biso   1.000  C
  C74      1.0000 0.09570  0.83570  0.68311  Biso   1.000  C
  C75      1.0000 0.16430  0.26000  0.68311  Biso   1.000  C
  C76      1.0000 0.90430  0.74000  0.31689  Biso   1.000  C
  C77      1.0000 0.26000  0.16430  0.31689  Biso   1.000  C
  C78      1.0000 0.83570  0.09570  0.31689  Biso   1.000  C
  C79      1.0000 0.40667  0.23763  0.01644  Biso   1.000  C
  C80      1.0000 0.76237  0.16903  0.01644  Biso   1.000  C
  C81      1.0000 0.83097  0.59333  0.01644  Biso   1.000  C
  C82      1.0000 0.57097  0.07333  0.65022  Biso   1.000  C
  C83      1.0000 0.92667  0.49763  0.65022  Biso   1.000  C
  C84      1.0000 0.50237  0.42903  0.65022  Biso   1.000  C
  C85      1.0000 0.07333  0.57097  0.34978  Biso   1.000  C
  C86      1.0000 0.42903  0.50237  0.34978  Biso   1.000  C
  C87      1.0000 0.49763  0.92667  0.34978  Biso   1.000  C
  C88      1.0000 0.23763  0.40667  0.98356  Biso   1.000  C
  C89      1.0000 0.59333  0.83097  0.98356  Biso   1.000  C
  C90      1.0000 0.16903  0.76237  0.98356  Biso   1.000  C
  C91      1.0000 0.28350  0.11580  0.27928  Biso   1.000  C
  C92      1.0000 0.88420  0.16770  0.27928  Biso   1.000  C
  C93      1.0000 0.83230  0.71650  0.27928  Biso   1.000  C
  C94      1.0000 0.11580  0.28350  0.72072  Biso   1.000  C
  C95      1.0000 0.71650  0.83230  0.72072  Biso   1.000  C
  C96      1.0000 0.16770  0.88420  0.72072  Biso   1.000  C
  C97      1.0000 0.95017  0.44913  0.61261  Biso   1.000  C
  C98      1.0000 0.55087  0.50103  0.61261  Biso   1.000  C
  C99      1.0000 0.49897  0.04983  0.61261  Biso   1.000  C
  C100     1.0000 0.78247  0.61683  0.05405  Biso   1.000  C
  C101     1.0000 0.38317  0.16563  0.05405  Biso   1.000  C
  C102     1.0000 0.83437  0.21753  0.05405  Biso   1.000  C
  C103     1.0000 0.61683  0.78247  0.94595  Biso   1.000  C
  C104     1.0000 0.21753  0.83437  0.94595  Biso   1.000  C
  C105     1.0000 0.16563  0.38317  0.94595  Biso   1.000  C
  C106     1.0000 0.44913  0.95017  0.38739  Biso   1.000  C
  C107     1.0000 0.04983  0.49897  0.38739  Biso   1.000  C
  C108     1.0000 0.50103  0.55087  0.38739  Biso   1.000  C
  C109     1.0000 0.71650  0.88420  0.72072  Biso   1.000  C
  C110     1.0000 0.11580  0.83230  0.72072  Biso   1.000  C
  C111     1.0000 0.16770  0.28350  0.72072  Biso   1.000  C
  C112     1.0000 0.88420  0.71650  0.27928  Biso   1.000  C
  C113     1.0000 0.28350  0.16770  0.27928  Biso   1.000  C
  C114     1.0000 0.83230  0.11580  0.27928  Biso   1.000  C
  C115     1.0000 0.38317  0.21753  0.05405  Biso   1.000  C
  C116     1.0000 0.78247  0.16563  0.05405  Biso   1.000  C
  C117     1.0000 0.83437  0.61683  0.05405  Biso   1.000  C
  C118     1.0000 0.55087  0.04983  0.61261  Biso   1.000  C
  C119     1.0000 0.95017  0.50103  0.61261  Biso   1.000  C
  C120     1.0000 0.49897  0.44913  0.61261  Biso   1.000  C
  C121     1.0000 0.04983  0.55087  0.38739  Biso   1.000  C
  C122     1.0000 0.44913  0.49897  0.38739  Biso   1.000  C
  C123     1.0000 0.50103  0.95017  0.38739  Biso   1.000  C
  C124     1.0000 0.21753  0.38317  0.94595  Biso   1.000  C
  C125     1.0000 0.61683  0.83437  0.94595  Biso   1.000  C
  C126     1.0000 0.16563  0.78247  0.94595  Biso   1.000  C
  C127     1.0000 0.30420  0.09640  0.34909  Biso   1.000  C
  C128     1.0000 0.90360  0.20780  0.34909  Biso   1.000  C
  C129     1.0000 0.79220  0.69580  0.34909  Biso   1.000  C
  C130     1.0000 0.09640  0.30420  0.65091  Biso   1.000  C
  C131     1.0000 0.69580  0.79220  0.65091  Biso   1.000  C
  C132     1.0000 0.20780  0.90360  0.65091  Biso   1.000  C
  C133     1.0000 0.97087  0.42973  0.68242  Biso   1.000  C
  C134     1.0000 0.57027  0.54113  0.68242  Biso   1.000  C
  C135     1.0000 0.45887  0.02913  0.68242  Biso   1.000  C
  C136     1.0000 0.76307  0.63753  0.98424  Biso   1.000  C
  C137     1.0000 0.36247  0.12553  0.98424  Biso   1.000  C
  C138     1.0000 0.87447  0.23693  0.98424  Biso   1.000  C
  C139     1.0000 0.63753  0.76307  0.01576  Biso   1.000  C
  C140     1.0000 0.23693  0.87447  0.01576  Biso   1.000  C
  C141     1.0000 0.12553  0.36247  0.01576  Biso   1.000  C
  C142     1.0000 0.42973  0.97087  0.31758  Biso   1.000  C
  C143     1.0000 0.02913  0.45887  0.31758  Biso   1.000  C
  C144     1.0000 0.54113  0.57027  0.31758  Biso   1.000  C
  C145     1.0000 0.69580  0.90360  0.65091  Biso   1.000  C
  C146     1.0000 0.09640  0.79220  0.65091  Biso   1.000  C
  C147     1.0000 0.20780  0.30420  0.65091  Biso   1.000  C
  C148     1.0000 0.90360  0.69580  0.34909  Biso   1.000  C
  C149     1.0000 0.30420  0.20780  0.34909  Biso   1.000  C
  C150     1.0000 0.79220  0.09640  0.34909  Biso   1.000  C
  C151     1.0000 0.36247  0.23693  0.98424  Biso   1.000  C
  C152     1.0000 0.76307  0.12553  0.98424  Biso   1.000  C
  C153     1.0000 0.87447  0.63753  0.98424  Biso   1.000  C
  C154     1.0000 0.57027  0.02913  0.68242  Biso   1.000  C
  C155     1.0000 0.97087  0.54113  0.68242  Biso   1.000  C
  C156     1.0000 0.45887  0.42973  0.68242  Biso   1.000  C
  C157     1.0000 0.02913  0.57027  0.31758  Biso   1.000  C
  C158     1.0000 0.42973  0.45887  0.31758  Biso   1.000  C
  C159     1.0000 0.54113  0.97087  0.31758  Biso   1.000  C
  C160     1.0000 0.23693  0.36247  0.01576  Biso   1.000  C
  C161     1.0000 0.63753  0.87447  0.01576  Biso   1.000  C
  C162     1.0000 0.12553  0.76307  0.01576  Biso   1.000  C
  C163     1.0000 0.36480  0.18239  0.40119  Biso   1.000  C
  C164     1.0000 0.81761  0.18241  0.40119  Biso   1.000  C
  C165     1.0000 0.81759  0.63520  0.40119  Biso   1.000  C
  C166     1.0000 0.18239  0.36480  0.59881  Biso   1.000  C
  C167     1.0000 0.63520  0.81759  0.59881  Biso   1.000  C
  C168     1.0000 0.18241  0.81761  0.59881  Biso   1.000  C
  C169     1.0000 0.03147  0.51572  0.73452  Biso   1.000  C
  C170     1.0000 0.48428  0.51574  0.73452  Biso   1.000  C
  C171     1.0000 0.48426  0.96853  0.73452  Biso   1.000  C
  C172     1.0000 0.84906  0.69813  0.93214  Biso   1.000  C
  C173     1.0000 0.30187  0.15092  0.93214  Biso   1.000  C
  C174     1.0000 0.84908  0.15094  0.93214  Biso   1.000  C
  C175     1.0000 0.69813  0.84906  0.06786  Biso   1.000  C
  C176     1.0000 0.15094  0.84908  0.06786  Biso   1.000  C
  C177     1.0000 0.15092  0.30187  0.06786  Biso   1.000  C
  C178     1.0000 0.51572  0.03147  0.26548  Biso   1.000  C
  C179     1.0000 0.96853  0.48426  0.26548  Biso   1.000  C
  C180     1.0000 0.51574  0.48428  0.26548  Biso   1.000  C
  C181     1.0000 0.38145  0.25580  0.41991  Biso   1.000  C
  C182     1.0000 0.74420  0.12565  0.41991  Biso   1.000  C
  C183     1.0000 0.87435  0.61855  0.41991  Biso   1.000  C
  C184     1.0000 0.25580  0.38145  0.58009  Biso   1.000  C
  C185     1.0000 0.61855  0.87435  0.58009  Biso   1.000  C
  C186     1.0000 0.12565  0.74420  0.58009  Biso   1.000  C
  C187     1.0000 0.04812  0.58913  0.75324  Biso   1.000  C
  C188     1.0000 0.41087  0.45898  0.75324  Biso   1.000  C
  C189     1.0000 0.54102  0.95188  0.75324  Biso   1.000  C
  C190     1.0000 0.92247  0.71478  0.91342  Biso   1.000  C
  C191     1.0000 0.28522  0.20768  0.91342  Biso   1.000  C
  C192     1.0000 0.79232  0.07753  0.91342  Biso   1.000  C
  C193     1.0000 0.71478  0.92247  0.08658  Biso   1.000  C
  C194     1.0000 0.07753  0.79232  0.08658  Biso   1.000  C
  C195     1.0000 0.20768  0.28522  0.08658  Biso   1.000  C
  C196     1.0000 0.58913  0.04812  0.24676  Biso   1.000  C
  C197     1.0000 0.95188  0.54102  0.24676  Biso   1.000  C
  C198     1.0000 0.45898  0.41087  0.24676  Biso   1.000  C
  C199     1.0000 0.61855  0.74420  0.58009  Biso   1.000  C
  C200     1.0000 0.25580  0.87435  0.58009  Biso   1.000  C
  C201     1.0000 0.12565  0.38145  0.58009  Biso   1.000  C
  C202     1.0000 0.74420  0.61855  0.41991  Biso   1.000  C
  C203     1.0000 0.38145  0.12565  0.41991  Biso   1.000  C
  C204     1.0000 0.87435  0.25580  0.41991  Biso   1.000  C
  C205     1.0000 0.28522  0.07753  0.91342  Biso   1.000  C
  C206     1.0000 0.92247  0.20768  0.91342  Biso   1.000  C
  C207     1.0000 0.79232  0.71478  0.91342  Biso   1.000  C
  C208     1.0000 0.41087  0.95188  0.75324  Biso   1.000  C
  C209     1.0000 0.04812  0.45898  0.75324  Biso   1.000  C
  C210     1.0000 0.54102  0.58913  0.75324  Biso   1.000  C
  C211     1.0000 0.95188  0.41087  0.24676  Biso   1.000  C
  C212     1.0000 0.58913  0.54102  0.24676  Biso   1.000  C
  C213     1.0000 0.45898  0.04812  0.24676  Biso   1.000  C
  C214     1.0000 0.07753  0.28522  0.08658  Biso   1.000  C
  C215     1.0000 0.71478  0.79232  0.08658  Biso   1.000  C
  C216     1.0000 0.20768  0.92247  0.08658  Biso   1.000  C
  H1       1.0000 0.36587  0.29250  0.40836  Biso   1.000  H
  H2       1.0000 0.70750  0.07337  0.40836  Biso   1.000  H
  H3       1.0000 0.92663  0.63413  0.40836  Biso   1.000  H
  H4       1.0000 0.29250  0.36587  0.59164  Biso   1.000  H
  H5       1.0000 0.63413  0.92663  0.59164  Biso   1.000  H
  H6       1.0000 0.07337  0.70750  0.59164  Biso   1.000  H
  H7       1.0000 0.03254  0.62583  0.74169  Biso   1.000  H
  H8       1.0000 0.37417  0.40670  0.74169  Biso   1.000  H
  H9       1.0000 0.59330  0.96746  0.74169  Biso   1.000  H
  H10      1.0000 0.95917  0.69920  0.92497  Biso   1.000  H
  H11      1.0000 0.30080  0.25996  0.92497  Biso   1.000  H
  H12      1.0000 0.74004  0.04083  0.92497  Biso   1.000  H
  H13      1.0000 0.69920  0.95917  0.07503  Biso   1.000  H
  H14      1.0000 0.04083  0.74004  0.07503  Biso   1.000  H
  H15      1.0000 0.25996  0.30080  0.07503  Biso   1.000  H
  H16      1.0000 0.62583  0.03254  0.25831  Biso   1.000  H
  H17      1.0000 0.96746  0.59330  0.25831  Biso   1.000  H
  H18      1.0000 0.40670  0.37417  0.25831  Biso   1.000  H
  H19      1.0000 0.63413  0.70750  0.59164  Biso   1.000  H
  H20      1.0000 0.29250  0.92663  0.59164  Biso   1.000  H
  H21      1.0000 0.07337  0.36587  0.59164  Biso   1.000  H
  H22      1.0000 0.70750  0.63413  0.40836  Biso   1.000  H
  H23      1.0000 0.36587  0.07337  0.40836  Biso   1.000  H
  H24      1.0000 0.92663  0.29250  0.40836  Biso   1.000  H
  H25      1.0000 0.30080  0.04083  0.92497  Biso   1.000  H
  H26      1.0000 0.95917  0.25996  0.92497  Biso   1.000  H
  H27      1.0000 0.74004  0.69920  0.92497  Biso   1.000  H
  H28      1.0000 0.37417  0.96746  0.74169  Biso   1.000  H
  H29      1.0000 0.03254  0.40670  0.74169  Biso   1.000  H
  H30      1.0000 0.59330  0.62583  0.74169  Biso   1.000  H
  H31      1.0000 0.96746  0.37417  0.25831  Biso   1.000  H
  H32      1.0000 0.62583  0.59330  0.25831  Biso   1.000  H
  H33      1.0000 0.40670  0.03254  0.25831  Biso   1.000  H
  H34      1.0000 0.04083  0.30080  0.07503  Biso   1.000  H
  H35      1.0000 0.69920  0.74004  0.07503  Biso   1.000  H
  H36      1.0000 0.25996  0.95917  0.07503  Biso   1.000  H
  C217     1.0000 0.42403  0.27634  0.45453  Biso   1.000  C
  C218     1.0000 0.72366  0.14769  0.45453  Biso   1.000  C
  C219     1.0000 0.85231  0.57597  0.45453  Biso   1.000  C
  C220     1.0000 0.27634  0.42403  0.54547  Biso   1.000  C
  C221     1.0000 0.57597  0.85231  0.54547  Biso   1.000  C
  C222     1.0000 0.14769  0.72366  0.54547  Biso   1.000  C
  C223     1.0000 0.09070  0.60967  0.78786  Biso   1.000  C
  C224     1.0000 0.39033  0.48102  0.78786  Biso   1.000  C
  C225     1.0000 0.51898  0.90930  0.78786  Biso   1.000  C
  C226     1.0000 0.94301  0.75736  0.87880  Biso   1.000  C
  C227     1.0000 0.24264  0.18564  0.87880  Biso   1.000  C
  C228     1.0000 0.81436  0.05699  0.87880  Biso   1.000  C
  C229     1.0000 0.75736  0.94301  0.12120  Biso   1.000  C
  C230     1.0000 0.05699  0.81436  0.12120  Biso   1.000  C
  C231     1.0000 0.18564  0.24264  0.12120  Biso   1.000  C
  C232     1.0000 0.60967  0.09070  0.21214  Biso   1.000  C
  C233     1.0000 0.90930  0.51898  0.21214  Biso   1.000  C
  C234     1.0000 0.48102  0.39033  0.21214  Biso   1.000  C
  C235     1.0000 0.57597  0.72366  0.54547  Biso   1.000  C
  C236     1.0000 0.27634  0.85231  0.54547  Biso   1.000  C
  C237     1.0000 0.14769  0.42403  0.54547  Biso   1.000  C
  C238     1.0000 0.72366  0.57597  0.45453  Biso   1.000  C
  C239     1.0000 0.42403  0.14769  0.45453  Biso   1.000  C
  C240     1.0000 0.85231  0.27634  0.45453  Biso   1.000  C
  C241     1.0000 0.24264  0.05699  0.87880  Biso   1.000  C
  C242     1.0000 0.94301  0.18564  0.87880  Biso   1.000  C
  C243     1.0000 0.81436  0.75736  0.87880  Biso   1.000  C
  C244     1.0000 0.39033  0.90930  0.78786  Biso   1.000  C
  C245     1.0000 0.09070  0.48102  0.78786  Biso   1.000  C
  C246     1.0000 0.51898  0.60967  0.78786  Biso   1.000  C
  C247     1.0000 0.90930  0.39033  0.21214  Biso   1.000  C
  C248     1.0000 0.60967  0.51898  0.21214  Biso   1.000  C
  C249     1.0000 0.48102  0.09070  0.21214  Biso   1.000  C
  C250     1.0000 0.05699  0.24264  0.12120  Biso   1.000  C
  C251     1.0000 0.75736  0.81436  0.12120  Biso   1.000  C
  C252     1.0000 0.18564  0.94301  0.12120  Biso   1.000  C
  C253     1.0000 0.44370  0.22183  0.47073  Biso   1.000  C
  C254     1.0000 0.77817  0.22187  0.47073  Biso   1.000  C
  C255     1.0000 0.77813  0.55630  0.47073  Biso   1.000  C
  C256     1.0000 0.22183  0.44370  0.52927  Biso   1.000  C
  C257     1.0000 0.55630  0.77813  0.52927  Biso   1.000  C
  C258     1.0000 0.22187  0.77817  0.52927  Biso   1.000  C
  C259     1.0000 0.11037  0.55516  0.80406  Biso   1.000  C
  C260     1.0000 0.44484  0.55520  0.80406  Biso   1.000  C
  C261     1.0000 0.44480  0.88963  0.80406  Biso   1.000  C
  C262     1.0000 0.88850  0.77703  0.86260  Biso   1.000  C
  C263     1.0000 0.22297  0.11146  0.86260  Biso   1.000  C
  C264     1.0000 0.88854  0.11150  0.86260  Biso   1.000  C
  C265     1.0000 0.77703  0.88850  0.13740  Biso   1.000  C
  C266     1.0000 0.11150  0.88854  0.13740  Biso   1.000  C
  C267     1.0000 0.11146  0.22297  0.13740  Biso   1.000  C
  C268     1.0000 0.55516  0.11037  0.19594  Biso   1.000  C
  C269     1.0000 0.88963  0.44480  0.19594  Biso   1.000  C
  C270     1.0000 0.55520  0.44484  0.19594  Biso   1.000  C
  H37      1.0000 0.47466  0.23743  0.49371  Biso   1.000  H
  H38      1.0000 0.76257  0.23723  0.49371  Biso   1.000  H
  H39      1.0000 0.76277  0.52534  0.49371  Biso   1.000  H
  H40      1.0000 0.23743  0.47466  0.50629  Biso   1.000  H
  H41      1.0000 0.52534  0.76277  0.50629  Biso   1.000  H
  H42      1.0000 0.23723  0.76257  0.50629  Biso   1.000  H
  H43      1.0000 0.14133  0.57076  0.82704  Biso   1.000  H
  H44      1.0000 0.42924  0.57056  0.82704  Biso   1.000  H
  H45      1.0000 0.42944  0.85867  0.82704  Biso   1.000  H
  H46      1.0000 0.90410  0.80799  0.83962  Biso   1.000  H
  H47      1.0000 0.19201  0.09610  0.83962  Biso   1.000  H
  H48      1.0000 0.90390  0.09590  0.83962  Biso   1.000  H
  H49      1.0000 0.80799  0.90410  0.16038  Biso   1.000  H
  H50      1.0000 0.09590  0.90390  0.16038  Biso   1.000  H
  H51      1.0000 0.09610  0.19201  0.16038  Biso   1.000  H
  H52      1.0000 0.57076  0.14133  0.17296  Biso   1.000  H
  H53      1.0000 0.85867  0.42944  0.17296  Biso   1.000  H
  H54      1.0000 0.57056  0.42924  0.17296  Biso   1.000  H
  C271     1.0000 0.44878  0.35628  0.47333  Biso   1.000  C
  C272     1.0000 0.64372  0.09250  0.47333  Biso   1.000  C
  C273     1.0000 0.90750  0.55122  0.47333  Biso   1.000  C
  C274     1.0000 0.35628  0.44878  0.52667  Biso   1.000  C
  C275     1.0000 0.55122  0.90750  0.52667  Biso   1.000  C
  C276     1.0000 0.09250  0.64372  0.52667  Biso   1.000  C
  C277     1.0000 0.11545  0.68961  0.80666  Biso   1.000  C
  C278     1.0000 0.31039  0.42583  0.80666  Biso   1.000  C
  C279     1.0000 0.57417  0.88455  0.80666  Biso   1.000  C
  C280     1.0000 0.02295  0.78211  0.86000  Biso   1.000  C
  C281     1.0000 0.21789  0.24083  0.86000  Biso   1.000  C
  C282     1.0000 0.75917  0.97705  0.86000  Biso   1.000  C
  C283     1.0000 0.78211  0.02295  0.14000  Biso   1.000  C
  C284     1.0000 0.97705  0.75917  0.14000  Biso   1.000  C
  C285     1.0000 0.24083  0.21789  0.14000  Biso   1.000  C
  C286     1.0000 0.68961  0.11545  0.19334  Biso   1.000  C
  C287     1.0000 0.88455  0.57417  0.19334  Biso   1.000  C
  C288     1.0000 0.42583  0.31039  0.19334  Biso   1.000  C
  C289     1.0000 0.55122  0.64372  0.52667  Biso   1.000  C
  C290     1.0000 0.35628  0.90750  0.52667  Biso   1.000  C
  C291     1.0000 0.09250  0.44878  0.52667  Biso   1.000  C
  C292     1.0000 0.64372  0.55122  0.47333  Biso   1.000  C
  C293     1.0000 0.44878  0.09250  0.47333  Biso   1.000  C
  C294     1.0000 0.90750  0.35628  0.47333  Biso   1.000  C
  C295     1.0000 0.21789  0.97705  0.86000  Biso   1.000  C
  C296     1.0000 0.02295  0.24083  0.86000  Biso   1.000  C
  C297     1.0000 0.75917  0.78211  0.86000  Biso   1.000  C
  C298     1.0000 0.31039  0.88455  0.80666  Biso   1.000  C
  C299     1.0000 0.11545  0.42583  0.80666  Biso   1.000  C
  C300     1.0000 0.57417  0.68961  0.80666  Biso   1.000  C
  C301     1.0000 0.88455  0.31039  0.19334  Biso   1.000  C
  C302     1.0000 0.68961  0.57417  0.19334  Biso   1.000  C
  C303     1.0000 0.42583  0.11545  0.19334  Biso   1.000  C
  C304     1.0000 0.97705  0.21789  0.14000  Biso   1.000  C
  C305     1.0000 0.78211  0.75917  0.14000  Biso   1.000  C
  C306     1.0000 0.24083  0.02295  0.14000  Biso   1.000  C
  Cu1      1.0000 0.00000  0.00000  0.30127  Biso   1.000  Cu
  Cu2      1.0000 0.00000  0.00000  0.69873  Biso   1.000  Cu
  Cu3      1.0000 0.66667  0.33333  0.63460  Biso   1.000  Cu
  Cu4      1.0000 0.66667  0.33333  0.03206  Biso   1.000  Cu
  Cu5      1.0000 0.33333  0.66667  0.96794  Biso   1.000  Cu
  Cu6      1.0000 0.33333  0.66667  0.36540  Biso   1.000  Cu
  Cu7      1.0000 0.28735  0.14367  0.19726  Biso   1.000  Cu
  Cu8      1.0000 0.85633  0.14368  0.19726  Biso   1.000  Cu
  Cu9      1.0000 0.85632  0.71265  0.19726  Biso   1.000  Cu
  Cu10     1.0000 0.14367  0.28735  0.80274  Biso   1.000  Cu
  Cu11     1.0000 0.71265  0.85632  0.80274  Biso   1.000  Cu
  Cu12     1.0000 0.14368  0.85633  0.80274  Biso   1.000  Cu
  Cu13     1.0000 0.95402  0.47700  0.53059  Biso   1.000  Cu
  Cu14     1.0000 0.52300  0.47701  0.53059  Biso   1.000  Cu
  Cu15     1.0000 0.52299  0.04598  0.53059  Biso   1.000  Cu
  Cu16     1.0000 0.81034  0.62068  0.13607  Biso   1.000  Cu
  Cu17     1.0000 0.37932  0.18965  0.13607  Biso   1.000  Cu
  Cu18     1.0000 0.81035  0.18966  0.13607  Biso   1.000  Cu
  Cu19     1.0000 0.62068  0.81034  0.86393  Biso   1.000  Cu
  Cu20     1.0000 0.18966  0.81035  0.86393  Biso   1.000  Cu
  Cu21     1.0000 0.18965  0.37932  0.86393  Biso   1.000  Cu
  Cu22     1.0000 0.47700  0.95402  0.46941  Biso   1.000  Cu
  Cu23     1.0000 0.04598  0.52299  0.46941  Biso   1.000  Cu
  Cu24     1.0000 0.47701  0.52300  0.46941  Biso   1.000  Cu
  N1       1.0000 0.22970  0.11487  0.25005  Biso   1.000  N
  N2       1.0000 0.88513  0.11483  0.25005  Biso   1.000  N
  N3       1.0000 0.88517  0.77030  0.25005  Biso   1.000  N
  N4       1.0000 0.11487  0.22970  0.74995  Biso   1.000  N
  N5       1.0000 0.77030  0.88517  0.74995  Biso   1.000  N
  N6       1.0000 0.11483  0.88513  0.74995  Biso   1.000  N
  N7       1.0000 0.89637  0.44820  0.58338  Biso   1.000  N
  N8       1.0000 0.55180  0.44816  0.58338  Biso   1.000  N
  N9       1.0000 0.55184  0.10363  0.58338  Biso   1.000  N
  N10      1.0000 0.78154  0.56303  0.08328  Biso   1.000  N
  N11      1.0000 0.43697  0.21850  0.08328  Biso   1.000  N
  N12      1.0000 0.78150  0.21846  0.08328  Biso   1.000  N
  N13      1.0000 0.56303  0.78154  0.91672  Biso   1.000  N
  N14      1.0000 0.21846  0.78150  0.91672  Biso   1.000  N
  N15      1.0000 0.21850  0.43697  0.91672  Biso   1.000  N
  N16      1.0000 0.44820  0.89637  0.41662  Biso   1.000  N
  N17      1.0000 0.10363  0.55184  0.41662  Biso   1.000  N
  N18      1.0000 0.44816  0.55180  0.41662  Biso   1.000  N
  N19      1.0000 0.12110  0.05110  0.29196  Biso   1.000  N
  N20      1.0000 0.94890  0.07000  0.29196  Biso   1.000  N
  N21      1.0000 0.93000  0.87890  0.29196  Biso   1.000  N
  N22      1.0000 0.05110  0.12110  0.70804  Biso   1.000  N
  N23      1.0000 0.87890  0.93000  0.70804  Biso   1.000  N
  N24      1.0000 0.07000  0.94890  0.70804  Biso   1.000  N
  N25      1.0000 0.78777  0.38443  0.62529  Biso   1.000  N
  N26      1.0000 0.61557  0.40333  0.62529  Biso   1.000  N
  N27      1.0000 0.59667  0.21223  0.62529  Biso   1.000  N
  N28      1.0000 0.71777  0.45443  0.04137  Biso   1.000  N
  N29      1.0000 0.54557  0.26333  0.04137  Biso   1.000  N
  N30      1.0000 0.73667  0.28223  0.04137  Biso   1.000  N
  N31      1.0000 0.45443  0.71777  0.95863  Biso   1.000  N
  N32      1.0000 0.28223  0.73667  0.95863  Biso   1.000  N
  N33      1.0000 0.26333  0.54557  0.95863  Biso   1.000  N
  N34      1.0000 0.38443  0.78777  0.37471  Biso   1.000  N
  N35      1.0000 0.21223  0.59667  0.37471  Biso   1.000  N
  N36      1.0000 0.40333  0.61557  0.37471  Biso   1.000  N
  N37      1.0000 0.87890  0.94890  0.70804  Biso   1.000  N
  N38      1.0000 0.05110  0.93000  0.70804  Biso   1.000  N
  N39      1.0000 0.07000  0.12110  0.70804  Biso   1.000  N
  N40      1.0000 0.94890  0.87890  0.29196  Biso   1.000  N
  N41      1.0000 0.12110  0.07000  0.29196  Biso   1.000  N
  N42      1.0000 0.93000  0.05110  0.29196  Biso   1.000  N
  N43      1.0000 0.54557  0.28223  0.04137  Biso   1.000  N
  N44      1.0000 0.71777  0.26333  0.04137  Biso   1.000  N
  N45      1.0000 0.73667  0.45443  0.04137  Biso   1.000  N
  N46      1.0000 0.61557  0.21223  0.62529  Biso   1.000  N
  N47      1.0000 0.78777  0.40333  0.62529  Biso   1.000  N
  N48      1.0000 0.59667  0.38443  0.62529  Biso   1.000  N
  N49      1.0000 0.21223  0.61557  0.37471  Biso   1.000  N
  N50      1.0000 0.38443  0.59667  0.37471  Biso   1.000  N
  N51      1.0000 0.40333  0.78777  0.37471  Biso   1.000  N
  N52      1.0000 0.28223  0.54557  0.95863  Biso   1.000  N
  N53      1.0000 0.45443  0.73667  0.95863  Biso   1.000  N
  N54      1.0000 0.26333  0.71777  0.95863  Biso   1.000  N
  N55      1.0000 0.32197  0.16099  0.36619  Biso   1.000  N
  N56      1.0000 0.83901  0.16098  0.36619  Biso   1.000  N
  N57      1.0000 0.83902  0.67803  0.36619  Biso   1.000  N
  N58      1.0000 0.16099  0.32197  0.63381  Biso   1.000  N
  N59      1.0000 0.67803  0.83902  0.63381  Biso   1.000  N
  N60      1.0000 0.16098  0.83901  0.63381  Biso   1.000  N
  N61      1.0000 0.98864  0.49432  0.69952  Biso   1.000  N
  N62      1.0000 0.50568  0.49431  0.69952  Biso   1.000  N
  N63      1.0000 0.50569  0.01136  0.69952  Biso   1.000  N
  N64      1.0000 0.82766  0.65530  0.96714  Biso   1.000  N
  N65      1.0000 0.34470  0.17235  0.96714  Biso   1.000  N
  N66      1.0000 0.82765  0.17234  0.96714  Biso   1.000  N
  N67      1.0000 0.65530  0.82766  0.03286  Biso   1.000  N
  N68      1.0000 0.17234  0.82765  0.03286  Biso   1.000  N
  N69      1.0000 0.17235  0.34470  0.03286  Biso   1.000  N
  N70      1.0000 0.49432  0.98864  0.30048  Biso   1.000  N
  N71      1.0000 0.01136  0.50569  0.30048  Biso   1.000  N
  N72      1.0000 0.49431  0.50568  0.30048  Biso   1.000  N
  O1       1.0000 0.48119  0.36989  0.50517  Biso   1.000  O
  O2       1.0000 0.63011  0.11130  0.50517  Biso   1.000  O
  O3       1.0000 0.88870  0.51881  0.50517  Biso   1.000  O
  O4       1.0000 0.36989  0.48119  0.49483  Biso   1.000  O
  O5       1.0000 0.51881  0.88870  0.49483  Biso   1.000  O
  O6       1.0000 0.11130  0.63011  0.49483  Biso   1.000  O
  O7       1.0000 0.14786  0.70322  0.83850  Biso   1.000  O
  O8       1.0000 0.29678  0.44463  0.83850  Biso   1.000  O
  O9       1.0000 0.55537  0.85214  0.83850  Biso   1.000  O
  O10      1.0000 0.03656  0.81452  0.82816  Biso   1.000  O
  O11      1.0000 0.18548  0.22203  0.82816  Biso   1.000  O
  O12      1.0000 0.77797  0.96344  0.82816  Biso   1.000  O
  O13      1.0000 0.81452  0.03656  0.17184  Biso   1.000  O
  O14      1.0000 0.96344  0.77797  0.17184  Biso   1.000  O
  O15      1.0000 0.22203  0.18548  0.17184  Biso   1.000  O
  O16      1.0000 0.70322  0.14786  0.16150  Biso   1.000  O
  O17      1.0000 0.85214  0.55537  0.16150  Biso   1.000  O
  O18      1.0000 0.44463  0.29678  0.16150  Biso   1.000  O
  O19      1.0000 0.51881  0.63011  0.49483  Biso   1.000  O
  O20      1.0000 0.36989  0.88870  0.49483  Biso   1.000  O
  O21      1.0000 0.11130  0.48119  0.49483  Biso   1.000  O
  O22      1.0000 0.63011  0.51881  0.50517  Biso   1.000  O
  O23      1.0000 0.48119  0.11130  0.50517  Biso   1.000  O
  O24      1.0000 0.88870  0.36989  0.50517  Biso   1.000  O
  O25      1.0000 0.18548  0.96344  0.82816  Biso   1.000  O
  O26      1.0000 0.03656  0.22203  0.82816  Biso   1.000  O
  O27      1.0000 0.77797  0.81452  0.82816  Biso   1.000  O
  O28      1.0000 0.29678  0.85214  0.83850  Biso   1.000  O
  O29      1.0000 0.14786  0.44463  0.83850  Biso   1.000  O
  O30      1.0000 0.55537  0.70322  0.83850  Biso   1.000  O
  O31      1.0000 0.85214  0.29678  0.16150  Biso   1.000  O
  O32      1.0000 0.70322  0.55537  0.16150  Biso   1.000  O
  O33      1.0000 0.44463  0.14786  0.16150  Biso   1.000  O
  O34      1.0000 0.96344  0.18548  0.17184  Biso   1.000  O
  O35      1.0000 0.81452  0.77797  0.17184  Biso   1.000  O
  O36      1.0000 0.22203  0.03656  0.17184  Biso   1.000  O
  O37      1.0000 0.44141  0.40825  0.45308  Biso   1.000  O
  O38      1.0000 0.59175  0.03316  0.45308  Biso   1.000  O
  O39      1.0000 0.96684  0.55859  0.45308  Biso   1.000  O
  O40      1.0000 0.40825  0.44141  0.54692  Biso   1.000  O
  O41      1.0000 0.55859  0.96684  0.54692  Biso   1.000  O
  O42      1.0000 0.03316  0.59175  0.54692  Biso   1.000  O
  O43      1.0000 0.10808  0.74158  0.78641  Biso   1.000  O
  O44      1.0000 0.25842  0.36649  0.78641  Biso   1.000  O
  O45      1.0000 0.63351  0.89192  0.78641  Biso   1.000  O
  O46      1.0000 0.07492  0.77474  0.88025  Biso   1.000  O
  O47      1.0000 0.22526  0.30017  0.88025  Biso   1.000  O
  O48      1.0000 0.69983  0.92508  0.88025  Biso   1.000  O
  O49      1.0000 0.77474  0.07492  0.11975  Biso   1.000  O
  O50      1.0000 0.92508  0.69983  0.11975  Biso   1.000  O
  O51      1.0000 0.30017  0.22526  0.11975  Biso   1.000  O
  O52      1.0000 0.74158  0.10808  0.21359  Biso   1.000  O
  O53      1.0000 0.89192  0.63351  0.21359  Biso   1.000  O
  O54      1.0000 0.36649  0.25842  0.21359  Biso   1.000  O
  O55      1.0000 0.55859  0.59175  0.54692  Biso   1.000  O
  O56      1.0000 0.40825  0.96684  0.54692  Biso   1.000  O
  O57      1.0000 0.03316  0.44141  0.54692  Biso   1.000  O
  O58      1.0000 0.59175  0.55859  0.45308  Biso   1.000  O
  O59      1.0000 0.44141  0.03316  0.45308  Biso   1.000  O
  O60      1.0000 0.96684  0.40825  0.45308  Biso   1.000  O
  O61      1.0000 0.22526  0.92508  0.88025  Biso   1.000  O
  O62      1.0000 0.07492  0.30017  0.88025  Biso   1.000  O
  O63      1.0000 0.69983  0.77474  0.88025  Biso   1.000  O
  O64      1.0000 0.25842  0.89192  0.78641  Biso   1.000  O
  O65      1.0000 0.10808  0.36649  0.78641  Biso   1.000  O
  O66      1.0000 0.63351  0.74158  0.78641  Biso   1.000  O
  O67      1.0000 0.89192  0.25842  0.21359  Biso   1.000  O
  O68      1.0000 0.74158  0.63351  0.21359  Biso   1.000  O
  O69      1.0000 0.36649  0.10808  0.21359  Biso   1.000  O
  O70      1.0000 0.92508  0.22526  0.11975  Biso   1.000  O
  O71      1.0000 0.77474  0.69983  0.11975  Biso   1.000  O
  O72      1.0000 0.30017  0.07492  0.11975  Biso   1.000  O
  O73      1.0000 0.32210  0.04140  0.35754  Biso   1.000  O
  O74      1.0000 0.95860  0.28070  0.35754  Biso   1.000  O
  O75      1.0000 0.71930  0.67790  0.35754  Biso   1.000  O
  O76      1.0000 0.04140  0.32210  0.64246  Biso   1.000  O
  O77      1.0000 0.67790  0.71930  0.64246  Biso   1.000  O
  O78      1.0000 0.28070  0.95860  0.64246  Biso   1.000  O
  O79      1.0000 0.98877  0.37473  0.69087  Biso   1.000  O
  O80      1.0000 0.62527  0.61403  0.69087  Biso   1.000  O
  O81      1.0000 0.38597  0.01123  0.69087  Biso   1.000  O
  O82      1.0000 0.70807  0.65543  0.97579  Biso   1.000  O
  O83      1.0000 0.34457  0.05263  0.97579  Biso   1.000  O
  O84      1.0000 0.94737  0.29193  0.97579  Biso   1.000  O
  O85      1.0000 0.65543  0.70807  0.02421  Biso   1.000  O
  O86      1.0000 0.29193  0.94737  0.02421  Biso   1.000  O
  O87      1.0000 0.05263  0.34457  0.02421  Biso   1.000  O
  O88      1.0000 0.37473  0.98877  0.30913  Biso   1.000  O
  O89      1.0000 0.01123  0.38597  0.30913  Biso   1.000  O
  O90      1.0000 0.61403  0.62527  0.30913  Biso   1.000  O
  O91      1.0000 0.67790  0.95860  0.64246  Biso   1.000  O
  O92      1.0000 0.04140  0.71930  0.64246  Biso   1.000  O
  O93      1.0000 0.28070  0.32210  0.64246  Biso   1.000  O
  O94      1.0000 0.95860  0.67790  0.35754  Biso   1.000  O
  O95      1.0000 0.32210  0.28070  0.35754  Biso   1.000  O
  O96      1.0000 0.71930  0.04140  0.35754  Biso   1.000  O
  O97      1.0000 0.34457  0.29193  0.97579  Biso   1.000  O
  O98      1.0000 0.70807  0.05263  0.97579  Biso   1.000  O
  O99      1.0000 0.94737  0.65543  0.97579  Biso   1.000  O
  O100     1.0000 0.62527  0.01123  0.69087  Biso   1.000  O
  O101     1.0000 0.98877  0.61403  0.69087  Biso   1.000  O
  O102     1.0000 0.38597  0.37473  0.69087  Biso   1.000  O
  O103     1.0000 0.01123  0.62527  0.30913  Biso   1.000  O
  O104     1.0000 0.37473  0.38597  0.30913  Biso   1.000  O
  O105     1.0000 0.61403  0.98877  0.30913  Biso   1.000  O
  O106     1.0000 0.29193  0.34457  0.02421  Biso   1.000  O
  O107     1.0000 0.65543  0.94737  0.02421  Biso   1.000  O
  O108     1.0000 0.05263  0.70807  0.02421  Biso   1.000  O
  O109     1.0000 0.00000  0.00000  0.36478  Biso   1.000  O
  O110     1.0000 0.00000  0.00000  0.63522  Biso   1.000  O
  O111     1.0000 0.66667  0.33333  0.69811  Biso   1.000  O
  O112     1.0000 0.66667  0.33333  0.96855  Biso   1.000  O
  O113     1.0000 0.33333  0.66667  0.03145  Biso   1.000  O
  O114     1.0000 0.33333  0.66667  0.30189  Biso   1.000  O
  H55      1.0000 0.00891  0.05231  0.37381  Biso   1.000  H
  H56      1.0000 0.94769  0.95660  0.37381  Biso   1.000  H
  H57      1.0000 0.04340  0.99109  0.37381  Biso   1.000  H
  H58      1.0000 0.05231  0.00891  0.62619  Biso   1.000  H
  H59      1.0000 0.99109  0.04340  0.62619  Biso   1.000  H
  H60      1.0000 0.95660  0.94769  0.62619  Biso   1.000  H
  H61      1.0000 0.67558  0.38564  0.70714  Biso   1.000  H
  H62      1.0000 0.61436  0.28993  0.70714  Biso   1.000  H
  H63      1.0000 0.71007  0.32442  0.70714  Biso   1.000  H
  H64      1.0000 0.71898  0.34224  0.95952  Biso   1.000  H
  H65      1.0000 0.65776  0.37673  0.95952  Biso   1.000  H
  H66      1.0000 0.62327  0.28102  0.95952  Biso   1.000  H
  H67      1.0000 0.34224  0.71898  0.04048  Biso   1.000  H
  H68      1.0000 0.28102  0.62327  0.04048  Biso   1.000  H
  H69      1.0000 0.37673  0.65776  0.04048  Biso   1.000  H
  H70      1.0000 0.38564  0.67558  0.29286  Biso   1.000  H
  H71      1.0000 0.32442  0.71007  0.29286  Biso   1.000  H
  H72      1.0000 0.28993  0.61436  0.29286  Biso   1.000  H
  H73      1.0000 0.99109  0.94769  0.62619  Biso   1.000  H
  H74      1.0000 0.05231  0.04340  0.62619  Biso   1.000  H
  H75      1.0000 0.95660  0.00891  0.62619  Biso   1.000  H
  H76      1.0000 0.94769  0.99109  0.37381  Biso   1.000  H
  H77      1.0000 0.00891  0.95660  0.37381  Biso   1.000  H
  H78      1.0000 0.04340  0.05231  0.37381  Biso   1.000  H
  H79      1.0000 0.65776  0.28102  0.95952  Biso   1.000  H
  H80      1.0000 0.71898  0.37673  0.95952  Biso   1.000  H
  H81      1.0000 0.62327  0.34224  0.95952  Biso   1.000  H
  H82      1.0000 0.61436  0.32442  0.70714  Biso   1.000  H
  H83      1.0000 0.67558  0.28993  0.70714  Biso   1.000  H
  H84      1.0000 0.71007  0.38564  0.70714  Biso   1.000  H
  H85      1.0000 0.32442  0.61436  0.29286  Biso   1.000  H
  H86      1.0000 0.38564  0.71007  0.29286  Biso   1.000  H
  H87      1.0000 0.28993  0.67558  0.29286  Biso   1.000  H
  H88      1.0000 0.28102  0.65776  0.04048  Biso   1.000  H
  H89      1.0000 0.34224  0.62327  0.04048  Biso   1.000  H
  H90      1.0000 0.37673  0.71898  0.04048  Biso   1.000  H
  N73      1.0000 0.20230  0.10117  0.50349  Biso   1.000  N
  N74      1.0000 0.89883  0.10113  0.50349  Biso   1.000  N
  N75      1.0000 0.89887  0.79770  0.50349  Biso   1.000  N
  N76      1.0000 0.10117  0.20230  0.49651  Biso   1.000  N
  N77      1.0000 0.79770  0.89887  0.49651  Biso   1.000  N
  N78      1.0000 0.10113  0.89883  0.49651  Biso   1.000  N
  N79      1.0000 0.86897  0.43450  0.83682  Biso   1.000  N
  N80      1.0000 0.56550  0.43446  0.83682  Biso   1.000  N
  N81      1.0000 0.56554  0.13103  0.83682  Biso   1.000  N
  N82      1.0000 0.76784  0.53563  0.82984  Biso   1.000  N
  N83      1.0000 0.46437  0.23220  0.82984  Biso   1.000  N
  N84      1.0000 0.76780  0.23216  0.82984  Biso   1.000  N
  N85      1.0000 0.53563  0.76784  0.17016  Biso   1.000  N
  N86      1.0000 0.23216  0.76780  0.17016  Biso   1.000  N
  N87      1.0000 0.23220  0.46437  0.17016  Biso   1.000  N
  N88      1.0000 0.43450  0.86897  0.16318  Biso   1.000  N
  N89      1.0000 0.13103  0.56554  0.16318  Biso   1.000  N
  N90      1.0000 0.43446  0.56550  0.16318  Biso   1.000  N
  O115     1.0000 0.14990  0.02940  0.49365  Biso   1.000  O
  O116     1.0000 0.97060  0.12050  0.49365  Biso   1.000  O
  O117     1.0000 0.87950  0.85010  0.49365  Biso   1.000  O
  O118     1.0000 0.02940  0.14990  0.50635  Biso   1.000  O
  O119     1.0000 0.85010  0.87950  0.50635  Biso   1.000  O
  O120     1.0000 0.12050  0.97060  0.50635  Biso   1.000  O
  O121     1.0000 0.81657  0.36273  0.82698  Biso   1.000  O
  O122     1.0000 0.63727  0.45383  0.82698  Biso   1.000  O
  O123     1.0000 0.54617  0.18343  0.82698  Biso   1.000  O
  O124     1.0000 0.69607  0.48323  0.83968  Biso   1.000  O
  O125     1.0000 0.51677  0.21283  0.83968  Biso   1.000  O
  O126     1.0000 0.78717  0.30393  0.83968  Biso   1.000  O
  O127     1.0000 0.48323  0.69607  0.16032  Biso   1.000  O
  O128     1.0000 0.30393  0.78717  0.16032  Biso   1.000  O
  O129     1.0000 0.21283  0.51677  0.16032  Biso   1.000  O
  O130     1.0000 0.36273  0.81657  0.17302  Biso   1.000  O
  O131     1.0000 0.18343  0.54617  0.17302  Biso   1.000  O
  O132     1.0000 0.45383  0.63727  0.17302  Biso   1.000  O
  O133     1.0000 0.85010  0.97060  0.50635  Biso   1.000  O
  O134     1.0000 0.02940  0.87950  0.50635  Biso   1.000  O
  O135     1.0000 0.12050  0.14990  0.50635  Biso   1.000  O
  O136     1.0000 0.97060  0.85010  0.49365  Biso   1.000  O
  O137     1.0000 0.14990  0.12050  0.49365  Biso   1.000  O
  O138     1.0000 0.87950  0.02940  0.49365  Biso   1.000  O
  O139     1.0000 0.51677  0.30393  0.83968  Biso   1.000  O
  O140     1.0000 0.69607  0.21283  0.83968  Biso   1.000  O
  O141     1.0000 0.78717  0.48323  0.83968  Biso   1.000  O
  O142     1.0000 0.63727  0.18343  0.82698  Biso   1.000  O
  O143     1.0000 0.81657  0.45383  0.82698  Biso   1.000  O
  O144     1.0000 0.54617  0.36273  0.82698  Biso   1.000  O
  O145     1.0000 0.18343  0.63727  0.17302  Biso   1.000  O
  O146     1.0000 0.36273  0.54617  0.17302  Biso   1.000  O
  O147     1.0000 0.45383  0.81657  0.17302  Biso   1.000  O
  O148     1.0000 0.30393  0.51677  0.16032  Biso   1.000  O
  O149     1.0000 0.48323  0.78717  0.16032  Biso   1.000  O
  O150     1.0000 0.21283  0.69607  0.16032  Biso   1.000  O
  O151     1.0000 0.22940  0.11468  0.53629  Biso   1.000  O
  O152     1.0000 0.88532  0.11472  0.53629  Biso   1.000  O
  O153     1.0000 0.88528  0.77060  0.53629  Biso   1.000  O
  O154     1.0000 0.11468  0.22940  0.46371  Biso   1.000  O
  O155     1.0000 0.77060  0.88528  0.46371  Biso   1.000  O
  O156     1.0000 0.11472  0.88532  0.46371  Biso   1.000  O
  O157     1.0000 0.89607  0.44801  0.86962  Biso   1.000  O
  O158     1.0000 0.55199  0.44805  0.86962  Biso   1.000  O
  O159     1.0000 0.55195  0.10393  0.86962  Biso   1.000  O
  O160     1.0000 0.78135  0.56273  0.79704  Biso   1.000  O
  O161     1.0000 0.43727  0.21861  0.79704  Biso   1.000  O
  O162     1.0000 0.78139  0.21865  0.79704  Biso   1.000  O
  O163     1.0000 0.56273  0.78135  0.20296  Biso   1.000  O
  O164     1.0000 0.21865  0.78139  0.20296  Biso   1.000  O
  O165     1.0000 0.21861  0.43727  0.20296  Biso   1.000  O
  O166     1.0000 0.44801  0.89607  0.13038  Biso   1.000  O
  O167     1.0000 0.10393  0.55195  0.13038  Biso   1.000  O
  O168     1.0000 0.44805  0.55199  0.13038  Biso   1.000  O
  O169     1.0000 0.22840  0.15830  0.48041  Biso   1.000  O
  O170     1.0000 0.84170  0.07010  0.48041  Biso   1.000  O
  O171     1.0000 0.92990  0.77160  0.48041  Biso   1.000  O
  O172     1.0000 0.15830  0.22840  0.51959  Biso   1.000  O
  O173     1.0000 0.77160  0.92990  0.51959  Biso   1.000  O
  O174     1.0000 0.07010  0.84170  0.51959  Biso   1.000  O
  O175     1.0000 0.89507  0.49163  0.81374  Biso   1.000  O
  O176     1.0000 0.50837  0.40343  0.81374  Biso   1.000  O
  O177     1.0000 0.59657  0.10493  0.81374  Biso   1.000  O
  O178     1.0000 0.82497  0.56173  0.85292  Biso   1.000  O
  O179     1.0000 0.43827  0.26323  0.85292  Biso   1.000  O
  O180     1.0000 0.73677  0.17503  0.85292  Biso   1.000  O
  O181     1.0000 0.56173  0.82497  0.14708  Biso   1.000  O
  O182     1.0000 0.17503  0.73677  0.14708  Biso   1.000  O
  O183     1.0000 0.26323  0.43827  0.14708  Biso   1.000  O
  O184     1.0000 0.49163  0.89507  0.18626  Biso   1.000  O
  O185     1.0000 0.10493  0.59657  0.18626  Biso   1.000  O
  O186     1.0000 0.40343  0.50837  0.18626  Biso   1.000  O
  O187     1.0000 0.77160  0.84170  0.51959  Biso   1.000  O
  O188     1.0000 0.15830  0.92990  0.51959  Biso   1.000  O
  O189     1.0000 0.07010  0.22840  0.51959  Biso   1.000  O
  O190     1.0000 0.84170  0.77160  0.48041  Biso   1.000  O
  O191     1.0000 0.22840  0.07010  0.48041  Biso   1.000  O
  O192     1.0000 0.92990  0.15830  0.48041  Biso   1.000  O
  O193     1.0000 0.43827  0.17503  0.85292  Biso   1.000  O
  O194     1.0000 0.82497  0.26323  0.85292  Biso   1.000  O
  O195     1.0000 0.73677  0.56173  0.85292  Biso   1.000  O
  O196     1.0000 0.50837  0.10493  0.81374  Biso   1.000  O
  O197     1.0000 0.89507  0.40343  0.81374  Biso   1.000  O
  O198     1.0000 0.59657  0.49163  0.81374  Biso   1.000  O
  O199     1.0000 0.10493  0.50837  0.18626  Biso   1.000  O
  O200     1.0000 0.49163  0.59657  0.18626  Biso   1.000  O
  O201     1.0000 0.40343  0.89507  0.18626  Biso   1.000  O
  O202     1.0000 0.17503  0.43827  0.14708  Biso   1.000  O
  O203     1.0000 0.56173  0.73677  0.14708  Biso   1.000  O
  O204     1.0000 0.26323  0.82497  0.14708  Biso   1.000  O
  H91      1.0000 0.30844  0.19709  0.35544  Biso   1.000  H
  H92      1.0000 0.80291  0.11135  0.35544  Biso   1.000  H
  H93      1.0000 0.88865  0.69156  0.35544  Biso   1.000  H
  H94      1.0000 0.19709  0.30844  0.64456  Biso   1.000  H
  H95      1.0000 0.69156  0.88865  0.64456  Biso   1.000  H
  H96      1.0000 0.11135  0.80291  0.64456  Biso   1.000  H
  H97      1.0000 0.97511  0.53042  0.68877  Biso   1.000  H
  H98      1.0000 0.46958  0.44468  0.68877  Biso   1.000  H
  H99      1.0000 0.55532  0.02489  0.68877  Biso   1.000  H
  H100     1.0000 0.86376  0.64177  0.97789  Biso   1.000  H
  H101     1.0000 0.35823  0.22198  0.97789  Biso   1.000  H
  H102     1.0000 0.77802  0.13624  0.97789  Biso   1.000  H
  H103     1.0000 0.64177  0.86376  0.02211  Biso   1.000  H
  H104     1.0000 0.13624  0.77802  0.02211  Biso   1.000  H
  H105     1.0000 0.22198  0.35823  0.02211  Biso   1.000  H
  H106     1.0000 0.53042  0.97511  0.31123  Biso   1.000  H
  H107     1.0000 0.02489  0.55532  0.31123  Biso   1.000  H
  H108     1.0000 0.44468  0.46958  0.31123  Biso   1.000  H
  H109     1.0000 0.69156  0.80291  0.64456  Biso   1.000  H
  H110     1.0000 0.19709  0.88865  0.64456  Biso   1.000  H
  H111     1.0000 0.11135  0.30844  0.64456  Biso   1.000  H
  H112     1.0000 0.80291  0.69156  0.35544  Biso   1.000  H
  H113     1.0000 0.30844  0.11135  0.35544  Biso   1.000  H
  H114     1.0000 0.88865  0.19709  0.35544  Biso   1.000  H
  H115     1.0000 0.35823  0.13624  0.97789  Biso   1.000  H
  H116     1.0000 0.86376  0.22198  0.97789  Biso   1.000  H
  H117     1.0000 0.77802  0.64177  0.97789  Biso   1.000  H
  H118     1.0000 0.46958  0.02489  0.68877  Biso   1.000  H
  H119     1.0000 0.97511  0.44468  0.68877  Biso   1.000  H
  H120     1.0000 0.55532  0.53042  0.68877  Biso   1.000  H
  H121     1.0000 0.02489  0.46958  0.31123  Biso   1.000  H
  H122     1.0000 0.53042  0.55532  0.31123  Biso   1.000  H
  H123     1.0000 0.44468  0.97511  0.31123  Biso   1.000  H
  H124     1.0000 0.13624  0.35823  0.02211  Biso   1.000  H
  H125     1.0000 0.64177  0.77802  0.02211  Biso   1.000  H
  H126     1.0000 0.22198  0.86376  0.02211  Biso   1.000  H
  H127     1.0000 0.11562  0.07363  0.23771  Biso   1.000  H
  H128     1.0000 0.92637  0.04199  0.23771  Biso   1.000  H
  H129     1.0000 0.95801  0.88438  0.23771  Biso   1.000  H
  H130     1.0000 0.07363  0.11562  0.76229  Biso   1.000  H
  H131     1.0000 0.88438  0.95801  0.76229  Biso   1.000  H
  H132     1.0000 0.04199  0.92637  0.76229  Biso   1.000  H
  H133     1.0000 0.78229  0.40696  0.57104  Biso   1.000  H
  H134     1.0000 0.59304  0.37532  0.57104  Biso   1.000  H
  H135     1.0000 0.62468  0.21771  0.57104  Biso   1.000  H
  H136     1.0000 0.74030  0.44895  0.09562  Biso   1.000  H
  H137     1.0000 0.55105  0.29134  0.09562  Biso   1.000  H
  H138     1.0000 0.70866  0.25970  0.09562  Biso   1.000  H
  H139     1.0000 0.44895  0.74030  0.90438  Biso   1.000  H
  H140     1.0000 0.25970  0.70866  0.90438  Biso   1.000  H
  H141     1.0000 0.29134  0.55105  0.90438  Biso   1.000  H
  H142     1.0000 0.40696  0.78229  0.42896  Biso   1.000  H
  H143     1.0000 0.21771  0.62468  0.42896  Biso   1.000  H
  H144     1.0000 0.37532  0.59304  0.42896  Biso   1.000  H
  H145     1.0000 0.88438  0.92637  0.76229  Biso   1.000  H
  H146     1.0000 0.07363  0.95801  0.76229  Biso   1.000  H
  H147     1.0000 0.04199  0.11562  0.76229  Biso   1.000  H
  H148     1.0000 0.92637  0.88438  0.23771  Biso   1.000  H
  H149     1.0000 0.11562  0.04199  0.23771  Biso   1.000  H
  H150     1.0000 0.95801  0.07363  0.23771  Biso   1.000  H
  H151     1.0000 0.55105  0.25970  0.09562  Biso   1.000  H
  H152     1.0000 0.74030  0.29134  0.09562  Biso   1.000  H
  H153     1.0000 0.70866  0.44895  0.09562  Biso   1.000  H
  H154     1.0000 0.59304  0.21771  0.57104  Biso   1.000  H
  H155     1.0000 0.78229  0.37532  0.57104  Biso   1.000  H
  H156     1.0000 0.62468  0.40696  0.57104  Biso   1.000  H
  H157     1.0000 0.21771  0.59304  0.42896  Biso   1.000  H
  H158     1.0000 0.40696  0.62468  0.42896  Biso   1.000  H
  H159     1.0000 0.37532  0.78229  0.42896  Biso   1.000  H
  H160     1.0000 0.25970  0.55105  0.90438  Biso   1.000  H
  H161     1.0000 0.44895  0.70866  0.90438  Biso   1.000  H
  H162     1.0000 0.29134  0.74030  0.90438  Biso   1.000  H
  H163     1.0000 0.15228  0.04054  0.34692  Biso   1.000  H
  H164     1.0000 0.95946  0.11174  0.34692  Biso   1.000  H
  H165     1.0000 0.88826  0.84772  0.34692  Biso   1.000  H
  H166     1.0000 0.04054  0.15228  0.65308  Biso   1.000  H
  H167     1.0000 0.84772  0.88826  0.65308  Biso   1.000  H
  H168     1.0000 0.11174  0.95946  0.65308  Biso   1.000  H
  H169     1.0000 0.81895  0.37387  0.68025  Biso   1.000  H
  H170     1.0000 0.62613  0.44507  0.68025  Biso   1.000  H
  H171     1.0000 0.55493  0.18105  0.68025  Biso   1.000  H
  H172     1.0000 0.70721  0.48561  0.98641  Biso   1.000  H
  H173     1.0000 0.51439  0.22159  0.98641  Biso   1.000  H
  H174     1.0000 0.77841  0.29279  0.98641  Biso   1.000  H
  H175     1.0000 0.48561  0.70721  0.01359  Biso   1.000  H
  H176     1.0000 0.29279  0.77841  0.01359  Biso   1.000  H
  H177     1.0000 0.22159  0.51439  0.01359  Biso   1.000  H
  H178     1.0000 0.37387  0.81895  0.31975  Biso   1.000  H
  H179     1.0000 0.18105  0.55493  0.31975  Biso   1.000  H
  H180     1.0000 0.44507  0.62613  0.31975  Biso   1.000  H
  H181     1.0000 0.84772  0.95946  0.65308  Biso   1.000  H
  H182     1.0000 0.04054  0.88826  0.65308  Biso   1.000  H
  H183     1.0000 0.11174  0.15228  0.65308  Biso   1.000  H
  H184     1.0000 0.95946  0.84772  0.34692  Biso   1.000  H
  H185     1.0000 0.15228  0.11174  0.34692  Biso   1.000  H
  H186     1.0000 0.88826  0.04054  0.34692  Biso   1.000  H
  H187     1.0000 0.51439  0.29279  0.98641  Biso   1.000  H
  H188     1.0000 0.70721  0.22159  0.98641  Biso   1.000  H
  H189     1.0000 0.77841  0.48561  0.98641  Biso   1.000  H
  H190     1.0000 0.62613  0.18105  0.68025  Biso   1.000  H
  H191     1.0000 0.81895  0.44507  0.68025  Biso   1.000  H
  H192     1.0000 0.55493  0.37387  0.68025  Biso   1.000  H
  H193     1.0000 0.18105  0.62613  0.31975  Biso   1.000  H
  H194     1.0000 0.37387  0.55493  0.31975  Biso   1.000  H
  H195     1.0000 0.44507  0.81895  0.31975  Biso   1.000  H
  H196     1.0000 0.29279  0.51439  0.01359  Biso   1.000  H
  H197     1.0000 0.48561  0.77841  0.01359  Biso   1.000  H
  H198     1.0000 0.22159  0.70721  0.01359  Biso   1.000  H
  H199     1.0000 0.34155  0.13922  0.27451  Biso   1.000  H
  H200     1.0000 0.86078  0.20233  0.27451  Biso   1.000  H
  H201     1.0000 0.79767  0.65845  0.27451  Biso   1.000  H
  H202     1.0000 0.13922  0.34155  0.72549  Biso   1.000  H
  H203     1.0000 0.65845  0.79767  0.72549  Biso   1.000  H
  H204     1.0000 0.20233  0.86078  0.72549  Biso   1.000  H
  H205     1.0000 0.00822  0.47255  0.60784  Biso   1.000  H
  H206     1.0000 0.52745  0.53566  0.60784  Biso   1.000  H
  H207     1.0000 0.46434  0.99178  0.60784  Biso   1.000  H
  H208     1.0000 0.80589  0.67488  0.05882  Biso   1.000  H
  H209     1.0000 0.32512  0.13100  0.05882  Biso   1.000  H
  H210     1.0000 0.86900  0.19411  0.05882  Biso   1.000  H
  H211     1.0000 0.67488  0.80589  0.94118  Biso   1.000  H
  H212     1.0000 0.19411  0.86900  0.94118  Biso   1.000  H
  H213     1.0000 0.13100  0.32512  0.94118  Biso   1.000  H
  H214     1.0000 0.47255  0.00822  0.39216  Biso   1.000  H
  H215     1.0000 0.99178  0.46434  0.39216  Biso   1.000  H
  H216     1.0000 0.53566  0.52745  0.39216  Biso   1.000  H
  H217     1.0000 0.65845  0.86078  0.72549  Biso   1.000  H
  H218     1.0000 0.13922  0.79767  0.72549  Biso   1.000  H
  H219     1.0000 0.20233  0.34155  0.72549  Biso   1.000  H
  H220     1.0000 0.86078  0.65845  0.27451  Biso   1.000  H
  H221     1.0000 0.34155  0.20233  0.27451  Biso   1.000  H
  H222     1.0000 0.79767  0.13922  0.27451  Biso   1.000  H
  H223     1.0000 0.32512  0.19411  0.05882  Biso   1.000  H
  H224     1.0000 0.80589  0.13100  0.05882  Biso   1.000  H
  H225     1.0000 0.86900  0.67488  0.05882  Biso   1.000  H
  H226     1.0000 0.52745  0.99178  0.60784  Biso   1.000  H
  H227     1.0000 0.00822  0.53566  0.60784  Biso   1.000  H
  H228     1.0000 0.46434  0.47255  0.60784  Biso   1.000  H
  H229     1.0000 0.99178  0.52745  0.39216  Biso   1.000  H
  H230     1.0000 0.47255  0.46434  0.39216  Biso   1.000  H
  H231     1.0000 0.53566  0.00822  0.39216  Biso   1.000  H
  H232     1.0000 0.19411  0.32512  0.94118  Biso   1.000  H
  H233     1.0000 0.67488  0.86900  0.94118  Biso   1.000  H
  H234     1.0000 0.13100  0.80589  0.94118  Biso   1.000  H
