data_image0
_cell_length_a       19.1165
_cell_length_b       16.6111
_cell_length_c       28.7154
_cell_angle_alpha    90
_cell_angle_beta     90
_cell_angle_gamma    90

_symmetry_space_group_name_H-M    "P 1"
_symmetry_int_tables_number       1

loop_
  _symmetry_equiv_pos_as_xyz
  'x, y, z'

loop_
  _atom_site_label
  _atom_site_occupancy
  _atom_site_fract_x
  _atom_site_fract_y
  _atom_site_fract_z
  _atom_site_thermal_displace_type
  _atom_site_B_iso_or_equiv
  _atom_site_type_symbol
  Cu1      1.0000 0.13739  0.29873  0.26011  Biso   1.000  Cu
  Cu2      1.0000 0.36261  0.70127  0.76011  Biso   1.000  Cu
  Cu3      1.0000 0.86261  0.79873  0.23989  Biso   1.000  Cu
  Cu4      1.0000 0.63739  0.20127  0.73989  Biso   1.000  Cu
  Cu5      1.0000 0.86261  0.70127  0.73989  Biso   1.000  Cu
  Cu6      1.0000 0.63739  0.29873  0.23989  Biso   1.000  Cu
  Cu7      1.0000 0.13739  0.20127  0.76011  Biso   1.000  Cu
  Cu8      1.0000 0.36261  0.79873  0.26011  Biso   1.000  Cu
  S1       1.0000 0.77959  0.42996  0.39878  Biso   1.000  S
  S2       1.0000 0.72041  0.57004  0.89878  Biso   1.000  S
  S3       1.0000 0.22041  0.92996  0.10122  Biso   1.000  S
  S4       1.0000 0.27959  0.07004  0.60122  Biso   1.000  S
  S5       1.0000 0.22041  0.57004  0.60122  Biso   1.000  S
  S6       1.0000 0.27959  0.42996  0.10122  Biso   1.000  S
  S7       1.0000 0.77959  0.07004  0.89878  Biso   1.000  S
  S8       1.0000 0.72041  0.92996  0.39878  Biso   1.000  S
  S9       1.0000 0.08499  0.31374  0.40917  Biso   1.000  S
  S10      1.0000 0.41501  0.68626  0.90917  Biso   1.000  S
  S11      1.0000 0.91501  0.81374  0.09083  Biso   1.000  S
  S12      1.0000 0.58499  0.18626  0.59083  Biso   1.000  S
  S13      1.0000 0.91501  0.68626  0.59083  Biso   1.000  S
  S14      1.0000 0.58499  0.31374  0.09083  Biso   1.000  S
  S15      1.0000 0.08499  0.18626  0.90917  Biso   1.000  S
  S16      1.0000 0.41501  0.81374  0.40917  Biso   1.000  S
  C1       1.0000 0.67080  0.35060  0.33260  Biso   1.000  C
  C2       1.0000 0.82920  0.64940  0.83260  Biso   1.000  C
  C3       1.0000 0.32920  0.85060  0.16740  Biso   1.000  C
  C4       1.0000 0.17080  0.14940  0.66740  Biso   1.000  C
  C5       1.0000 0.32920  0.64940  0.66740  Biso   1.000  C
  C6       1.0000 0.17080  0.35060  0.16740  Biso   1.000  C
  C7       1.0000 0.67080  0.14940  0.83260  Biso   1.000  C
  C8       1.0000 0.82920  0.85060  0.33260  Biso   1.000  C
  C9       1.0000 0.64670  0.37230  0.38088  Biso   1.000  C
  C10      1.0000 0.85330  0.62770  0.88088  Biso   1.000  C
  C11      1.0000 0.35330  0.87230  0.11912  Biso   1.000  C
  C12      1.0000 0.14670  0.12770  0.61912  Biso   1.000  C
  C13      1.0000 0.35330  0.62770  0.61912  Biso   1.000  C
  C14      1.0000 0.14670  0.37230  0.11912  Biso   1.000  C
  C15      1.0000 0.64670  0.12770  0.88088  Biso   1.000  C
  C16      1.0000 0.85330  0.87230  0.38088  Biso   1.000  C
  C17      1.0000 0.57840  0.35490  0.39380  Biso   1.000  C
  C18      1.0000 0.92160  0.64510  0.89380  Biso   1.000  C
  C19      1.0000 0.42160  0.85490  0.10620  Biso   1.000  C
  C20      1.0000 0.07840  0.14510  0.60620  Biso   1.000  C
  C21      1.0000 0.42160  0.64510  0.60620  Biso   1.000  C
  C22      1.0000 0.07840  0.35490  0.10620  Biso   1.000  C
  C23      1.0000 0.57840  0.14510  0.89380  Biso   1.000  C
  C24      1.0000 0.92160  0.85490  0.39380  Biso   1.000  C
  H1       1.0000 0.54890  0.32990  0.37250  Biso   1.000  H
  H2       1.0000 0.95110  0.67010  0.87250  Biso   1.000  H
  H3       1.0000 0.45110  0.82990  0.12750  Biso   1.000  H
  H4       1.0000 0.04890  0.17010  0.62750  Biso   1.000  H
  H5       1.0000 0.45110  0.67010  0.62750  Biso   1.000  H
  H6       1.0000 0.04890  0.32990  0.12750  Biso   1.000  H
  H7       1.0000 0.54890  0.17010  0.87250  Biso   1.000  H
  H8       1.0000 0.95110  0.82990  0.37250  Biso   1.000  H
  C25      1.0000 0.55300  0.37360  0.43750  Biso   1.000  C
  C26      1.0000 0.94700  0.62640  0.93750  Biso   1.000  C
  C27      1.0000 0.44700  0.87360  0.06250  Biso   1.000  C
  C28      1.0000 0.05300  0.12640  0.56250  Biso   1.000  C
  C29      1.0000 0.44700  0.62640  0.56250  Biso   1.000  C
  C30      1.0000 0.05300  0.37360  0.06250  Biso   1.000  C
  C31      1.0000 0.55300  0.12640  0.93750  Biso   1.000  C
  C32      1.0000 0.94700  0.87360  0.43750  Biso   1.000  C
  H9       1.0000 0.50740  0.36050  0.44580  Biso   1.000  H
  H10      1.0000 0.99260  0.63950  0.94580  Biso   1.000  H
  H11      1.0000 0.49260  0.86050  0.05420  Biso   1.000  H
  H12      1.0000 0.00740  0.13950  0.55420  Biso   1.000  H
  H13      1.0000 0.49260  0.63950  0.55420  Biso   1.000  H
  H14      1.0000 0.00740  0.36050  0.05420  Biso   1.000  H
  H15      1.0000 0.50740  0.13950  0.94580  Biso   1.000  H
  H16      1.0000 0.99260  0.86050  0.44580  Biso   1.000  H
  C33      1.0000 0.59600  0.41170  0.46860  Biso   1.000  C
  C34      1.0000 0.90400  0.58830  0.96860  Biso   1.000  C
  C35      1.0000 0.40400  0.91170  0.03140  Biso   1.000  C
  C36      1.0000 0.09600  0.08830  0.53140  Biso   1.000  C
  C37      1.0000 0.40400  0.58830  0.53140  Biso   1.000  C
  C38      1.0000 0.09600  0.41170  0.03140  Biso   1.000  C
  C39      1.0000 0.59600  0.08830  0.96860  Biso   1.000  C
  C40      1.0000 0.90400  0.91170  0.46860  Biso   1.000  C
  H17      1.0000 0.57930  0.42480  0.49800  Biso   1.000  H
  H18      1.0000 0.92070  0.57520  0.99800  Biso   1.000  H
  H19      1.0000 0.42070  0.92480  0.00200  Biso   1.000  H
  H20      1.0000 0.07930  0.07520  0.50200  Biso   1.000  H
  H21      1.0000 0.42070  0.57520  0.50200  Biso   1.000  H
  H22      1.0000 0.07930  0.42480  0.00200  Biso   1.000  H
  H23      1.0000 0.57930  0.07520  0.99800  Biso   1.000  H
  H24      1.0000 0.92070  0.92480  0.49800  Biso   1.000  H
  C41      1.0000 0.66380  0.43070  0.45670  Biso   1.000  C
  C42      1.0000 0.83620  0.56930  0.95670  Biso   1.000  C
  C43      1.0000 0.33620  0.93070  0.04330  Biso   1.000  C
  C44      1.0000 0.16380  0.06930  0.54330  Biso   1.000  C
  C45      1.0000 0.33620  0.56930  0.54330  Biso   1.000  C
  C46      1.0000 0.16380  0.43070  0.04330  Biso   1.000  C
  C47      1.0000 0.66380  0.06930  0.95670  Biso   1.000  C
  C48      1.0000 0.83620  0.93070  0.45670  Biso   1.000  C
  H25      1.0000 0.69200  0.45760  0.47800  Biso   1.000  H
  H26      1.0000 0.80800  0.54240  0.97800  Biso   1.000  H
  H27      1.0000 0.30800  0.95760  0.02200  Biso   1.000  H
  H28      1.0000 0.19200  0.04240  0.52200  Biso   1.000  H
  H29      1.0000 0.30800  0.54240  0.52200  Biso   1.000  H
  H30      1.0000 0.19200  0.45760  0.02200  Biso   1.000  H
  H31      1.0000 0.69200  0.04240  0.97800  Biso   1.000  H
  H32      1.0000 0.80800  0.95760  0.47800  Biso   1.000  H
  C49      1.0000 0.69100  0.41030  0.41310  Biso   1.000  C
  C50      1.0000 0.80900  0.58970  0.91310  Biso   1.000  C
  C51      1.0000 0.30900  0.91030  0.08690  Biso   1.000  C
  C52      1.0000 0.19100  0.08970  0.58690  Biso   1.000  C
  C53      1.0000 0.30900  0.58970  0.58690  Biso   1.000  C
  C54      1.0000 0.19100  0.41030  0.08690  Biso   1.000  C
  C55      1.0000 0.69100  0.08970  0.91310  Biso   1.000  C
  C56      1.0000 0.80900  0.91030  0.41310  Biso   1.000  C
  C57      1.0000 0.89090  0.48900  0.44354  Biso   1.000  C
  C58      1.0000 0.60910  0.51100  0.94354  Biso   1.000  C
  C59      1.0000 0.10910  0.98900  0.05646  Biso   1.000  C
  C60      1.0000 0.39090  0.01100  0.55646  Biso   1.000  C
  C61      1.0000 0.10910  0.51100  0.55646  Biso   1.000  C
  C62      1.0000 0.39090  0.48900  0.05646  Biso   1.000  C
  C63      1.0000 0.89090  0.01100  0.94354  Biso   1.000  C
  C64      1.0000 0.60910  0.98900  0.44354  Biso   1.000  C
  C65      1.0000 0.91690  0.56050  0.42400  Biso   1.000  C
  C66      1.0000 0.58310  0.43950  0.92400  Biso   1.000  C
  C67      1.0000 0.08310  0.06050  0.07600  Biso   1.000  C
  C68      1.0000 0.41690  0.93950  0.57600  Biso   1.000  C
  C69      1.0000 0.08310  0.43950  0.57600  Biso   1.000  C
  C70      1.0000 0.41690  0.56050  0.07600  Biso   1.000  C
  C71      1.0000 0.91690  0.93950  0.92400  Biso   1.000  C
  C72      1.0000 0.58310  0.06050  0.42400  Biso   1.000  C
  C73      1.0000 0.98830  0.56460  0.41806  Biso   1.000  C
  C74      1.0000 0.51170  0.43540  0.91806  Biso   1.000  C
  C75      1.0000 0.01170  0.06460  0.08194  Biso   1.000  C
  C76      1.0000 0.48830  0.93540  0.58194  Biso   1.000  C
  C77      1.0000 0.01170  0.43540  0.58194  Biso   1.000  C
  C78      1.0000 0.48830  0.56460  0.08194  Biso   1.000  C
  C79      1.0000 0.98830  0.93540  0.91806  Biso   1.000  C
  C80      1.0000 0.51170  0.06460  0.41806  Biso   1.000  C
  C81      1.0000 0.03610  0.50480  0.42900  Biso   1.000  C
  C82      1.0000 0.46390  0.49520  0.92900  Biso   1.000  C
  C83      1.0000 0.96390  0.00480  0.07100  Biso   1.000  C
  C84      1.0000 0.53610  0.99520  0.57100  Biso   1.000  C
  C85      1.0000 0.96390  0.49520  0.57100  Biso   1.000  C
  C86      1.0000 0.53610  0.50480  0.07100  Biso   1.000  C
  C87      1.0000 0.03610  0.99520  0.92900  Biso   1.000  C
  C88      1.0000 0.46390  0.00480  0.42900  Biso   1.000  C
  C89      1.0000 0.00890  0.43410  0.44810  Biso   1.000  C
  C90      1.0000 0.49110  0.56590  0.94810  Biso   1.000  C
  C91      1.0000 0.99110  0.93410  0.05190  Biso   1.000  C
  C92      1.0000 0.50890  0.06590  0.55190  Biso   1.000  C
  C93      1.0000 0.99110  0.56590  0.55190  Biso   1.000  C
  C94      1.0000 0.50890  0.43410  0.05190  Biso   1.000  C
  C95      1.0000 0.00890  0.06590  0.94810  Biso   1.000  C
  C96      1.0000 0.49110  0.93410  0.44810  Biso   1.000  C
  C97      1.0000 0.93760  0.42780  0.45464  Biso   1.000  C
  C98      1.0000 0.56240  0.57220  0.95464  Biso   1.000  C
  C99      1.0000 0.06240  0.92780  0.04536  Biso   1.000  C
  C100     1.0000 0.43760  0.07220  0.54536  Biso   1.000  C
  C101     1.0000 0.06240  0.57220  0.54536  Biso   1.000  C
  C102     1.0000 0.43760  0.42780  0.04536  Biso   1.000  C
  C103     1.0000 0.93760  0.07220  0.95464  Biso   1.000  C
  C104     1.0000 0.56240  0.92780  0.45464  Biso   1.000  C
  H33      1.0000 0.92000  0.38020  0.46710  Biso   1.000  H
  H34      1.0000 0.58000  0.61980  0.96710  Biso   1.000  H
  H35      1.0000 0.08000  0.88020  0.03290  Biso   1.000  H
  H36      1.0000 0.42000  0.11980  0.53290  Biso   1.000  H
  H37      1.0000 0.08000  0.61980  0.53290  Biso   1.000  H
  H38      1.0000 0.42000  0.38020  0.03290  Biso   1.000  H
  H39      1.0000 0.92000  0.11980  0.96710  Biso   1.000  H
  H40      1.0000 0.58000  0.88020  0.46710  Biso   1.000  H
  C105     1.0000 0.81380  0.47590  0.45180  Biso   1.000  C
  C106     1.0000 0.68620  0.52410  0.95180  Biso   1.000  C
  C107     1.0000 0.18620  0.97590  0.04820  Biso   1.000  C
  C108     1.0000 0.31380  0.02410  0.54820  Biso   1.000  C
  C109     1.0000 0.18620  0.52410  0.54820  Biso   1.000  C
  C110     1.0000 0.31380  0.47590  0.04820  Biso   1.000  C
  C111     1.0000 0.81380  0.02410  0.95180  Biso   1.000  C
  C112     1.0000 0.68620  0.97590  0.45180  Biso   1.000  C
  H41      1.0000 0.79060  0.52680  0.45780  Biso   1.000  H
  H42      1.0000 0.70940  0.47320  0.95780  Biso   1.000  H
  H43      1.0000 0.20940  0.02680  0.04220  Biso   1.000  H
  H44      1.0000 0.29060  0.97320  0.54220  Biso   1.000  H
  H45      1.0000 0.20940  0.47320  0.54220  Biso   1.000  H
  H46      1.0000 0.29060  0.52680  0.04220  Biso   1.000  H
  H47      1.0000 0.79060  0.97320  0.95780  Biso   1.000  H
  H48      1.0000 0.70940  0.02680  0.45780  Biso   1.000  H
  H49      1.0000 0.80650  0.44070  0.47830  Biso   1.000  H
  H50      1.0000 0.69350  0.55930  0.97830  Biso   1.000  H
  H51      1.0000 0.19350  0.94070  0.02170  Biso   1.000  H
  H52      1.0000 0.30650  0.05930  0.52170  Biso   1.000  H
  H53      1.0000 0.19350  0.55930  0.52170  Biso   1.000  H
  H54      1.0000 0.30650  0.44070  0.02170  Biso   1.000  H
  H55      1.0000 0.80650  0.05930  0.97830  Biso   1.000  H
  H56      1.0000 0.69350  0.94070  0.47830  Biso   1.000  H
  C113     1.0000 0.87080  0.63030  0.40970  Biso   1.000  C
  C114     1.0000 0.62920  0.36970  0.90970  Biso   1.000  C
  C115     1.0000 0.12920  0.13030  0.09030  Biso   1.000  C
  C116     1.0000 0.37080  0.86970  0.59030  Biso   1.000  C
  C117     1.0000 0.12920  0.36970  0.59030  Biso   1.000  C
  C118     1.0000 0.37080  0.63030  0.09030  Biso   1.000  C
  C119     1.0000 0.87080  0.86970  0.90970  Biso   1.000  C
  C120     1.0000 0.62920  0.13030  0.40970  Biso   1.000  C
  H57      1.0000 0.87960  0.64370  0.37770  Biso   1.000  H
  H58      1.0000 0.62040  0.35630  0.87770  Biso   1.000  H
  H59      1.0000 0.12040  0.14370  0.12230  Biso   1.000  H
  H60      1.0000 0.37960  0.85630  0.62230  Biso   1.000  H
  H61      1.0000 0.12040  0.35630  0.62230  Biso   1.000  H
  H62      1.0000 0.37960  0.64370  0.12230  Biso   1.000  H
  H63      1.0000 0.87960  0.85630  0.87770  Biso   1.000  H
  H64      1.0000 0.62040  0.14370  0.37770  Biso   1.000  H
  H65      1.0000 0.88100  0.67610  0.42900  Biso   1.000  H
  H66      1.0000 0.61900  0.32390  0.92900  Biso   1.000  H
  H67      1.0000 0.11900  0.17610  0.07100  Biso   1.000  H
  H68      1.0000 0.38100  0.82390  0.57100  Biso   1.000  H
  H69      1.0000 0.11900  0.32390  0.57100  Biso   1.000  H
  H70      1.0000 0.38100  0.67610  0.07100  Biso   1.000  H
  H71      1.0000 0.88100  0.82390  0.92900  Biso   1.000  H
  H72      1.0000 0.61900  0.17610  0.42900  Biso   1.000  H
  H73      1.0000 0.82260  0.61560  0.41340  Biso   1.000  H
  H74      1.0000 0.67740  0.38440  0.91340  Biso   1.000  H
  H75      1.0000 0.17740  0.11560  0.08660  Biso   1.000  H
  H76      1.0000 0.32260  0.88440  0.58660  Biso   1.000  H
  H77      1.0000 0.17740  0.38440  0.58660  Biso   1.000  H
  H78      1.0000 0.32260  0.61560  0.08660  Biso   1.000  H
  H79      1.0000 0.82260  0.88440  0.91340  Biso   1.000  H
  H80      1.0000 0.67740  0.11560  0.41340  Biso   1.000  H
  C121     1.0000 0.11430  0.51610  0.42100  Biso   1.000  C
  C122     1.0000 0.38570  0.48390  0.92100  Biso   1.000  C
  C123     1.0000 0.88570  0.01610  0.07900  Biso   1.000  C
  C124     1.0000 0.61430  0.98390  0.57900  Biso   1.000  C
  C125     1.0000 0.88570  0.48390  0.57900  Biso   1.000  C
  C126     1.0000 0.61430  0.51610  0.07900  Biso   1.000  C
  C127     1.0000 0.11430  0.98390  0.92100  Biso   1.000  C
  C128     1.0000 0.38570  0.01610  0.42100  Biso   1.000  C
  H81      1.0000 0.12260  0.56840  0.40790  Biso   1.000  H
  H82      1.0000 0.37740  0.43160  0.90790  Biso   1.000  H
  H83      1.0000 0.87740  0.06840  0.09210  Biso   1.000  H
  H84      1.0000 0.62260  0.93160  0.59210  Biso   1.000  H
  H85      1.0000 0.87740  0.43160  0.59210  Biso   1.000  H
  H86      1.0000 0.62260  0.56840  0.09210  Biso   1.000  H
  H87      1.0000 0.12260  0.93160  0.90790  Biso   1.000  H
  H88      1.0000 0.37740  0.06840  0.40790  Biso   1.000  H
  H89      1.0000 0.13090  0.47560  0.39990  Biso   1.000  H
  H90      1.0000 0.36910  0.52440  0.89990  Biso   1.000  H
  H91      1.0000 0.86910  0.97560  0.10010  Biso   1.000  H
  H92      1.0000 0.63090  0.02440  0.60010  Biso   1.000  H
  H93      1.0000 0.86910  0.52440  0.60010  Biso   1.000  H
  H94      1.0000 0.63090  0.47560  0.10010  Biso   1.000  H
  H95      1.0000 0.13090  0.02440  0.89990  Biso   1.000  H
  H96      1.0000 0.36910  0.97560  0.39990  Biso   1.000  H
  H97      1.0000 0.13860  0.51150  0.45010  Biso   1.000  H
  H98      1.0000 0.36140  0.48850  0.95010  Biso   1.000  H
  H99      1.0000 0.86140  0.01150  0.04990  Biso   1.000  H
  H100     1.0000 0.63860  0.98850  0.54990  Biso   1.000  H
  H101     1.0000 0.86140  0.48850  0.54990  Biso   1.000  H
  H102     1.0000 0.63860  0.51150  0.04990  Biso   1.000  H
  H103     1.0000 0.13860  0.98850  0.95010  Biso   1.000  H
  H104     1.0000 0.36140  0.01150  0.45010  Biso   1.000  H
  C129     1.0000 0.05630  0.36590  0.46218  Biso   1.000  C
  C130     1.0000 0.44370  0.63410  0.96218  Biso   1.000  C
  C131     1.0000 0.94370  0.86590  0.03782  Biso   1.000  C
  C132     1.0000 0.55630  0.13410  0.53782  Biso   1.000  C
  C133     1.0000 0.94370  0.63410  0.53782  Biso   1.000  C
  C134     1.0000 0.55630  0.36590  0.03782  Biso   1.000  C
  C135     1.0000 0.05630  0.13410  0.96218  Biso   1.000  C
  C136     1.0000 0.44370  0.86590  0.46218  Biso   1.000  C
  H105     1.0000 0.03150  0.32890  0.48240  Biso   1.000  H
  H106     1.0000 0.46850  0.67110  0.98240  Biso   1.000  H
  H107     1.0000 0.96850  0.82890  0.01760  Biso   1.000  H
  H108     1.0000 0.53150  0.17110  0.51760  Biso   1.000  H
  H109     1.0000 0.96850  0.67110  0.51760  Biso   1.000  H
  H110     1.0000 0.53150  0.32890  0.01760  Biso   1.000  H
  H111     1.0000 0.03150  0.17110  0.98240  Biso   1.000  H
  H112     1.0000 0.46850  0.82890  0.48240  Biso   1.000  H
  H113     1.0000 0.09650  0.38660  0.47900  Biso   1.000  H
  H114     1.0000 0.40350  0.61340  0.97900  Biso   1.000  H
  H115     1.0000 0.90350  0.88660  0.02100  Biso   1.000  H
  H116     1.0000 0.59650  0.11340  0.52100  Biso   1.000  H
  H117     1.0000 0.90350  0.61340  0.52100  Biso   1.000  H
  H118     1.0000 0.59650  0.38660  0.02100  Biso   1.000  H
  H119     1.0000 0.09650  0.11340  0.97900  Biso   1.000  H
  H120     1.0000 0.40350  0.88660  0.47900  Biso   1.000  H
  C137     1.0000 0.16630  0.27140  0.42650  Biso   1.000  C
  C138     1.0000 0.33370  0.72860  0.92650  Biso   1.000  C
  C139     1.0000 0.83370  0.77140  0.07350  Biso   1.000  C
  C140     1.0000 0.66630  0.22860  0.57350  Biso   1.000  C
  C141     1.0000 0.83370  0.72860  0.57350  Biso   1.000  C
  C142     1.0000 0.66630  0.27140  0.07350  Biso   1.000  C
  C143     1.0000 0.16630  0.22860  0.92650  Biso   1.000  C
  C144     1.0000 0.33370  0.77140  0.42650  Biso   1.000  C
  C145     1.0000 0.18060  0.25880  0.47360  Biso   1.000  C
  C146     1.0000 0.31940  0.74120  0.97360  Biso   1.000  C
  C147     1.0000 0.81940  0.75880  0.02640  Biso   1.000  C
  C148     1.0000 0.68060  0.24120  0.52640  Biso   1.000  C
  C149     1.0000 0.81940  0.74120  0.52640  Biso   1.000  C
  C150     1.0000 0.68060  0.25880  0.02640  Biso   1.000  C
  C151     1.0000 0.18060  0.24120  0.97360  Biso   1.000  C
  C152     1.0000 0.31940  0.75880  0.47360  Biso   1.000  C
  H121     1.0000 0.14620  0.26960  0.49560  Biso   1.000  H
  H122     1.0000 0.35380  0.73040  0.99560  Biso   1.000  H
  H123     1.0000 0.85380  0.76960  0.00440  Biso   1.000  H
  H124     1.0000 0.64620  0.23040  0.50440  Biso   1.000  H
  H125     1.0000 0.85380  0.73040  0.50440  Biso   1.000  H
  H126     1.0000 0.64620  0.26960  0.00440  Biso   1.000  H
  H127     1.0000 0.14620  0.23040  0.99560  Biso   1.000  H
  H128     1.0000 0.35380  0.76960  0.49560  Biso   1.000  H
  C153     1.0000 0.24470  0.23080  0.48790  Biso   1.000  C
  C154     1.0000 0.25530  0.76920  0.98790  Biso   1.000  C
  C155     1.0000 0.75530  0.73080  0.01210  Biso   1.000  C
  C156     1.0000 0.74470  0.26920  0.51210  Biso   1.000  C
  C157     1.0000 0.75530  0.76920  0.51210  Biso   1.000  C
  C158     1.0000 0.74470  0.23080  0.01210  Biso   1.000  C
  C159     1.0000 0.24470  0.26920  0.98790  Biso   1.000  C
  C160     1.0000 0.25530  0.73080  0.48790  Biso   1.000  C
  H129     1.0000 0.25370  0.22430  0.51950  Biso   1.000  H
  H130     1.0000 0.24630  0.77570  0.01950  Biso   1.000  H
  H131     1.0000 0.74630  0.72430  0.98050  Biso   1.000  H
  H132     1.0000 0.75370  0.27570  0.48050  Biso   1.000  H
  H133     1.0000 0.74630  0.77570  0.48050  Biso   1.000  H
  H134     1.0000 0.75370  0.22430  0.98050  Biso   1.000  H
  H135     1.0000 0.25370  0.27570  0.01950  Biso   1.000  H
  H136     1.0000 0.24630  0.72430  0.51950  Biso   1.000  H
  C161     1.0000 0.29560  0.21230  0.45600  Biso   1.000  C
  C162     1.0000 0.20440  0.78770  0.95600  Biso   1.000  C
  C163     1.0000 0.70440  0.71230  0.04400  Biso   1.000  C
  C164     1.0000 0.79560  0.28770  0.54400  Biso   1.000  C
  C165     1.0000 0.70440  0.78770  0.54400  Biso   1.000  C
  C166     1.0000 0.79560  0.21230  0.04400  Biso   1.000  C
  C167     1.0000 0.29560  0.28770  0.95600  Biso   1.000  C
  C168     1.0000 0.20440  0.71230  0.45600  Biso   1.000  C
  H137     1.0000 0.33900  0.19350  0.46570  Biso   1.000  H
  H138     1.0000 0.16100  0.80650  0.96570  Biso   1.000  H
  H139     1.0000 0.66100  0.69350  0.03430  Biso   1.000  H
  H140     1.0000 0.83900  0.30650  0.53430  Biso   1.000  H
  H141     1.0000 0.66100  0.80650  0.53430  Biso   1.000  H
  H142     1.0000 0.83900  0.19350  0.03430  Biso   1.000  H
  H143     1.0000 0.33900  0.30650  0.96570  Biso   1.000  H
  H144     1.0000 0.16100  0.69350  0.46570  Biso   1.000  H
  C169     1.0000 0.28090  0.22220  0.40890  Biso   1.000  C
  C170     1.0000 0.21910  0.77780  0.90890  Biso   1.000  C
  C171     1.0000 0.71910  0.72220  0.09110  Biso   1.000  C
  C172     1.0000 0.78090  0.27780  0.59110  Biso   1.000  C
  C173     1.0000 0.71910  0.77780  0.59110  Biso   1.000  C
  C174     1.0000 0.78090  0.22220  0.09110  Biso   1.000  C
  C175     1.0000 0.28090  0.27780  0.90890  Biso   1.000  C
  C176     1.0000 0.21910  0.72220  0.40890  Biso   1.000  C
  H145     1.0000 0.31510  0.20880  0.38720  Biso   1.000  H
  H146     1.0000 0.18490  0.79120  0.88720  Biso   1.000  H
  H147     1.0000 0.68490  0.70880  0.11280  Biso   1.000  H
  H148     1.0000 0.81510  0.29120  0.61280  Biso   1.000  H
  H149     1.0000 0.68490  0.79120  0.61280  Biso   1.000  H
  H150     1.0000 0.81510  0.20880  0.11280  Biso   1.000  H
  H151     1.0000 0.31510  0.29120  0.88720  Biso   1.000  H
  H152     1.0000 0.18490  0.70880  0.38720  Biso   1.000  H
  C177     1.0000 0.21780  0.25110  0.39331  Biso   1.000  C
  C178     1.0000 0.28220  0.74890  0.89331  Biso   1.000  C
  C179     1.0000 0.78220  0.75110  0.10669  Biso   1.000  C
  C180     1.0000 0.71780  0.24890  0.60669  Biso   1.000  C
  C181     1.0000 0.78220  0.74890  0.60669  Biso   1.000  C
  C182     1.0000 0.71780  0.25110  0.10669  Biso   1.000  C
  C183     1.0000 0.21780  0.24890  0.89331  Biso   1.000  C
  C184     1.0000 0.28220  0.75110  0.39331  Biso   1.000  C
  C185     1.0000 0.20830  0.26150  0.34148  Biso   1.000  C
  C186     1.0000 0.29170  0.73850  0.84148  Biso   1.000  C
  C187     1.0000 0.79170  0.76150  0.15852  Biso   1.000  C
  C188     1.0000 0.70830  0.23850  0.65852  Biso   1.000  C
  C189     1.0000 0.79170  0.73850  0.65852  Biso   1.000  C
  C190     1.0000 0.70830  0.26150  0.15852  Biso   1.000  C
  C191     1.0000 0.20830  0.23850  0.84148  Biso   1.000  C
  C192     1.0000 0.29170  0.76150  0.34148  Biso   1.000  C
  C193     1.0000 0.10460  0.47200  0.25760  Biso   1.000  C
  C194     1.0000 0.39540  0.52800  0.75760  Biso   1.000  C
  C195     1.0000 0.89540  0.97200  0.24240  Biso   1.000  C
  C196     1.0000 0.60460  0.02800  0.74240  Biso   1.000  C
  C197     1.0000 0.89540  0.52800  0.74240  Biso   1.000  C
  C198     1.0000 0.60460  0.47200  0.24240  Biso   1.000  C
  C199     1.0000 0.10460  0.02800  0.75760  Biso   1.000  C
  C200     1.0000 0.39540  0.97200  0.25760  Biso   1.000  C
  H153     1.0000 0.06720  0.45350  0.23980  Biso   1.000  H
  H154     1.0000 0.43280  0.54650  0.73980  Biso   1.000  H
  H155     1.0000 0.93280  0.95350  0.26020  Biso   1.000  H
  H156     1.0000 0.56720  0.04650  0.76020  Biso   1.000  H
  H157     1.0000 0.93280  0.54650  0.76020  Biso   1.000  H
  H158     1.0000 0.56720  0.45350  0.26020  Biso   1.000  H
  H159     1.0000 0.06720  0.04650  0.73980  Biso   1.000  H
  H160     1.0000 0.43280  0.95350  0.23980  Biso   1.000  H
  C201     1.0000 0.11040  0.55310  0.26570  Biso   1.000  C
  C202     1.0000 0.38960  0.44690  0.76570  Biso   1.000  C
  C203     1.0000 0.88960  0.05310  0.23430  Biso   1.000  C
  C204     1.0000 0.61040  0.94690  0.73430  Biso   1.000  C
  C205     1.0000 0.88960  0.44690  0.73430  Biso   1.000  C
  C206     1.0000 0.61040  0.55310  0.23430  Biso   1.000  C
  C207     1.0000 0.11040  0.94690  0.76570  Biso   1.000  C
  C208     1.0000 0.38960  0.05310  0.26570  Biso   1.000  C
  H161     1.0000 0.07740  0.58880  0.25380  Biso   1.000  H
  H162     1.0000 0.42260  0.41120  0.75380  Biso   1.000  H
  H163     1.0000 0.92260  0.08880  0.24620  Biso   1.000  H
  H164     1.0000 0.57740  0.91120  0.74620  Biso   1.000  H
  H165     1.0000 0.92260  0.41120  0.74620  Biso   1.000  H
  H166     1.0000 0.57740  0.58880  0.24620  Biso   1.000  H
  H167     1.0000 0.07740  0.91120  0.75380  Biso   1.000  H
  H168     1.0000 0.42260  0.08880  0.25380  Biso   1.000  H
  C209     1.0000 0.16600  0.58080  0.29160  Biso   1.000  C
  C210     1.0000 0.33400  0.41920  0.79160  Biso   1.000  C
  C211     1.0000 0.83400  0.08080  0.20840  Biso   1.000  C
  C212     1.0000 0.66600  0.91920  0.70840  Biso   1.000  C
  C213     1.0000 0.83400  0.41920  0.70840  Biso   1.000  C
  C214     1.0000 0.66600  0.58080  0.20840  Biso   1.000  C
  C215     1.0000 0.16600  0.91920  0.79160  Biso   1.000  C
  C216     1.0000 0.33400  0.08080  0.29160  Biso   1.000  C
  H169     1.0000 0.17110  0.63540  0.29770  Biso   1.000  H
  H170     1.0000 0.32890  0.36460  0.79770  Biso   1.000  H
  H171     1.0000 0.82890  0.13540  0.20230  Biso   1.000  H
  H172     1.0000 0.67110  0.86460  0.70230  Biso   1.000  H
  H173     1.0000 0.82890  0.36460  0.70230  Biso   1.000  H
  H174     1.0000 0.67110  0.63540  0.20230  Biso   1.000  H
  H175     1.0000 0.17110  0.86460  0.79770  Biso   1.000  H
  H176     1.0000 0.32890  0.13540  0.29770  Biso   1.000  H
  C217     1.0000 0.21300  0.52660  0.30810  Biso   1.000  C
  C218     1.0000 0.28700  0.47340  0.80810  Biso   1.000  C
  C219     1.0000 0.78700  0.02660  0.19190  Biso   1.000  C
  C220     1.0000 0.71300  0.97340  0.69190  Biso   1.000  C
  C221     1.0000 0.78700  0.47340  0.69190  Biso   1.000  C
  C222     1.0000 0.71300  0.52660  0.19190  Biso   1.000  C
  C223     1.0000 0.21300  0.97340  0.80810  Biso   1.000  C
  C224     1.0000 0.28700  0.02660  0.30810  Biso   1.000  C
  H177     1.0000 0.25120  0.54400  0.32540  Biso   1.000  H
  H178     1.0000 0.24880  0.45600  0.82540  Biso   1.000  H
  H179     1.0000 0.74880  0.04400  0.17460  Biso   1.000  H
  H180     1.0000 0.75120  0.95600  0.67460  Biso   1.000  H
  H181     1.0000 0.74880  0.45600  0.67460  Biso   1.000  H
  H182     1.0000 0.75120  0.54400  0.17460  Biso   1.000  H
  H183     1.0000 0.25120  0.95600  0.82540  Biso   1.000  H
  H184     1.0000 0.24880  0.04400  0.32540  Biso   1.000  H
  C225     1.0000 0.20390  0.44610  0.29900  Biso   1.000  C
  C226     1.0000 0.29610  0.55390  0.79900  Biso   1.000  C
  C227     1.0000 0.79610  0.94610  0.20100  Biso   1.000  C
  C228     1.0000 0.70390  0.05390  0.70100  Biso   1.000  C
  C229     1.0000 0.79610  0.55390  0.70100  Biso   1.000  C
  C230     1.0000 0.70390  0.44610  0.20100  Biso   1.000  C
  C231     1.0000 0.20390  0.05390  0.79900  Biso   1.000  C
  C232     1.0000 0.29610  0.94610  0.29900  Biso   1.000  C
  H185     1.0000 0.23640  0.40960  0.31070  Biso   1.000  H
  H186     1.0000 0.26360  0.59040  0.81070  Biso   1.000  H
  H187     1.0000 0.76360  0.90960  0.18930  Biso   1.000  H
  H188     1.0000 0.73640  0.09040  0.68930  Biso   1.000  H
  H189     1.0000 0.76360  0.59040  0.68930  Biso   1.000  H
  H190     1.0000 0.73640  0.40960  0.18930  Biso   1.000  H
  H191     1.0000 0.23640  0.09040  0.81070  Biso   1.000  H
  H192     1.0000 0.26360  0.90960  0.31070  Biso   1.000  H
  C233     1.0000 0.98030  0.27520  0.22980  Biso   1.000  C
  C234     1.0000 0.51970  0.72480  0.72980  Biso   1.000  C
  C235     1.0000 0.01970  0.77520  0.27020  Biso   1.000  C
  C236     1.0000 0.48030  0.22480  0.77020  Biso   1.000  C
  C237     1.0000 0.01970  0.72480  0.77020  Biso   1.000  C
  C238     1.0000 0.48030  0.27520  0.27020  Biso   1.000  C
  C239     1.0000 0.98030  0.22480  0.72980  Biso   1.000  C
  C240     1.0000 0.51970  0.77520  0.22980  Biso   1.000  C
  H193     1.0000 0.00310  0.25410  0.20390  Biso   1.000  H
  H194     1.0000 0.49690  0.74590  0.70390  Biso   1.000  H
  H195     1.0000 0.99690  0.75410  0.29610  Biso   1.000  H
  H196     1.0000 0.50310  0.24590  0.79610  Biso   1.000  H
  H197     1.0000 0.99690  0.74590  0.79610  Biso   1.000  H
  H198     1.0000 0.50310  0.25410  0.29610  Biso   1.000  H
  H199     1.0000 0.00310  0.24590  0.70390  Biso   1.000  H
  H200     1.0000 0.49690  0.75410  0.20390  Biso   1.000  H
  C241     1.0000 0.90900  0.28220  0.22850  Biso   1.000  C
  C242     1.0000 0.59100  0.71780  0.72850  Biso   1.000  C
  C243     1.0000 0.09100  0.78220  0.27150  Biso   1.000  C
  C244     1.0000 0.40900  0.21780  0.77150  Biso   1.000  C
  C245     1.0000 0.09100  0.71780  0.77150  Biso   1.000  C
  C246     1.0000 0.40900  0.28220  0.27150  Biso   1.000  C
  C247     1.0000 0.90900  0.21780  0.72850  Biso   1.000  C
  C248     1.0000 0.59100  0.78220  0.22850  Biso   1.000  C
  H201     1.0000 0.88420  0.26670  0.20210  Biso   1.000  H
  H202     1.0000 0.61580  0.73330  0.70210  Biso   1.000  H
  H203     1.0000 0.11580  0.76670  0.29790  Biso   1.000  H
  H204     1.0000 0.38420  0.23330  0.79790  Biso   1.000  H
  H205     1.0000 0.11580  0.73330  0.79790  Biso   1.000  H
  H206     1.0000 0.38420  0.26670  0.29790  Biso   1.000  H
  H207     1.0000 0.88420  0.23330  0.70210  Biso   1.000  H
  H208     1.0000 0.61580  0.76670  0.20210  Biso   1.000  H
  C249     1.0000 0.87470  0.31210  0.26620  Biso   1.000  C
  C250     1.0000 0.62530  0.68790  0.76620  Biso   1.000  C
  C251     1.0000 0.12530  0.81210  0.23380  Biso   1.000  C
  C252     1.0000 0.37470  0.18790  0.73380  Biso   1.000  C
  C253     1.0000 0.12530  0.68790  0.73380  Biso   1.000  C
  C254     1.0000 0.37470  0.31210  0.23380  Biso   1.000  C
  C255     1.0000 0.87470  0.18790  0.76620  Biso   1.000  C
  C256     1.0000 0.62530  0.81210  0.26620  Biso   1.000  C
  H209     1.0000 0.82620  0.31740  0.26610  Biso   1.000  H
  H210     1.0000 0.67380  0.68260  0.76610  Biso   1.000  H
  H211     1.0000 0.17380  0.81740  0.23390  Biso   1.000  H
  H212     1.0000 0.32620  0.18260  0.73390  Biso   1.000  H
  H213     1.0000 0.17380  0.68260  0.73390  Biso   1.000  H
  H214     1.0000 0.32620  0.31740  0.23390  Biso   1.000  H
  H215     1.0000 0.82620  0.18260  0.76610  Biso   1.000  H
  H216     1.0000 0.67380  0.81740  0.26610  Biso   1.000  H
  C257     1.0000 0.91300  0.33430  0.30450  Biso   1.000  C
  C258     1.0000 0.58700  0.66570  0.80450  Biso   1.000  C
  C259     1.0000 0.08700  0.83430  0.19550  Biso   1.000  C
  C260     1.0000 0.41300  0.16570  0.69550  Biso   1.000  C
  C261     1.0000 0.08700  0.66570  0.69550  Biso   1.000  C
  C262     1.0000 0.41300  0.33430  0.19550  Biso   1.000  C
  C263     1.0000 0.91300  0.16570  0.80450  Biso   1.000  C
  C264     1.0000 0.58700  0.83430  0.30450  Biso   1.000  C
  H217     1.0000 0.89090  0.35430  0.33100  Biso   1.000  H
  H218     1.0000 0.60910  0.64570  0.83100  Biso   1.000  H
  H219     1.0000 0.10910  0.85430  0.16900  Biso   1.000  H
  H220     1.0000 0.39090  0.14570  0.66900  Biso   1.000  H
  H221     1.0000 0.10910  0.64570  0.66900  Biso   1.000  H
  H222     1.0000 0.39090  0.35430  0.16900  Biso   1.000  H
  H223     1.0000 0.89090  0.14570  0.83100  Biso   1.000  H
  H224     1.0000 0.60910  0.85430  0.33100  Biso   1.000  H
  C265     1.0000 0.98440  0.32650  0.30300  Biso   1.000  C
  C266     1.0000 0.51560  0.67350  0.80300  Biso   1.000  C
  C267     1.0000 0.01560  0.82650  0.19700  Biso   1.000  C
  C268     1.0000 0.48440  0.17350  0.69700  Biso   1.000  C
  C269     1.0000 0.01560  0.67350  0.69700  Biso   1.000  C
  C270     1.0000 0.48440  0.32650  0.19700  Biso   1.000  C
  C271     1.0000 0.98440  0.17350  0.80300  Biso   1.000  C
  C272     1.0000 0.51560  0.82650  0.30300  Biso   1.000  C
  H225     1.0000 0.01020  0.34240  0.32890  Biso   1.000  H
  H226     1.0000 0.48980  0.65760  0.82890  Biso   1.000  H
  H227     1.0000 0.98980  0.84240  0.17110  Biso   1.000  H
  H228     1.0000 0.51020  0.15760  0.67110  Biso   1.000  H
  H229     1.0000 0.98980  0.65760  0.67110  Biso   1.000  H
  H230     1.0000 0.51020  0.34240  0.17110  Biso   1.000  H
  H231     1.0000 0.01020  0.15760  0.82890  Biso   1.000  H
  H232     1.0000 0.48980  0.84240  0.32890  Biso   1.000  H
  C273     1.0000 0.20490  0.16330  0.21180  Biso   1.000  C
  C274     1.0000 0.29510  0.83670  0.71180  Biso   1.000  C
  C275     1.0000 0.79510  0.66330  0.28820  Biso   1.000  C
  C276     1.0000 0.70490  0.33670  0.78820  Biso   1.000  C
  C277     1.0000 0.79510  0.83670  0.78820  Biso   1.000  C
  C278     1.0000 0.70490  0.16330  0.28820  Biso   1.000  C
  C279     1.0000 0.20490  0.33670  0.71180  Biso   1.000  C
  C280     1.0000 0.29510  0.66330  0.21180  Biso   1.000  C
  H233     1.0000 0.23310  0.20430  0.20030  Biso   1.000  H
  H234     1.0000 0.26690  0.79570  0.70030  Biso   1.000  H
  H235     1.0000 0.76690  0.70430  0.29970  Biso   1.000  H
  H236     1.0000 0.73310  0.29570  0.79970  Biso   1.000  H
  H237     1.0000 0.76690  0.79570  0.79970  Biso   1.000  H
  H238     1.0000 0.73310  0.20430  0.29970  Biso   1.000  H
  H239     1.0000 0.23310  0.29570  0.70030  Biso   1.000  H
  H240     1.0000 0.26690  0.70430  0.20030  Biso   1.000  H
  C281     1.0000 0.21730  0.08630  0.19720  Biso   1.000  C
  C282     1.0000 0.28270  0.91370  0.69720  Biso   1.000  C
  C283     1.0000 0.78270  0.58630  0.30280  Biso   1.000  C
  C284     1.0000 0.71730  0.41370  0.80280  Biso   1.000  C
  C285     1.0000 0.78270  0.91370  0.80280  Biso   1.000  C
  C286     1.0000 0.71730  0.08630  0.30280  Biso   1.000  C
  C287     1.0000 0.21730  0.41370  0.69720  Biso   1.000  C
  C288     1.0000 0.28270  0.58630  0.19720  Biso   1.000  C
  H241     1.0000 0.25360  0.07560  0.17650  Biso   1.000  H
  H242     1.0000 0.24640  0.92440  0.67650  Biso   1.000  H
  H243     1.0000 0.74640  0.57560  0.32350  Biso   1.000  H
  H244     1.0000 0.75360  0.42440  0.82350  Biso   1.000  H
  H245     1.0000 0.74640  0.92440  0.82350  Biso   1.000  H
  H246     1.0000 0.75360  0.07560  0.32350  Biso   1.000  H
  H247     1.0000 0.25360  0.42440  0.67650  Biso   1.000  H
  H248     1.0000 0.24640  0.57560  0.17650  Biso   1.000  H
  C289     1.0000 0.17600  0.02550  0.21310  Biso   1.000  C
  C290     1.0000 0.32400  0.97450  0.71310  Biso   1.000  C
  C291     1.0000 0.82400  0.52550  0.28690  Biso   1.000  C
  C292     1.0000 0.67600  0.47450  0.78690  Biso   1.000  C
  C293     1.0000 0.82400  0.97450  0.78690  Biso   1.000  C
  C294     1.0000 0.67600  0.02550  0.28690  Biso   1.000  C
  C295     1.0000 0.17600  0.47450  0.71310  Biso   1.000  C
  C296     1.0000 0.32400  0.52550  0.21310  Biso   1.000  C
  H249     1.0000 0.18330  0.97280  0.20340  Biso   1.000  H
  H250     1.0000 0.31670  0.02720  0.70340  Biso   1.000  H
  H251     1.0000 0.81670  0.47280  0.29660  Biso   1.000  H
  H252     1.0000 0.68330  0.52720  0.79660  Biso   1.000  H
  H253     1.0000 0.81670  0.02720  0.79660  Biso   1.000  H
  H254     1.0000 0.68330  0.97280  0.29660  Biso   1.000  H
  H255     1.0000 0.18330  0.52720  0.70340  Biso   1.000  H
  H256     1.0000 0.31670  0.47280  0.20340  Biso   1.000  H
  C297     1.0000 0.12340  0.04390  0.24400  Biso   1.000  C
  C298     1.0000 0.37660  0.95610  0.74400  Biso   1.000  C
  C299     1.0000 0.87660  0.54390  0.25600  Biso   1.000  C
  C300     1.0000 0.62340  0.45610  0.75600  Biso   1.000  C
  C301     1.0000 0.87660  0.95610  0.75600  Biso   1.000  C
  C302     1.0000 0.62340  0.04390  0.25600  Biso   1.000  C
  C303     1.0000 0.12340  0.45610  0.74400  Biso   1.000  C
  C304     1.0000 0.37660  0.54390  0.24400  Biso   1.000  C
  H257     1.0000 0.09430  0.00360  0.25540  Biso   1.000  H
  H258     1.0000 0.40570  0.99640  0.75540  Biso   1.000  H
  H259     1.0000 0.90570  0.50360  0.24460  Biso   1.000  H
  H260     1.0000 0.59430  0.49640  0.74460  Biso   1.000  H
  H261     1.0000 0.90570  0.99640  0.74460  Biso   1.000  H
  H262     1.0000 0.59430  0.00360  0.24460  Biso   1.000  H
  H263     1.0000 0.09430  0.49640  0.75540  Biso   1.000  H
  H264     1.0000 0.40570  0.50360  0.25540  Biso   1.000  H
  C305     1.0000 0.11410  0.12310  0.25810  Biso   1.000  C
  C306     1.0000 0.38590  0.87690  0.75810  Biso   1.000  C
  C307     1.0000 0.88590  0.62310  0.24190  Biso   1.000  C
  C308     1.0000 0.61410  0.37690  0.74190  Biso   1.000  C
  C309     1.0000 0.88590  0.87690  0.74190  Biso   1.000  C
  C310     1.0000 0.61410  0.12310  0.24190  Biso   1.000  C
  C311     1.0000 0.11410  0.37690  0.75810  Biso   1.000  C
  C312     1.0000 0.38590  0.62310  0.25810  Biso   1.000  C
  H265     1.0000 0.07900  0.13510  0.27940  Biso   1.000  H
  H266     1.0000 0.42100  0.86490  0.77940  Biso   1.000  H
  H267     1.0000 0.92100  0.63510  0.22060  Biso   1.000  H
  H268     1.0000 0.57900  0.36490  0.72060  Biso   1.000  H
  H269     1.0000 0.92100  0.86490  0.72060  Biso   1.000  H
  H270     1.0000 0.57900  0.13510  0.22060  Biso   1.000  H
  H271     1.0000 0.07900  0.36490  0.77940  Biso   1.000  H
  H272     1.0000 0.42100  0.63510  0.27940  Biso   1.000  H
  N1       1.0000 0.15040  0.41830  0.27417  Biso   1.000  N
  N2       1.0000 0.34960  0.58170  0.77417  Biso   1.000  N
  N3       1.0000 0.84960  0.91830  0.22583  Biso   1.000  N
  N4       1.0000 0.65040  0.08170  0.72583  Biso   1.000  N
  N5       1.0000 0.84960  0.58170  0.72583  Biso   1.000  N
  N6       1.0000 0.65040  0.41830  0.22583  Biso   1.000  N
  N7       1.0000 0.15040  0.08170  0.77417  Biso   1.000  N
  N8       1.0000 0.34960  0.91830  0.27417  Biso   1.000  N
  N9       1.0000 0.01870  0.29730  0.26632  Biso   1.000  N
  N10      1.0000 0.48130  0.70270  0.76632  Biso   1.000  N
  N11      1.0000 0.98130  0.79730  0.23368  Biso   1.000  N
  N12      1.0000 0.51870  0.20270  0.73368  Biso   1.000  N
  N13      1.0000 0.98130  0.70270  0.73368  Biso   1.000  N
  N14      1.0000 0.51870  0.29730  0.23368  Biso   1.000  N
  N15      1.0000 0.01870  0.20270  0.76632  Biso   1.000  N
  N16      1.0000 0.48130  0.79730  0.26632  Biso   1.000  N
  N17      1.0000 0.15410  0.18250  0.24184  Biso   1.000  N
  N18      1.0000 0.34590  0.81750  0.74184  Biso   1.000  N
  N19      1.0000 0.84590  0.68250  0.25816  Biso   1.000  N
  N20      1.0000 0.65410  0.31750  0.75816  Biso   1.000  N
  N21      1.0000 0.84590  0.81750  0.75816  Biso   1.000  N
  N22      1.0000 0.65410  0.18250  0.25816  Biso   1.000  N
  N23      1.0000 0.15410  0.31750  0.74184  Biso   1.000  N
  N24      1.0000 0.34590  0.68250  0.24184  Biso   1.000  N
  N25      1.0000 0.01660  0.64030  0.39920  Biso   1.000  N
  N26      1.0000 0.48340  0.35970  0.89920  Biso   1.000  N
  N27      1.0000 0.98340  0.14030  0.10080  Biso   1.000  N
  N28      1.0000 0.51660  0.85970  0.60080  Biso   1.000  N
  N29      1.0000 0.98340  0.35970  0.60080  Biso   1.000  N
  N30      1.0000 0.51660  0.64030  0.10080  Biso   1.000  N
  N31      1.0000 0.01660  0.85970  0.89920  Biso   1.000  N
  N32      1.0000 0.48340  0.14030  0.39920  Biso   1.000  N
  O1       1.0000 0.62233  0.32370  0.30573  Biso   1.000  O
  O2       1.0000 0.87767  0.67630  0.80573  Biso   1.000  O
  O3       1.0000 0.37767  0.82370  0.19427  Biso   1.000  O
  O4       1.0000 0.12233  0.17630  0.69427  Biso   1.000  O
  O5       1.0000 0.37767  0.67630  0.69427  Biso   1.000  O
  O6       1.0000 0.12233  0.32370  0.19427  Biso   1.000  O
  O7       1.0000 0.62233  0.17630  0.80573  Biso   1.000  O
  O8       1.0000 0.87767  0.82370  0.30573  Biso   1.000  O
  O9       1.0000 0.73240  0.35880  0.32148  Biso   1.000  O
  O10      1.0000 0.76760  0.64120  0.82148  Biso   1.000  O
  O11      1.0000 0.26760  0.85880  0.17852  Biso   1.000  O
  O12      1.0000 0.23240  0.14120  0.67852  Biso   1.000  O
  O13      1.0000 0.26760  0.64120  0.67852  Biso   1.000  O
  O14      1.0000 0.23240  0.35880  0.17852  Biso   1.000  O
  O15      1.0000 0.73240  0.14120  0.82148  Biso   1.000  O
  O16      1.0000 0.76760  0.85880  0.32148  Biso   1.000  O
  O17      1.0000 0.26070  0.26010  0.31617  Biso   1.000  O
  O18      1.0000 0.23930  0.73990  0.81617  Biso   1.000  O
  O19      1.0000 0.73930  0.76010  0.18383  Biso   1.000  O
  O20      1.0000 0.76070  0.23990  0.68383  Biso   1.000  O
  O21      1.0000 0.73930  0.73990  0.68383  Biso   1.000  O
  O22      1.0000 0.76070  0.26010  0.18383  Biso   1.000  O
  O23      1.0000 0.26070  0.23990  0.81617  Biso   1.000  O
  O24      1.0000 0.23930  0.76010  0.31617  Biso   1.000  O
  O25      1.0000 0.14616  0.27220  0.32704  Biso   1.000  O
  O26      1.0000 0.35384  0.72780  0.82704  Biso   1.000  O
  O27      1.0000 0.85384  0.77220  0.17296  Biso   1.000  O
  O28      1.0000 0.64616  0.22780  0.67296  Biso   1.000  O
  O29      1.0000 0.85384  0.72780  0.67296  Biso   1.000  O
  O30      1.0000 0.64616  0.27220  0.17296  Biso   1.000  O
  O31      1.0000 0.14616  0.22780  0.82704  Biso   1.000  O
  O32      1.0000 0.35384  0.77220  0.32704  Biso   1.000  O
  O33      1.0000 0.03300  0.69290  0.42670  Biso   1.000  O
  O34      1.0000 0.46700  0.30710  0.92670  Biso   1.000  O
  O35      1.0000 0.96700  0.19290  0.07330  Biso   1.000  O
  O36      1.0000 0.53300  0.80710  0.57330  Biso   1.000  O
  O37      1.0000 0.96700  0.30710  0.57330  Biso   1.000  O
  O38      1.0000 0.53300  0.69290  0.07330  Biso   1.000  O
  O39      1.0000 0.03300  0.80710  0.92670  Biso   1.000  O
  O40      1.0000 0.46700  0.19290  0.42670  Biso   1.000  O
  O41      1.0000 0.02350  0.64690  0.35740  Biso   1.000  O
  O42      1.0000 0.47650  0.35310  0.85740  Biso   1.000  O
  O43      1.0000 0.97650  0.14690  0.14260  Biso   1.000  O
  O44      1.0000 0.52350  0.85310  0.64260  Biso   1.000  O
  O45      1.0000 0.97650  0.35310  0.64260  Biso   1.000  O
  O46      1.0000 0.52350  0.64690  0.14260  Biso   1.000  O
  O47      1.0000 0.02350  0.85310  0.85740  Biso   1.000  O
  O48      1.0000 0.47650  0.14690  0.35740  Biso   1.000  O
  S17      1.0000 0.87140  0.19410  0.41000  Biso   1.000  S
  S18      1.0000 0.62860  0.80590  0.91000  Biso   1.000  S
  S19      1.0000 0.12860  0.69410  0.09000  Biso   1.000  S
  S20      1.0000 0.37140  0.30590  0.59000  Biso   1.000  S
  S21      1.0000 0.12860  0.80590  0.59000  Biso   1.000  S
  S22      1.0000 0.37140  0.19410  0.09000  Biso   1.000  S
  S23      1.0000 0.87140  0.30590  0.91000  Biso   1.000  S
  S24      1.0000 0.62860  0.69410  0.41000  Biso   1.000  S
  C313     1.0000 0.92980  0.15310  0.44950  Biso   1.000  C
  C314     1.0000 0.57020  0.84690  0.94950  Biso   1.000  C
  C315     1.0000 0.07020  0.65310  0.05050  Biso   1.000  C
  C316     1.0000 0.42980  0.34690  0.55050  Biso   1.000  C
  C317     1.0000 0.07020  0.84690  0.55050  Biso   1.000  C
  C318     1.0000 0.42980  0.15310  0.05050  Biso   1.000  C
  C319     1.0000 0.92980  0.34690  0.94950  Biso   1.000  C
  C320     1.0000 0.57020  0.65310  0.44950  Biso   1.000  C
  H273     1.0000 0.91760  0.17000  0.48040  Biso   1.000  H
  H274     1.0000 0.58240  0.83000  0.98040  Biso   1.000  H
  H275     1.0000 0.08240  0.67000  0.01960  Biso   1.000  H
  H276     1.0000 0.41760  0.33000  0.51960  Biso   1.000  H
  H277     1.0000 0.08240  0.83000  0.51960  Biso   1.000  H
  H278     1.0000 0.41760  0.17000  0.01960  Biso   1.000  H
  H279     1.0000 0.91760  0.33000  0.98040  Biso   1.000  H
  H280     1.0000 0.58240  0.67000  0.48040  Biso   1.000  H
  H281     1.0000 0.97630  0.17100  0.44220  Biso   1.000  H
  H282     1.0000 0.52370  0.82900  0.94220  Biso   1.000  H
  H283     1.0000 0.02370  0.67100  0.05780  Biso   1.000  H
  H284     1.0000 0.47630  0.32900  0.55780  Biso   1.000  H
  H285     1.0000 0.02370  0.82900  0.55780  Biso   1.000  H
  H286     1.0000 0.47630  0.17100  0.05780  Biso   1.000  H
  H287     1.0000 0.97630  0.32900  0.94220  Biso   1.000  H
  H288     1.0000 0.52370  0.67100  0.44220  Biso   1.000  H
  H289     1.0000 0.92790  0.09540  0.44770  Biso   1.000  H
  H290     1.0000 0.57210  0.90460  0.94770  Biso   1.000  H
  H291     1.0000 0.07210  0.59540  0.05230  Biso   1.000  H
  H292     1.0000 0.42790  0.40460  0.55230  Biso   1.000  H
  H293     1.0000 0.07210  0.90460  0.55230  Biso   1.000  H
  H294     1.0000 0.42790  0.09540  0.05230  Biso   1.000  H
  H295     1.0000 0.92790  0.40460  0.94770  Biso   1.000  H
  H296     1.0000 0.57210  0.59540  0.44770  Biso   1.000  H
  C321     1.0000 0.91430  0.11440  0.37490  Biso   1.000  C
  C322     1.0000 0.58570  0.88560  0.87490  Biso   1.000  C
  C323     1.0000 0.08570  0.61440  0.12510  Biso   1.000  C
  C324     1.0000 0.41430  0.38560  0.62510  Biso   1.000  C
  C325     1.0000 0.08570  0.88560  0.62510  Biso   1.000  C
  C326     1.0000 0.41430  0.11440  0.12510  Biso   1.000  C
  C327     1.0000 0.91430  0.38560  0.87490  Biso   1.000  C
  C328     1.0000 0.58570  0.61440  0.37490  Biso   1.000  C
  H297     1.0000 0.88040  0.08990  0.35460  Biso   1.000  H
  H298     1.0000 0.61960  0.91010  0.85460  Biso   1.000  H
  H299     1.0000 0.11960  0.58990  0.14540  Biso   1.000  H
  H300     1.0000 0.38040  0.41010  0.64540  Biso   1.000  H
  H301     1.0000 0.11960  0.91010  0.64540  Biso   1.000  H
  H302     1.0000 0.38040  0.08990  0.14540  Biso   1.000  H
  H303     1.0000 0.88040  0.41010  0.85460  Biso   1.000  H
  H304     1.0000 0.61960  0.58990  0.35460  Biso   1.000  H
  H305     1.0000 0.93360  0.07440  0.39520  Biso   1.000  H
  H306     1.0000 0.56640  0.92560  0.89520  Biso   1.000  H
  H307     1.0000 0.06640  0.57440  0.10480  Biso   1.000  H
  H308     1.0000 0.43360  0.42560  0.60480  Biso   1.000  H
  H309     1.0000 0.06640  0.92560  0.60480  Biso   1.000  H
  H310     1.0000 0.43360  0.07440  0.10480  Biso   1.000  H
  H311     1.0000 0.93360  0.42560  0.89520  Biso   1.000  H
  H312     1.0000 0.56640  0.57440  0.39520  Biso   1.000  H
  H313     1.0000 0.95100  0.13780  0.35650  Biso   1.000  H
  H314     1.0000 0.54900  0.86220  0.85650  Biso   1.000  H
  H315     1.0000 0.04900  0.63780  0.14350  Biso   1.000  H
  H316     1.0000 0.45100  0.36220  0.64350  Biso   1.000  H
  H317     1.0000 0.04900  0.86220  0.64350  Biso   1.000  H
  H318     1.0000 0.45100  0.13780  0.14350  Biso   1.000  H
  H319     1.0000 0.95100  0.36220  0.85650  Biso   1.000  H
  H320     1.0000 0.54900  0.63780  0.35650  Biso   1.000  H
  O49      1.0000 0.80540  0.14340  0.42150  Biso   1.000  O
  O50      1.0000 0.69460  0.85660  0.92150  Biso   1.000  O
  O51      1.0000 0.19460  0.64340  0.07850  Biso   1.000  O
  O52      1.0000 0.30540  0.35660  0.57850  Biso   1.000  O
  O53      1.0000 0.19460  0.85660  0.57850  Biso   1.000  O
  O54      1.0000 0.30540  0.14340  0.07850  Biso   1.000  O
  O55      1.0000 0.80540  0.35660  0.92150  Biso   1.000  O
  O56      1.0000 0.69460  0.64340  0.42150  Biso   1.000  O
  C329     1.0000 0.08490  0.95010  0.36070  Biso   1.000  C
  C330     1.0000 0.41510  0.04990  0.86070  Biso   1.000  C
  C331     1.0000 0.91510  0.45010  0.13930  Biso   1.000  C
  C332     1.0000 0.58490  0.54990  0.63930  Biso   1.000  C
  C333     1.0000 0.91510  0.04990  0.63930  Biso   1.000  C
  C334     1.0000 0.58490  0.95010  0.13930  Biso   1.000  C
  C335     1.0000 0.08490  0.54990  0.86070  Biso   1.000  C
  C336     1.0000 0.41510  0.45010  0.36070  Biso   1.000  C
  H321     1.0000 0.05760  0.91910  0.34080  Biso   1.000  H
  H322     1.0000 0.44240  0.08090  0.84080  Biso   1.000  H
  H323     1.0000 0.94240  0.41910  0.15920  Biso   1.000  H
  H324     1.0000 0.55760  0.58090  0.65920  Biso   1.000  H
  H325     1.0000 0.94240  0.08090  0.65920  Biso   1.000  H
  H326     1.0000 0.55760  0.91910  0.15920  Biso   1.000  H
  H327     1.0000 0.05760  0.58090  0.84080  Biso   1.000  H
  H328     1.0000 0.44240  0.41910  0.34080  Biso   1.000  H
  C337     1.0000 0.12960  0.90950  0.38530  Biso   1.000  C
  C338     1.0000 0.37040  0.09050  0.88530  Biso   1.000  C
  C339     1.0000 0.87040  0.40950  0.11470  Biso   1.000  C
  C340     1.0000 0.62960  0.59050  0.61470  Biso   1.000  C
  C341     1.0000 0.87040  0.09050  0.61470  Biso   1.000  C
  C342     1.0000 0.62960  0.90950  0.11470  Biso   1.000  C
  C343     1.0000 0.12960  0.59050  0.88530  Biso   1.000  C
  C344     1.0000 0.37040  0.40950  0.38530  Biso   1.000  C
  H329     1.0000 0.13130  0.85370  0.38290  Biso   1.000  H
  H330     1.0000 0.36870  0.14630  0.88290  Biso   1.000  H
  H331     1.0000 0.86870  0.35370  0.11710  Biso   1.000  H
  H332     1.0000 0.63130  0.64630  0.61710  Biso   1.000  H
  H333     1.0000 0.86870  0.14630  0.61710  Biso   1.000  H
  H334     1.0000 0.63130  0.85370  0.11710  Biso   1.000  H
  H335     1.0000 0.13130  0.64630  0.88290  Biso   1.000  H
  H336     1.0000 0.36870  0.35370  0.38290  Biso   1.000  H
  C345     1.0000 0.17850  0.95270  0.41750  Biso   1.000  C
  C346     1.0000 0.32150  0.04730  0.91750  Biso   1.000  C
  C347     1.0000 0.82150  0.45270  0.08250  Biso   1.000  C
  C348     1.0000 0.67850  0.54730  0.58250  Biso   1.000  C
  C349     1.0000 0.82150  0.04730  0.58250  Biso   1.000  C
  C350     1.0000 0.67850  0.95270  0.08250  Biso   1.000  C
  C351     1.0000 0.17850  0.54730  0.91750  Biso   1.000  C
  C352     1.0000 0.32150  0.45270  0.41750  Biso   1.000  C
  H337     1.0000 0.21220  0.92790  0.43600  Biso   1.000  H
  H338     1.0000 0.28780  0.07210  0.93600  Biso   1.000  H
  H339     1.0000 0.78780  0.42790  0.06400  Biso   1.000  H
  H340     1.0000 0.71220  0.57210  0.56400  Biso   1.000  H
  H341     1.0000 0.78780  0.07210  0.56400  Biso   1.000  H
  H342     1.0000 0.71220  0.92790  0.06400  Biso   1.000  H
  H343     1.0000 0.21220  0.57210  0.93600  Biso   1.000  H
  H344     1.0000 0.28780  0.42790  0.43600  Biso   1.000  H
  C353     1.0000 0.16530  0.04100  0.41580  Biso   1.000  C
  C354     1.0000 0.33470  0.95900  0.91580  Biso   1.000  C
  C355     1.0000 0.83470  0.54100  0.08420  Biso   1.000  C
  C356     1.0000 0.66530  0.45900  0.58420  Biso   1.000  C
  C357     1.0000 0.83470  0.95900  0.58420  Biso   1.000  C
  C358     1.0000 0.66530  0.04100  0.08420  Biso   1.000  C
  C359     1.0000 0.16530  0.45900  0.91580  Biso   1.000  C
  C360     1.0000 0.33470  0.54100  0.41580  Biso   1.000  C
  H345     1.0000 0.19060  0.07730  0.43390  Biso   1.000  H
  H346     1.0000 0.30940  0.92270  0.93390  Biso   1.000  H
  H347     1.0000 0.80940  0.57730  0.06610  Biso   1.000  H
  H348     1.0000 0.69060  0.42270  0.56610  Biso   1.000  H
  H349     1.0000 0.80940  0.92270  0.56610  Biso   1.000  H
  H350     1.0000 0.69060  0.07730  0.06610  Biso   1.000  H
  H351     1.0000 0.19060  0.42270  0.93390  Biso   1.000  H
  H352     1.0000 0.30940  0.57730  0.43390  Biso   1.000  H
  C361     1.0000 0.11540  0.06470  0.38690  Biso   1.000  C
  C362     1.0000 0.38460  0.93530  0.88690  Biso   1.000  C
  C363     1.0000 0.88460  0.56470  0.11310  Biso   1.000  C
  C364     1.0000 0.61540  0.43530  0.61310  Biso   1.000  C
  C365     1.0000 0.88460  0.93530  0.61310  Biso   1.000  C
  C366     1.0000 0.61540  0.06470  0.11310  Biso   1.000  C
  C367     1.0000 0.11540  0.43530  0.88690  Biso   1.000  C
  C368     1.0000 0.38460  0.56470  0.38690  Biso   1.000  C
  H353     1.0000 0.10990  0.12030  0.38620  Biso   1.000  H
  H354     1.0000 0.39010  0.87970  0.88620  Biso   1.000  H
  H355     1.0000 0.89010  0.62030  0.11380  Biso   1.000  H
  H356     1.0000 0.60990  0.37970  0.61380  Biso   1.000  H
  H357     1.0000 0.89010  0.87970  0.61380  Biso   1.000  H
  H358     1.0000 0.60990  0.12030  0.11380  Biso   1.000  H
  H359     1.0000 0.10990  0.37970  0.88620  Biso   1.000  H
  H360     1.0000 0.39010  0.62030  0.38620  Biso   1.000  H
  N33      1.0000 0.07200  0.02700  0.35910  Biso   1.000  N
  N34      1.0000 0.42800  0.97300  0.85910  Biso   1.000  N
  N35      1.0000 0.92800  0.52700  0.14090  Biso   1.000  N
  N36      1.0000 0.57200  0.47300  0.64090  Biso   1.000  N
  N37      1.0000 0.92800  0.97300  0.64090  Biso   1.000  N
  N38      1.0000 0.57200  0.02700  0.14090  Biso   1.000  N
  N39      1.0000 0.07200  0.47300  0.85910  Biso   1.000  N
  N40      1.0000 0.42800  0.52700  0.35910  Biso   1.000  N
