data_image0
_cell_length_a       17.1433
_cell_length_b       33.3982
_cell_length_c       18.4415
_cell_angle_alpha    90
_cell_angle_beta     111.875
_cell_angle_gamma    90

_symmetry_space_group_name_H-M    "P 1"
_symmetry_int_tables_number       1

loop_
  _symmetry_equiv_pos_as_xyz
  'x, y, z'

loop_
  _atom_site_label
  _atom_site_occupancy
  _atom_site_fract_x
  _atom_site_fract_y
  _atom_site_fract_z
  _atom_site_thermal_displace_type
  _atom_site_B_iso_or_equiv
  _atom_site_type_symbol
  La1      1.0000 0.76193  0.09143  0.22801  Biso   1.000  La
  La2      1.0000 0.73807  0.59143  0.27199  Biso   1.000  La
  La3      1.0000 0.23807  0.90857  0.77199  Biso   1.000  La
  La4      1.0000 0.26193  0.40857  0.72801  Biso   1.000  La
  La5      1.0000 0.75989  0.21161  0.74060  Biso   1.000  La
  La6      1.0000 0.74011  0.71161  0.75940  Biso   1.000  La
  La7      1.0000 0.24011  0.78839  0.25940  Biso   1.000  La
  La8      1.0000 0.25989  0.28839  0.24060  Biso   1.000  La
  La9      1.0000 0.76681  0.96284  0.71850  Biso   1.000  La
  La10     1.0000 0.73319  0.46284  0.78150  Biso   1.000  La
  La11     1.0000 0.23319  0.03716  0.28150  Biso   1.000  La
  La12     1.0000 0.26681  0.53716  0.21850  Biso   1.000  La
  La13     1.0000 0.74462  0.83719  0.24726  Biso   1.000  La
  La14     1.0000 0.75539  0.33719  0.25274  Biso   1.000  La
  La15     1.0000 0.25539  0.16281  0.75274  Biso   1.000  La
  La16     1.0000 0.24462  0.66281  0.74726  Biso   1.000  La
  Cu1      1.0000 0.59393  0.09984  0.44955  Biso   1.000  Cu
  Cu2      1.0000 0.90607  0.59984  0.05045  Biso   1.000  Cu
  Cu3      1.0000 0.40607  0.90016  0.55045  Biso   1.000  Cu
  Cu4      1.0000 0.09393  0.40016  0.94955  Biso   1.000  Cu
  Cu5      1.0000 0.89522  0.22843  0.56097  Biso   1.000  Cu
  Cu6      1.0000 0.60478  0.72843  0.93903  Biso   1.000  Cu
  Cu7      1.0000 0.10478  0.77157  0.43903  Biso   1.000  Cu
  Cu8      1.0000 0.39522  0.27157  0.06097  Biso   1.000  Cu
  Cu9      1.0000 0.89465  0.85626  0.03001  Biso   1.000  Cu
  Cu10     1.0000 0.60535  0.35626  0.46999  Biso   1.000  Cu
  Cu11     1.0000 0.10535  0.14374  0.96999  Biso   1.000  Cu
  Cu12     1.0000 0.39465  0.64374  0.53001  Biso   1.000  Cu
  Cu13     1.0000 0.89175  0.98249  0.53187  Biso   1.000  Cu
  Cu14     1.0000 0.60825  0.48249  0.96813  Biso   1.000  Cu
  Cu15     1.0000 0.10825  0.01751  0.46813  Biso   1.000  Cu
  Cu16     1.0000 0.39175  0.51751  0.03187  Biso   1.000  Cu
  Cu17     1.0000 0.89427  0.10858  0.05356  Biso   1.000  Cu
  Cu18     1.0000 0.60573  0.60858  0.44644  Biso   1.000  Cu
  Cu19     1.0000 0.10573  0.89142  0.94644  Biso   1.000  Cu
  Cu20     1.0000 0.39427  0.39142  0.55356  Biso   1.000  Cu
  Cu21     1.0000 0.59743  0.85350  0.42208  Biso   1.000  Cu
  Cu22     1.0000 0.90257  0.35350  0.07792  Biso   1.000  Cu
  Cu23     1.0000 0.40257  0.14650  0.57792  Biso   1.000  Cu
  Cu24     1.0000 0.09743  0.64650  0.92208  Biso   1.000  Cu
  Cu25     1.0000 0.59193  0.97499  0.94535  Biso   1.000  Cu
  Cu26     1.0000 0.90807  0.47499  0.55465  Biso   1.000  Cu
  Cu27     1.0000 0.40807  0.02501  0.05465  Biso   1.000  Cu
  Cu28     1.0000 0.09193  0.52501  0.44535  Biso   1.000  Cu
  Cu29     1.0000 0.60207  0.22682  0.95835  Biso   1.000  Cu
  Cu30     1.0000 0.89793  0.72682  0.54165  Biso   1.000  Cu
  Cu31     1.0000 0.39793  0.77318  0.04165  Biso   1.000  Cu
  Cu32     1.0000 0.10207  0.27318  0.45835  Biso   1.000  Cu
  Cl1      1.0000 0.91136  0.78965  0.02975  Biso   1.000  Cl
  Cl2      1.0000 0.58864  0.28965  0.47025  Biso   1.000  Cl
  Cl3      1.0000 0.08864  0.21035  0.97025  Biso   1.000  Cl
  Cl4      1.0000 0.41136  0.71035  0.52975  Biso   1.000  Cl
  Cl5      1.0000 0.57105  0.03421  0.45070  Biso   1.000  Cl
  Cl6      1.0000 0.92895  0.53421  0.04930  Biso   1.000  Cl
  Cl7      1.0000 0.42895  0.96579  0.54930  Biso   1.000  Cl
  Cl8      1.0000 0.07105  0.46579  0.95070  Biso   1.000  Cl
  Cl9      1.0000 0.58048  0.16093  0.95696  Biso   1.000  Cl
  Cl10     1.0000 0.91952  0.66093  0.54304  Biso   1.000  Cl
  Cl11     1.0000 0.41952  0.83907  0.04304  Biso   1.000  Cl
  Cl12     1.0000 0.08048  0.33907  0.45696  Biso   1.000  Cl
  Cl13     1.0000 0.90635  0.16195  0.55200  Biso   1.000  Cl
  Cl14     1.0000 0.59365  0.66195  0.94800  Biso   1.000  Cl
  Cl15     1.0000 0.09365  0.83805  0.44800  Biso   1.000  Cl
  Cl16     1.0000 0.40635  0.33805  0.05200  Biso   1.000  Cl
  Cl17     1.0000 0.89895  0.91557  0.52058  Biso   1.000  Cl
  Cl18     1.0000 0.60105  0.41557  0.97942  Biso   1.000  Cl
  Cl19     1.0000 0.10105  0.08443  0.47942  Biso   1.000  Cl
  Cl20     1.0000 0.39895  0.58443  0.02058  Biso   1.000  Cl
  Cl21     1.0000 0.90534  0.04156  0.05167  Biso   1.000  Cl
  Cl22     1.0000 0.59466  0.54156  0.44833  Biso   1.000  Cl
  Cl23     1.0000 0.09466  0.95844  0.94833  Biso   1.000  Cl
  Cl24     1.0000 0.40534  0.45844  0.55167  Biso   1.000  Cl
  Cl25     1.0000 0.58199  0.78691  0.42502  Biso   1.000  Cl
  Cl26     1.0000 0.91801  0.28691  0.07498  Biso   1.000  Cl
  Cl27     1.0000 0.41801  0.21309  0.57498  Biso   1.000  Cl
  Cl28     1.0000 0.08199  0.71309  0.92502  Biso   1.000  Cl
  Cl29     1.0000 0.57420  0.91014  0.96347  Biso   1.000  Cl
  Cl30     1.0000 0.92580  0.41014  0.53653  Biso   1.000  Cl
  Cl31     1.0000 0.42580  0.08986  0.03653  Biso   1.000  Cl
  Cl32     1.0000 0.07420  0.58986  0.46347  Biso   1.000  Cl
  K1       1.0000 0.74437  0.21581  0.27355  Biso   1.000  K
  K2       1.0000 0.75563  0.71581  0.22645  Biso   1.000  K
  K3       1.0000 0.25563  0.78419  0.72645  Biso   1.000  K
  K4       1.0000 0.24437  0.28419  0.77355  Biso   1.000  K
  K5       1.0000 0.73625  0.34153  0.76741  Biso   1.000  K
  K6       1.0000 0.76375  0.84153  0.73259  Biso   1.000  K
  K7       1.0000 0.26375  0.65847  0.23259  Biso   1.000  K
  K8       1.0000 0.23625  0.15847  0.26741  Biso   1.000  K
  K9       1.0000 0.75295  0.08866  0.76549  Biso   1.000  K
  K10      1.0000 0.74705  0.58866  0.73451  Biso   1.000  K
  K11      1.0000 0.24705  0.91134  0.23451  Biso   1.000  K
  K12      1.0000 0.25295  0.41134  0.26549  Biso   1.000  K
  K13      1.0000 0.76488  0.96806  0.23577  Biso   1.000  K
  K14      1.0000 0.73512  0.46806  0.26423  Biso   1.000  K
  K15      1.0000 0.23512  0.03194  0.76423  Biso   1.000  K
  K16      1.0000 0.26488  0.53194  0.73577  Biso   1.000  K
  O1       1.0000 0.67530  0.85999  0.53107  Biso   1.000  O
  O2       1.0000 0.82470  0.35999  0.96893  Biso   1.000  O
  O3       1.0000 0.32470  0.14001  0.46893  Biso   1.000  O
  O4       1.0000 0.17530  0.64001  0.03107  Biso   1.000  O
  O5       1.0000 0.71980  0.90497  0.62645  Biso   1.000  O
  O6       1.0000 0.78020  0.40497  0.87355  Biso   1.000  O
  O7       1.0000 0.28020  0.09503  0.37355  Biso   1.000  O
  O8       1.0000 0.21980  0.59503  0.12645  Biso   1.000  O
  O9       1.0000 0.82220  0.23947  0.45070  Biso   1.000  O
  O10      1.0000 0.67780  0.73947  0.04930  Biso   1.000  O
  O11      1.0000 0.17780  0.76053  0.54930  Biso   1.000  O
  O12      1.0000 0.32220  0.26053  0.95070  Biso   1.000  O
  O13      1.0000 0.67600  0.09733  0.39120  Biso   1.000  O
  O14      1.0000 0.82400  0.59733  0.10880  Biso   1.000  O
  O15      1.0000 0.32400  0.90267  0.60880  Biso   1.000  O
  O16      1.0000 0.17600  0.40267  0.89120  Biso   1.000  O
  O17      1.0000 0.48625  0.24474  0.87940  Biso   1.000  O
  O18      1.0000 0.01375  0.74474  0.62060  Biso   1.000  O
  O19      1.0000 0.51375  0.75526  0.12060  Biso   1.000  O
  O20      1.0000 0.98625  0.25526  0.37940  Biso   1.000  O
  N1       1.0000 0.61805  0.15854  0.44952  Biso   1.000  N
  N2       1.0000 0.88195  0.65854  0.05048  Biso   1.000  N
  N3       1.0000 0.38195  0.84146  0.55048  Biso   1.000  N
  N4       1.0000 0.11805  0.34146  0.94952  Biso   1.000  N
  N5       1.0000 0.60620  0.91437  0.42035  Biso   1.000  N
  N6       1.0000 0.89380  0.41437  0.07965  Biso   1.000  N
  N7       1.0000 0.39380  0.08563  0.57965  Biso   1.000  N
  N8       1.0000 0.10620  0.58563  0.92035  Biso   1.000  N
  O21      1.0000 0.63090  0.23589  0.07372  Biso   1.000  O
  O22      1.0000 0.86910  0.73589  0.42628  Biso   1.000  O
  O23      1.0000 0.36910  0.76411  0.92628  Biso   1.000  O
  O24      1.0000 0.13090  0.26411  0.57372  Biso   1.000  O
  O25      1.0000 0.68900  0.22483  0.90661  Biso   1.000  O
  O26      1.0000 0.81100  0.72483  0.59339  Biso   1.000  O
  O27      1.0000 0.31100  0.77517  0.09339  Biso   1.000  O
  O28      1.0000 0.18900  0.27517  0.40661  Biso   1.000  O
  O29      1.0000 0.81900  0.91291  0.82539  Biso   1.000  O
  O30      1.0000 0.68100  0.41291  0.67461  Biso   1.000  O
  O31      1.0000 0.18100  0.08709  0.17461  Biso   1.000  O
  O32      1.0000 0.31900  0.58709  0.32539  Biso   1.000  O
  O33      1.0000 0.80710  0.85485  0.08180  Biso   1.000  O
  O34      1.0000 0.69290  0.35485  0.41820  Biso   1.000  O
  O35      1.0000 0.19290  0.14515  0.91820  Biso   1.000  O
  O36      1.0000 0.30710  0.64515  0.58180  Biso   1.000  O
  O37      1.0000 0.82850  0.11714  0.94142  Biso   1.000  O
  O38      1.0000 0.67150  0.61714  0.55858  Biso   1.000  O
  O39      1.0000 0.17150  0.88286  0.05858  Biso   1.000  O
  O40      1.0000 0.32850  0.38286  0.44142  Biso   1.000  O
  N9       1.0000 0.87844  0.91593  0.03343  Biso   1.000  N
  N10      1.0000 0.62156  0.41593  0.46657  Biso   1.000  N
  N11      1.0000 0.12156  0.08407  0.96657  Biso   1.000  N
  N12      1.0000 0.37844  0.58407  0.53343  Biso   1.000  N
  O41      1.0000 0.00645  0.87092  0.12300  Biso   1.000  O
  O42      1.0000 0.49355  0.37092  0.37700  Biso   1.000  O
  O43      1.0000 0.99355  0.12908  0.87700  Biso   1.000  O
  O44      1.0000 0.50645  0.62908  0.62300  Biso   1.000  O
  O45      1.0000 0.98430  0.11351  0.15538  Biso   1.000  O
  O46      1.0000 0.51570  0.61351  0.34462  Biso   1.000  O
  O47      1.0000 0.01570  0.88649  0.84462  Biso   1.000  O
  O48      1.0000 0.48430  0.38649  0.65538  Biso   1.000  O
  N13      1.0000 0.62467  0.28588  0.95870  Biso   1.000  N
  N14      1.0000 0.87533  0.78588  0.54130  Biso   1.000  N
  N15      1.0000 0.37533  0.71412  0.04130  Biso   1.000  N
  N16      1.0000 0.12467  0.21412  0.45870  Biso   1.000  N
  O49      1.0000 0.82960  0.99299  0.42109  Biso   1.000  O
  O50      1.0000 0.67040  0.49299  0.07891  Biso   1.000  O
  O51      1.0000 0.17040  0.00701  0.57891  Biso   1.000  O
  O52      1.0000 0.32960  0.50701  0.92109  Biso   1.000  O
  O53      1.0000 0.79951  0.11541  0.11086  Biso   1.000  O
  O54      1.0000 0.70049  0.61541  0.38914  Biso   1.000  O
  O55      1.0000 0.20049  0.88459  0.88914  Biso   1.000  O
  O56      1.0000 0.29951  0.38459  0.61086  Biso   1.000  O
  O57      1.0000 0.80530  0.03961  0.33087  Biso   1.000  O
  O58      1.0000 0.69470  0.53961  0.16913  Biso   1.000  O
  O59      1.0000 0.19470  0.96039  0.66913  Biso   1.000  O
  O60      1.0000 0.30530  0.46039  0.83087  Biso   1.000  O
  C1       1.0000 0.84050  0.90112  0.89410  Biso   1.000  C
  C2       1.0000 0.65950  0.40112  0.60590  Biso   1.000  C
  C3       1.0000 0.15950  0.09888  0.10590  Biso   1.000  C
  C4       1.0000 0.34050  0.59888  0.39410  Biso   1.000  C
  C5       1.0000 0.83330  0.15215  0.91770  Biso   1.000  C
  C6       1.0000 0.66670  0.65215  0.58230  Biso   1.000  C
  C7       1.0000 0.16670  0.84785  0.08230  Biso   1.000  C
  C8       1.0000 0.33330  0.34785  0.41770  Biso   1.000  C
  O61      1.0000 0.71740  0.03363  0.14000  Biso   1.000  O
  O62      1.0000 0.78260  0.53363  0.36000  Biso   1.000  O
  O63      1.0000 0.28260  0.96637  0.86000  Biso   1.000  O
  O64      1.0000 0.21740  0.46637  0.64000  Biso   1.000  O
  O65      1.0000 0.86800  0.86648  0.91676  Biso   1.000  O
  O66      1.0000 0.63200  0.36648  0.58324  Biso   1.000  O
  O67      1.0000 0.13200  0.13352  0.08324  Biso   1.000  O
  O68      1.0000 0.36800  0.63352  0.41676  Biso   1.000  O
  O69      1.0000 0.80066  0.98716  0.59684  Biso   1.000  O
  O70      1.0000 0.69934  0.48716  0.90316  Biso   1.000  O
  O71      1.0000 0.19934  0.01284  0.40316  Biso   1.000  O
  O72      1.0000 0.30066  0.51284  0.09684  Biso   1.000  O
  C9       1.0000 0.97480  0.30102  0.63070  Biso   1.000  C
  C10      1.0000 0.52520  0.80102  0.86930  Biso   1.000  C
  C11      1.0000 0.02520  0.69898  0.36930  Biso   1.000  C
  C12      1.0000 0.47480  0.19898  0.13070  Biso   1.000  C
  H1       1.0000 0.96460  0.32220  0.66190  Biso   1.000  H
  H2       1.0000 0.53540  0.82220  0.83810  Biso   1.000  H
  H3       1.0000 0.03540  0.67780  0.33810  Biso   1.000  H
  H4       1.0000 0.46460  0.17780  0.16190  Biso   1.000  H
  H5       1.0000 0.01210  0.31150  0.60650  Biso   1.000  H
  H6       1.0000 0.48790  0.81150  0.89350  Biso   1.000  H
  H7       1.0000 0.98790  0.68850  0.39350  Biso   1.000  H
  H8       1.0000 0.51210  0.18850  0.10650  Biso   1.000  H
  O73      1.0000 0.76730  0.28326  0.68500  Biso   1.000  O
  O74      1.0000 0.73270  0.78326  0.81500  Biso   1.000  O
  O75      1.0000 0.23270  0.71674  0.31500  Biso   1.000  O
  O76      1.0000 0.26730  0.21674  0.18500  Biso   1.000  O
  O77      1.0000 0.77830  0.03536  0.66844  Biso   1.000  O
  O78      1.0000 0.72170  0.53536  0.83156  Biso   1.000  O
  O79      1.0000 0.22170  0.96464  0.33156  Biso   1.000  O
  O80      1.0000 0.27830  0.46464  0.16844  Biso   1.000  O
  O81      1.0000 0.80826  0.23447  0.62734  Biso   1.000  O
  O82      1.0000 0.69174  0.73447  0.87266  Biso   1.000  O
  O83      1.0000 0.19174  0.76553  0.37266  Biso   1.000  O
  O84      1.0000 0.30826  0.26553  0.12734  Biso   1.000  O
  C13      1.0000 0.79820  0.27148  0.63770  Biso   1.000  C
  C14      1.0000 0.70180  0.77148  0.86230  Biso   1.000  C
  C15      1.0000 0.20180  0.72852  0.36230  Biso   1.000  C
  C16      1.0000 0.29820  0.22852  0.13770  Biso   1.000  C
  C17      1.0000 0.83440  0.02863  0.40070  Biso   1.000  C
  C18      1.0000 0.66560  0.52863  0.09930  Biso   1.000  C
  C19      1.0000 0.16560  0.97137  0.59930  Biso   1.000  C
  C20      1.0000 0.33440  0.47137  0.90070  Biso   1.000  C
  O85      1.0000 0.98680  0.98526  0.62940  Biso   1.000  O
  O86      1.0000 0.51320  0.48526  0.87060  Biso   1.000  O
  O87      1.0000 0.01320  0.01474  0.37060  Biso   1.000  O
  O88      1.0000 0.48680  0.51474  0.12940  Biso   1.000  O
  O89      1.0000 0.89220  0.05412  0.22510  Biso   1.000  O
  O90      1.0000 0.60780  0.55412  0.27490  Biso   1.000  O
  O91      1.0000 0.10780  0.94588  0.77490  Biso   1.000  O
  O92      1.0000 0.39220  0.44588  0.72510  Biso   1.000  O
  O93      1.0000 0.63240  0.10828  0.56664  Biso   1.000  O
  O94      1.0000 0.86760  0.60828  0.93336  Biso   1.000  O
  O95      1.0000 0.36760  0.89172  0.43336  Biso   1.000  O
  O96      1.0000 0.13240  0.39172  0.06664  Biso   1.000  O
  C21      1.0000 0.54300  0.30575  0.94230  Biso   1.000  C
  C22      1.0000 0.95700  0.80575  0.55770  Biso   1.000  C
  C23      1.0000 0.45700  0.69425  0.05770  Biso   1.000  C
  C24      1.0000 0.04300  0.19425  0.44230  Biso   1.000  C
  H9       1.0000 0.54510  0.33290  0.92470  Biso   1.000  H
  H10      1.0000 0.95490  0.83290  0.57530  Biso   1.000  H
  H11      1.0000 0.45490  0.66710  0.07530  Biso   1.000  H
  H12      1.0000 0.04510  0.16710  0.42470  Biso   1.000  H
  H13      1.0000 0.53080  0.30690  0.98960  Biso   1.000  H
  H14      1.0000 0.96920  0.80690  0.51040  Biso   1.000  H
  H15      1.0000 0.46920  0.69310  0.01040  Biso   1.000  H
  H16      1.0000 0.03080  0.19310  0.48960  Biso   1.000  H
  O97      1.0000 0.47592  0.11851  0.37560  Biso   1.000  O
  O98      1.0000 0.02408  0.61851  0.12440  Biso   1.000  O
  O99      1.0000 0.52408  0.88149  0.62440  Biso   1.000  O
  O100     1.0000 0.97592  0.38149  0.87560  Biso   1.000  O
  O101     1.0000 0.67610  0.98509  0.05261  Biso   1.000  O
  O102     1.0000 0.82390  0.48509  0.44739  Biso   1.000  O
  O103     1.0000 0.32390  0.01491  0.94739  Biso   1.000  O
  O104     1.0000 0.17610  0.51491  0.55261  Biso   1.000  O
  O105     1.0000 0.89860  0.12103  0.32120  Biso   1.000  O
  O106     1.0000 0.60140  0.62103  0.17880  Biso   1.000  O
  O107     1.0000 0.10140  0.87897  0.67880  Biso   1.000  O
  O108     1.0000 0.39860  0.37897  0.82120  Biso   1.000  O
  N17      1.0000 0.61300  0.03354  0.93178  Biso   1.000  N
  N18      1.0000 0.88700  0.53354  0.56822  Biso   1.000  N
  N19      1.0000 0.38700  0.96646  0.06822  Biso   1.000  N
  N20      1.0000 0.11300  0.46646  0.43178  Biso   1.000  N
  O109     1.0000 0.61930  0.23524  0.63020  Biso   1.000  O
  O110     1.0000 0.88070  0.73524  0.86980  Biso   1.000  O
  O111     1.0000 0.38070  0.76476  0.36980  Biso   1.000  O
  O112     1.0000 0.11930  0.26476  0.13020  Biso   1.000  O
  O113     1.0000 0.62090  0.12048  0.12920  Biso   1.000  O
  O114     1.0000 0.87910  0.62048  0.37080  Biso   1.000  O
  O115     1.0000 0.37910  0.87952  0.87080  Biso   1.000  O
  O116     1.0000 0.12090  0.37952  0.62920  Biso   1.000  O
  C25      1.0000 0.79720  0.15225  0.12630  Biso   1.000  C
  C26      1.0000 0.70280  0.65225  0.37370  Biso   1.000  C
  C27      1.0000 0.20280  0.84775  0.87370  Biso   1.000  C
  C28      1.0000 0.29720  0.34775  0.62630  Biso   1.000  C
  C29      1.0000 0.67960  0.89527  0.55770  Biso   1.000  C
  C30      1.0000 0.82040  0.39527  0.94230  Biso   1.000  C
  C31      1.0000 0.32040  0.10473  0.44230  Biso   1.000  C
  C32      1.0000 0.17960  0.60473  0.05770  Biso   1.000  C
  O117     1.0000 0.68390  0.85845  0.35663  Biso   1.000  O
  O118     1.0000 0.81610  0.35845  0.14337  Biso   1.000  O
  O119     1.0000 0.31610  0.14155  0.64337  Biso   1.000  O
  O120     1.0000 0.18390  0.64155  0.85663  Biso   1.000  O
  O121     1.0000 0.89760  0.92887  0.71180  Biso   1.000  O
  O122     1.0000 0.60240  0.42887  0.78820  Biso   1.000  O
  O123     1.0000 0.10240  0.07113  0.28820  Biso   1.000  O
  O124     1.0000 0.39760  0.57113  0.21180  Biso   1.000  O
  C33      1.0000 0.67140  0.14085  0.58860  Biso   1.000  C
  C34      1.0000 0.82860  0.64085  0.91140  Biso   1.000  C
  C35      1.0000 0.32860  0.85915  0.41140  Biso   1.000  C
  C36      1.0000 0.17140  0.35915  0.08860  Biso   1.000  C
  O125     1.0000 0.89730  0.24461  0.82600  Biso   1.000  O
  O126     1.0000 0.60270  0.74461  0.67400  Biso   1.000  O
  O127     1.0000 0.10270  0.75539  0.17400  Biso   1.000  O
  O128     1.0000 0.39730  0.25539  0.32600  Biso   1.000  O
  O129     1.0000 0.41189  0.30010  0.83550  Biso   1.000  O
  O130     1.0000 0.08811  0.80010  0.66450  Biso   1.000  O
  O131     1.0000 0.58811  0.69990  0.16450  Biso   1.000  O
  O132     1.0000 0.91189  0.19990  0.33550  Biso   1.000  O
  C37      1.0000 0.52250  0.92878  0.36730  Biso   1.000  C
  C38      1.0000 0.97750  0.42878  0.13270  Biso   1.000  C
  C39      1.0000 0.47750  0.07122  0.63270  Biso   1.000  C
  C40      1.0000 0.02250  0.57122  0.86730  Biso   1.000  C
  H17      1.0000 0.53020  0.95070  0.33610  Biso   1.000  H
  H18      1.0000 0.96980  0.45070  0.16390  Biso   1.000  H
  H19      1.0000 0.46980  0.04930  0.66390  Biso   1.000  H
  H20      1.0000 0.03020  0.54930  0.83610  Biso   1.000  H
  H21      1.0000 0.49210  0.93900  0.39840  Biso   1.000  H
  H22      1.0000 0.00790  0.43900  0.10160  Biso   1.000  H
  H23      1.0000 0.50790  0.06100  0.60160  Biso   1.000  H
  H24      1.0000 0.99210  0.56100  0.89840  Biso   1.000  H
  O133     1.0000 0.80190  0.16221  0.84774  Biso   1.000  O
  O134     1.0000 0.69810  0.66221  0.65226  Biso   1.000  O
  O135     1.0000 0.19810  0.83779  0.15226  Biso   1.000  O
  O136     1.0000 0.30190  0.33779  0.34774  Biso   1.000  O
  O137     1.0000 0.77480  0.16432  0.17952  Biso   1.000  O
  O138     1.0000 0.72520  0.66432  0.32048  Biso   1.000  O
  O139     1.0000 0.22520  0.83568  0.82048  Biso   1.000  O
  O140     1.0000 0.27480  0.33568  0.67952  Biso   1.000  O
  O141     1.0000 0.62490  0.99355  0.62720  Biso   1.000  O
  O142     1.0000 0.87510  0.49355  0.87280  Biso   1.000  O
  O143     1.0000 0.37510  0.00645  0.37280  Biso   1.000  O
  O144     1.0000 0.12490  0.50645  0.12720  Biso   1.000  O
  C41      1.0000 0.67990  0.02139  0.07190  Biso   1.000  C
  C42      1.0000 0.82010  0.52139  0.42810  Biso   1.000  C
  C43      1.0000 0.32010  0.97861  0.92810  Biso   1.000  C
  C44      1.0000 0.17990  0.47861  0.57190  Biso   1.000  C
  C45      1.0000 0.82930  0.27492  0.42900  Biso   1.000  C
  C46      1.0000 0.67070  0.77492  0.07100  Biso   1.000  C
  C47      1.0000 0.17070  0.72508  0.57100  Biso   1.000  C
  C48      1.0000 0.32930  0.22508  0.92900  Biso   1.000  C
  C49      1.0000 0.79690  0.02377  0.61280  Biso   1.000  C
  C50      1.0000 0.70310  0.52377  0.88720  Biso   1.000  C
  C51      1.0000 0.20310  0.97623  0.38720  Biso   1.000  C
  C52      1.0000 0.29690  0.47623  0.11280  Biso   1.000  C
  O145     1.0000 0.88910  0.17005  0.74230  Biso   1.000  O
  O146     1.0000 0.61090  0.67005  0.75770  Biso   1.000  O
  O147     1.0000 0.11090  0.82995  0.25770  Biso   1.000  O
  O148     1.0000 0.38910  0.32995  0.24230  Biso   1.000  O
  C53      1.0000 0.47430  0.28255  0.87960  Biso   1.000  C
  C54      1.0000 0.02570  0.78255  0.62040  Biso   1.000  C
  C55      1.0000 0.52570  0.71745  0.12040  Biso   1.000  C
  C56      1.0000 0.97430  0.21745  0.37960  Biso   1.000  C
  N21      1.0000 0.88792  0.04355  0.54101  Biso   1.000  N
  N22      1.0000 0.61208  0.54355  0.95899  Biso   1.000  N
  N23      1.0000 0.11208  0.95645  0.45899  Biso   1.000  N
  N24      1.0000 0.38792  0.45645  0.04101  Biso   1.000  N
  C57      1.0000 0.67060  0.26820  0.09760  Biso   1.000  C
  C58      1.0000 0.82940  0.76820  0.40240  Biso   1.000  C
  C59      1.0000 0.32940  0.73180  0.90240  Biso   1.000  C
  C60      1.0000 0.17060  0.23180  0.59760  Biso   1.000  C
  O149     1.0000 0.70070  0.27832  0.16756  Biso   1.000  O
  O150     1.0000 0.79930  0.77832  0.33244  Biso   1.000  O
  O151     1.0000 0.29930  0.72168  0.83244  Biso   1.000  O
  O152     1.0000 0.20070  0.22168  0.66756  Biso   1.000  O
  C61      1.0000 0.69860  0.89487  0.34820  Biso   1.000  C
  C62      1.0000 0.80140  0.39487  0.15180  Biso   1.000  C
  C63      1.0000 0.30140  0.10513  0.65180  Biso   1.000  C
  C64      1.0000 0.19860  0.60513  0.84820  Biso   1.000  C
  N25      1.0000 0.89397  0.28932  0.56863  Biso   1.000  N
  N26      1.0000 0.60603  0.78932  0.93137  Biso   1.000  N
  N27      1.0000 0.10603  0.71068  0.43137  Biso   1.000  N
  N28      1.0000 0.39397  0.21068  0.06863  Biso   1.000  N
  C65      1.0000 0.81890  0.18198  0.07480  Biso   1.000  C
  C66      1.0000 0.68110  0.68198  0.42520  Biso   1.000  C
  C67      1.0000 0.18110  0.81802  0.92520  Biso   1.000  C
  C68      1.0000 0.31890  0.31802  0.57480  Biso   1.000  C
  H25      1.0000 0.77080  0.18510  0.02630  Biso   1.000  H
  H26      1.0000 0.72920  0.68510  0.47370  Biso   1.000  H
  H27      1.0000 0.22920  0.81490  0.97370  Biso   1.000  H
  H28      1.0000 0.27080  0.31490  0.52630  Biso   1.000  H
  H29      1.0000 0.83020  0.20780  0.10070  Biso   1.000  H
  H30      1.0000 0.66980  0.70780  0.39930  Biso   1.000  H
  H31      1.0000 0.16980  0.79220  0.89930  Biso   1.000  H
  H32      1.0000 0.33020  0.29220  0.60070  Biso   1.000  H
  O153     1.0000 0.07570  0.27346  0.74540  Biso   1.000  O
  O154     1.0000 0.42430  0.77346  0.75460  Biso   1.000  O
  O155     1.0000 0.92430  0.72654  0.25460  Biso   1.000  O
  O156     1.0000 0.57570  0.22654  0.24540  Biso   1.000  O
  C69      1.0000 0.82090  0.30156  0.58760  Biso   1.000  C
  C70      1.0000 0.67910  0.80156  0.91240  Biso   1.000  C
  C71      1.0000 0.17910  0.69844  0.41240  Biso   1.000  C
  C72      1.0000 0.32090  0.19844  0.08760  Biso   1.000  C
  H33      1.0000 0.77280  0.30530  0.53930  Biso   1.000  H
  H34      1.0000 0.72720  0.80530  0.96070  Biso   1.000  H
  H35      1.0000 0.22720  0.69470  0.46070  Biso   1.000  H
  H36      1.0000 0.27280  0.19470  0.03930  Biso   1.000  H
  H37      1.0000 0.83310  0.32710  0.61460  Biso   1.000  H
  H38      1.0000 0.66690  0.82710  0.88540  Biso   1.000  H
  H39      1.0000 0.16690  0.67290  0.38540  Biso   1.000  H
  H40      1.0000 0.33310  0.17290  0.11460  Biso   1.000  H
  O157     1.0000 0.99220  0.23107  0.65860  Biso   1.000  O
  O158     1.0000 0.50780  0.73107  0.84140  Biso   1.000  O
  O159     1.0000 0.00780  0.76893  0.34140  Biso   1.000  O
  O160     1.0000 0.49220  0.26893  0.15860  Biso   1.000  O
  O161     1.0000 0.62700  0.18900  0.76130  Biso   1.000  O
  O162     1.0000 0.87300  0.68900  0.73870  Biso   1.000  O
  O163     1.0000 0.37300  0.81100  0.23870  Biso   1.000  O
  O164     1.0000 0.12700  0.31100  0.26130  Biso   1.000  O
  O165     1.0000 0.64460  0.92551  0.73340  Biso   1.000  O
  O166     1.0000 0.85540  0.42551  0.76660  Biso   1.000  O
  O167     1.0000 0.35540  0.07449  0.26660  Biso   1.000  O
  O168     1.0000 0.14460  0.57449  0.23340  Biso   1.000  O
  O169     1.0000 0.87730  0.81420  0.22490  Biso   1.000  O
  O170     1.0000 0.62270  0.31420  0.27510  Biso   1.000  O
  O171     1.0000 0.12270  0.18580  0.77510  Biso   1.000  O
  O172     1.0000 0.37730  0.68580  0.72490  Biso   1.000  O
  O173     1.0000 0.70590  0.15118  0.65836  Biso   1.000  O
  O174     1.0000 0.79410  0.65118  0.84164  Biso   1.000  O
  O175     1.0000 0.29410  0.84882  0.34164  Biso   1.000  O
  O176     1.0000 0.20590  0.34882  0.15836  Biso   1.000  O
  C73      1.0000 0.68750  0.13089  0.36520  Biso   1.000  C
  C74      1.0000 0.81250  0.63089  0.13480  Biso   1.000  C
  C75      1.0000 0.31250  0.86911  0.63480  Biso   1.000  C
  C76      1.0000 0.18750  0.36911  0.86520  Biso   1.000  C
  C77      1.0000 0.01760  0.26645  0.68350  Biso   1.000  C
  C78      1.0000 0.48240  0.76645  0.81650  Biso   1.000  C
  C79      1.0000 0.98240  0.73355  0.31650  Biso   1.000  C
  C80      1.0000 0.51760  0.23355  0.18350  Biso   1.000  C
  N29      1.0000 0.89257  0.16979  0.05671  Biso   1.000  N
  N30      1.0000 0.60743  0.66979  0.44329  Biso   1.000  N
  N31      1.0000 0.10743  0.83021  0.94329  Biso   1.000  N
  N32      1.0000 0.39257  0.33021  0.55671  Biso   1.000  N
  O177     1.0000 0.06710  0.15685  0.23936  Biso   1.000  O
  O178     1.0000 0.43290  0.65685  0.26064  Biso   1.000  O
  O179     1.0000 0.93290  0.84315  0.76064  Biso   1.000  O
  O180     1.0000 0.56710  0.34315  0.73936  Biso   1.000  O
  C81      1.0000 0.88260  0.18312  0.97710  Biso   1.000  C
  C82      1.0000 0.61740  0.68312  0.52290  Biso   1.000  C
  C83      1.0000 0.11740  0.81688  0.02290  Biso   1.000  C
  C84      1.0000 0.38260  0.31688  0.47710  Biso   1.000  C
  H41      1.0000 0.93740  0.18680  0.97410  Biso   1.000  H
  H42      1.0000 0.56260  0.68680  0.52590  Biso   1.000  H
  H43      1.0000 0.06260  0.81320  0.02590  Biso   1.000  H
  H44      1.0000 0.43740  0.31320  0.47410  Biso   1.000  H
  H45      1.0000 0.85320  0.20860  0.96570  Biso   1.000  H
  H46      1.0000 0.64680  0.70860  0.53430  Biso   1.000  H
  H47      1.0000 0.14680  0.79140  0.03430  Biso   1.000  H
  H48      1.0000 0.35320  0.29140  0.46570  Biso   1.000  H
  C85      1.0000 0.68260  0.16748  0.52720  Biso   1.000  C
  C86      1.0000 0.81740  0.66748  0.97280  Biso   1.000  C
  C87      1.0000 0.31740  0.83252  0.47280  Biso   1.000  C
  C88      1.0000 0.18260  0.33252  0.02720  Biso   1.000  C
  H49      1.0000 0.67810  0.19530  0.54030  Biso   1.000  H
  H50      1.0000 0.82190  0.69530  0.95970  Biso   1.000  H
  H51      1.0000 0.32190  0.80470  0.45970  Biso   1.000  H
  H52      1.0000 0.17810  0.30470  0.04030  Biso   1.000  H
  H53      1.0000 0.73810  0.16340  0.52590  Biso   1.000  H
  H54      1.0000 0.76190  0.66340  0.97410  Biso   1.000  H
  H55      1.0000 0.26190  0.83660  0.47410  Biso   1.000  H
  H56      1.0000 0.23810  0.33660  0.02590  Biso   1.000  H
  O181     1.0000 0.88550  0.85966  0.36030  Biso   1.000  O
  O182     1.0000 0.61450  0.35966  0.13970  Biso   1.000  O
  O183     1.0000 0.11450  0.14034  0.63970  Biso   1.000  O
  O184     1.0000 0.38550  0.64034  0.86030  Biso   1.000  O
  C89      1.0000 0.87990  0.05894  0.46320  Biso   1.000  C
  C90      1.0000 0.62010  0.55894  0.03680  Biso   1.000  C
  C91      1.0000 0.12010  0.94106  0.53680  Biso   1.000  C
  C92      1.0000 0.37990  0.44106  0.96320  Biso   1.000  C
  H57      1.0000 0.93530  0.06410  0.46250  Biso   1.000  H
  H58      1.0000 0.56470  0.56410  0.03750  Biso   1.000  H
  H59      1.0000 0.06470  0.93590  0.53750  Biso   1.000  H
  H60      1.0000 0.43530  0.43590  0.96250  Biso   1.000  H
  H61      1.0000 0.84900  0.08400  0.45290  Biso   1.000  H
  H62      1.0000 0.65100  0.58400  0.04710  Biso   1.000  H
  H63      1.0000 0.15100  0.91600  0.54710  Biso   1.000  H
  H64      1.0000 0.34900  0.41600  0.95290  Biso   1.000  H
  O185     1.0000 0.90040  0.99475  0.81430  Biso   1.000  O
  O186     1.0000 0.59960  0.49475  0.68570  Biso   1.000  O
  O187     1.0000 0.09960  0.00525  0.18570  Biso   1.000  O
  O188     1.0000 0.40040  0.50525  0.31430  Biso   1.000  O
  O189     1.0000 0.60890  0.86961  0.15400  Biso   1.000  O
  O190     1.0000 0.89110  0.36961  0.34600  Biso   1.000  O
  O191     1.0000 0.39110  0.13039  0.84600  Biso   1.000  O
  O192     1.0000 0.10890  0.63039  0.65400  Biso   1.000  O
  C93      1.0000 0.67280  0.92614  0.39390  Biso   1.000  C
  C94      1.0000 0.82720  0.42614  0.10610  Biso   1.000  C
  C95      1.0000 0.32720  0.07386  0.60610  Biso   1.000  C
  C96      1.0000 0.17280  0.57386  0.89390  Biso   1.000  C
  H65      1.0000 0.72180  0.93340  0.43920  Biso   1.000  H
  H66      1.0000 0.77820  0.43340  0.06080  Biso   1.000  H
  H67      1.0000 0.27820  0.06660  0.56080  Biso   1.000  H
  H68      1.0000 0.22180  0.56660  0.93920  Biso   1.000  H
  H69      1.0000 0.65470  0.94990  0.36160  Biso   1.000  H
  H70      1.0000 0.84530  0.44990  0.13840  Biso   1.000  H
  H71      1.0000 0.34530  0.05010  0.63840  Biso   1.000  H
  H72      1.0000 0.15470  0.55010  0.86160  Biso   1.000  H
  C97      1.0000 0.01110  0.14895  0.17700  Biso   1.000  C
  C98      1.0000 0.48890  0.64895  0.32300  Biso   1.000  C
  C99      1.0000 0.98890  0.85105  0.82300  Biso   1.000  C
  C100     1.0000 0.51110  0.35105  0.67700  Biso   1.000  C
  C101     1.0000 0.68540  0.29514  0.03740  Biso   1.000  C
  C102     1.0000 0.81460  0.79514  0.46260  Biso   1.000  C
  C103     1.0000 0.31460  0.70486  0.96260  Biso   1.000  C
  C104     1.0000 0.18540  0.20486  0.53740  Biso   1.000  C
  H73      1.0000 0.67960  0.32290  0.04970  Biso   1.000  H
  H74      1.0000 0.82040  0.82290  0.45030  Biso   1.000  H
  H75      1.0000 0.32040  0.67710  0.95030  Biso   1.000  H
  H76      1.0000 0.17960  0.17710  0.54970  Biso   1.000  H
  H77      1.0000 0.74210  0.29120  0.03910  Biso   1.000  H
  H78      1.0000 0.75790  0.79120  0.46090  Biso   1.000  H
  H79      1.0000 0.25790  0.70880  0.96090  Biso   1.000  H
  H80      1.0000 0.24210  0.20880  0.53910  Biso   1.000  H
  O193     1.0000 0.73850  0.90551  0.30731  Biso   1.000  O
  O194     1.0000 0.76150  0.40551  0.19269  Biso   1.000  O
  O195     1.0000 0.26150  0.09449  0.69269  Biso   1.000  O
  O196     1.0000 0.23850  0.59449  0.80731  Biso   1.000  O
  O197     1.0000 0.40840  0.90689  0.25750  Biso   1.000  O
  O198     1.0000 0.09160  0.40689  0.24250  Biso   1.000  O
  O199     1.0000 0.59160  0.09311  0.74250  Biso   1.000  O
  O200     1.0000 0.90840  0.59311  0.75750  Biso   1.000  O
  O201     1.0000 0.61850  0.79563  0.24650  Biso   1.000  O
  O202     1.0000 0.88150  0.29563  0.25350  Biso   1.000  O
  O203     1.0000 0.38150  0.20437  0.75350  Biso   1.000  O
  O204     1.0000 0.11850  0.70437  0.74650  Biso   1.000  O
  C105     1.0000 0.63290  0.05169  0.00920  Biso   1.000  C
  C106     1.0000 0.86710  0.55169  0.49080  Biso   1.000  C
  C107     1.0000 0.36710  0.94831  0.99080  Biso   1.000  C
  C108     1.0000 0.13290  0.44831  0.50920  Biso   1.000  C
  H81      1.0000 0.58140  0.05970  0.01560  Biso   1.000  H
  H82      1.0000 0.91860  0.55970  0.48440  Biso   1.000  H
  H83      1.0000 0.41860  0.94030  0.98440  Biso   1.000  H
  H84      1.0000 0.08140  0.44030  0.51560  Biso   1.000  H
  H85      1.0000 0.66720  0.07540  0.01410  Biso   1.000  H
  H86      1.0000 0.83280  0.57540  0.48590  Biso   1.000  H
  H87      1.0000 0.33280  0.92460  0.98590  Biso   1.000  H
  H88      1.0000 0.16720  0.42460  0.51410  Biso   1.000  H
  C109     1.0000 0.97260  0.18231  0.11870  Biso   1.000  C
  C110     1.0000 0.52740  0.68231  0.38130  Biso   1.000  C
  C111     1.0000 0.02740  0.81769  0.88130  Biso   1.000  C
  C112     1.0000 0.47260  0.31769  0.61870  Biso   1.000  C
  H89      1.0000 0.96250  0.20540  0.14590  Biso   1.000  H
  H90      1.0000 0.53750  0.70540  0.35410  Biso   1.000  H
  H91      1.0000 0.03750  0.79460  0.85410  Biso   1.000  H
  H92      1.0000 0.46250  0.29460  0.64590  Biso   1.000  H
  H93      1.0000 0.01210  0.19030  0.09490  Biso   1.000  H
  H94      1.0000 0.48790  0.69030  0.40510  Biso   1.000  H
  H95      1.0000 0.98790  0.80970  0.90510  Biso   1.000  H
  H96      1.0000 0.51210  0.30970  0.59490  Biso   1.000  H
  C113     1.0000 0.80330  0.88758  0.11370  Biso   1.000  C
  C114     1.0000 0.69670  0.38758  0.38630  Biso   1.000  C
  C115     1.0000 0.19670  0.11242  0.88630  Biso   1.000  C
  C116     1.0000 0.30330  0.61242  0.61370  Biso   1.000  C
  C117     1.0000 0.96340  0.93300  0.05940  Biso   1.000  C
  C118     1.0000 0.53660  0.43300  0.44060  Biso   1.000  C
  C119     1.0000 0.03660  0.06700  0.94060  Biso   1.000  C
  C120     1.0000 0.46340  0.56700  0.55940  Biso   1.000  C
  H97      1.0000 0.96240  0.96040  0.07660  Biso   1.000  H
  H98      1.0000 0.53760  0.46040  0.42340  Biso   1.000  H
  H99      1.0000 0.03760  0.03960  0.92340  Biso   1.000  H
  H100     1.0000 0.46240  0.53960  0.57660  Biso   1.000  H
  H101     1.0000 0.98280  0.93330  0.01630  Biso   1.000  H
  H102     1.0000 0.51720  0.43330  0.48370  Biso   1.000  H
  H103     1.0000 0.01720  0.06670  0.98370  Biso   1.000  H
  H104     1.0000 0.48280  0.56670  0.51630  Biso   1.000  H
  C121     1.0000 0.53810  0.17923  0.43680  Biso   1.000  C
  C122     1.0000 0.96190  0.67923  0.06320  Biso   1.000  C
  C123     1.0000 0.46190  0.82077  0.56320  Biso   1.000  C
  C124     1.0000 0.03810  0.32077  0.93680  Biso   1.000  C
  H105     1.0000 0.54040  0.20640  0.41910  Biso   1.000  H
  H106     1.0000 0.95960  0.70640  0.08090  Biso   1.000  H
  H107     1.0000 0.45960  0.79360  0.58090  Biso   1.000  H
  H108     1.0000 0.04040  0.29360  0.91910  Biso   1.000  H
  H109     1.0000 0.52860  0.18050  0.48550  Biso   1.000  H
  H110     1.0000 0.97140  0.68050  0.01450  Biso   1.000  H
  H111     1.0000 0.47140  0.81950  0.51450  Biso   1.000  H
  H112     1.0000 0.02860  0.31950  0.98550  Biso   1.000  H
  C125     1.0000 0.47090  0.89706  0.31390  Biso   1.000  C
  C126     1.0000 0.02910  0.39706  0.18610  Biso   1.000  C
  C127     1.0000 0.52910  0.10294  0.68610  Biso   1.000  C
  C128     1.0000 0.97090  0.60294  0.81390  Biso   1.000  C
  O205     1.0000 0.47590  0.98700  0.87510  Biso   1.000  O
  O206     1.0000 0.02410  0.48700  0.62490  Biso   1.000  O
  O207     1.0000 0.52410  0.01300  0.12490  Biso   1.000  O
  O208     1.0000 0.97590  0.51300  0.37510  Biso   1.000  O
  C129     1.0000 0.02260  0.90827  0.12580  Biso   1.000  C
  C130     1.0000 0.47740  0.40827  0.37420  Biso   1.000  C
  C131     1.0000 0.97740  0.09173  0.87420  Biso   1.000  C
  C132     1.0000 0.52260  0.59173  0.62580  Biso   1.000  C
  C133     1.0000 0.88380  0.30391  0.48980  Biso   1.000  C
  C134     1.0000 0.61620  0.80391  0.01020  Biso   1.000  C
  C135     1.0000 0.11620  0.69609  0.51020  Biso   1.000  C
  C136     1.0000 0.38380  0.19609  0.98980  Biso   1.000  C
  H113     1.0000 0.93840  0.30620  0.48570  Biso   1.000  H
  H114     1.0000 0.56160  0.80620  0.01430  Biso   1.000  H
  H115     1.0000 0.06160  0.69380  0.51430  Biso   1.000  H
  H116     1.0000 0.43840  0.19380  0.98570  Biso   1.000  H
  H117     1.0000 0.85780  0.33020  0.48110  Biso   1.000  H
  H118     1.0000 0.64220  0.83020  0.01890  Biso   1.000  H
  H119     1.0000 0.14220  0.66980  0.51890  Biso   1.000  H
  H120     1.0000 0.35780  0.16980  0.98110  Biso   1.000  H
  C137     1.0000 0.00950  0.02006  0.65660  Biso   1.000  C
  C138     1.0000 0.49050  0.52006  0.84340  Biso   1.000  C
  C139     1.0000 0.99050  0.97994  0.34340  Biso   1.000  C
  C140     1.0000 0.50950  0.47994  0.15660  Biso   1.000  C
  C141     1.0000 0.62580  0.92680  0.50200  Biso   1.000  C
  C142     1.0000 0.87420  0.42680  0.99800  Biso   1.000  C
  C143     1.0000 0.37420  0.07320  0.49800  Biso   1.000  C
  C144     1.0000 0.12580  0.57320  0.00200  Biso   1.000  C
  H121     1.0000 0.57400  0.93050  0.51110  Biso   1.000  H
  H122     1.0000 0.92600  0.43050  0.98890  Biso   1.000  H
  H123     1.0000 0.42600  0.06950  0.48890  Biso   1.000  H
  H124     1.0000 0.07400  0.56950  0.01110  Biso   1.000  H
  H125     1.0000 0.65560  0.95210  0.51160  Biso   1.000  H
  H126     1.0000 0.84440  0.45210  0.98840  Biso   1.000  H
  H127     1.0000 0.34440  0.04790  0.48840  Biso   1.000  H
  H128     1.0000 0.15560  0.54790  0.01160  Biso   1.000  H
  C145     1.0000 0.96710  0.05536  0.60550  Biso   1.000  C
  C146     1.0000 0.53290  0.55536  0.89450  Biso   1.000  C
  C147     1.0000 0.03290  0.94464  0.39450  Biso   1.000  C
  C148     1.0000 0.46710  0.44464  0.10550  Biso   1.000  C
  H129     1.0000 0.95470  0.07570  0.63730  Biso   1.000  H
  H130     1.0000 0.54530  0.57570  0.86270  Biso   1.000  H
  H131     1.0000 0.04530  0.92430  0.36270  Biso   1.000  H
  H132     1.0000 0.45470  0.42430  0.13730  Biso   1.000  H
  H133     1.0000 0.00530  0.06690  0.58350  Biso   1.000  H
  H134     1.0000 0.49470  0.56690  0.91650  Biso   1.000  H
  H135     1.0000 0.99470  0.93310  0.41650  Biso   1.000  H
  H136     1.0000 0.50530  0.43310  0.08350  Biso   1.000  H
  C149     1.0000 0.81290  0.05405  0.55820  Biso   1.000  C
  C150     1.0000 0.68710  0.55405  0.94180  Biso   1.000  C
  C151     1.0000 0.18710  0.94595  0.44180  Biso   1.000  C
  C152     1.0000 0.31290  0.44595  0.05820  Biso   1.000  C
  H137     1.0000 0.76420  0.05520  0.50970  Biso   1.000  H
  H138     1.0000 0.73580  0.55520  0.99030  Biso   1.000  H
  H139     1.0000 0.23580  0.94480  0.49030  Biso   1.000  H
  H140     1.0000 0.26420  0.44480  0.00970  Biso   1.000  H
  H141     1.0000 0.82060  0.08040  0.58200  Biso   1.000  H
  H142     1.0000 0.67940  0.58040  0.91800  Biso   1.000  H
  H143     1.0000 0.17940  0.91960  0.41800  Biso   1.000  H
  H144     1.0000 0.32060  0.41960  0.08200  Biso   1.000  H
  C153     1.0000 0.65810  0.29477  0.89740  Biso   1.000  C
  C154     1.0000 0.84190  0.79477  0.60260  Biso   1.000  C
  C155     1.0000 0.34190  0.70523  0.10260  Biso   1.000  C
  C156     1.0000 0.15810  0.20523  0.39740  Biso   1.000  C
  H145     1.0000 0.70070  0.31550  0.91580  Biso   1.000  H
  H146     1.0000 0.79930  0.81550  0.58420  Biso   1.000  H
  H147     1.0000 0.29930  0.68450  0.08420  Biso   1.000  H
  H148     1.0000 0.20070  0.18450  0.41580  Biso   1.000  H
  H149     1.0000 0.61310  0.30480  0.85130  Biso   1.000  H
  H150     1.0000 0.88690  0.80480  0.64870  Biso   1.000  H
  H151     1.0000 0.38690  0.69520  0.14870  Biso   1.000  H
  H152     1.0000 0.11310  0.19520  0.35130  Biso   1.000  H
  O209     1.0000 0.08270  0.92476  0.17670  Biso   1.000  O
  O210     1.0000 0.41730  0.42476  0.32330  Biso   1.000  O
  O211     1.0000 0.91730  0.07524  0.82330  Biso   1.000  O
  O212     1.0000 0.58270  0.57524  0.67670  Biso   1.000  O
  O213     1.0000 0.06540  0.02676  0.72080  Biso   1.000  O
  O214     1.0000 0.43460  0.52676  0.77920  Biso   1.000  O
  O215     1.0000 0.93460  0.97324  0.27920  Biso   1.000  O
  O216     1.0000 0.56540  0.47324  0.22080  Biso   1.000  O
  C157     1.0000 0.64920  0.16738  0.38680  Biso   1.000  C
  C158     1.0000 0.85080  0.66738  0.11320  Biso   1.000  C
  C159     1.0000 0.35080  0.83262  0.61320  Biso   1.000  C
  C160     1.0000 0.14920  0.33262  0.88680  Biso   1.000  C
  H153     1.0000 0.69100  0.18850  0.40390  Biso   1.000  H
  H154     1.0000 0.80900  0.68850  0.09610  Biso   1.000  H
  H155     1.0000 0.30900  0.81150  0.59610  Biso   1.000  H
  H156     1.0000 0.19100  0.31150  0.90390  Biso   1.000  H
  H157     1.0000 0.60300  0.17690  0.34110  Biso   1.000  H
  H158     1.0000 0.89700  0.67690  0.15890  Biso   1.000  H
  H159     1.0000 0.39700  0.82310  0.65890  Biso   1.000  H
  H160     1.0000 0.10300  0.32310  0.84110  Biso   1.000  H
  C161     1.0000 0.46560  0.02190  0.84610  Biso   1.000  C
  C162     1.0000 0.03440  0.52190  0.65390  Biso   1.000  C
  C163     1.0000 0.53440  0.97810  0.15390  Biso   1.000  C
  C164     1.0000 0.96560  0.47810  0.34610  Biso   1.000  C
  O217     1.0000 0.49410  0.86110  0.33120  Biso   1.000  O
  O218     1.0000 0.00590  0.36110  0.16880  Biso   1.000  O
  O219     1.0000 0.50590  0.13890  0.66880  Biso   1.000  O
  O220     1.0000 0.99410  0.63890  0.83120  Biso   1.000  O
  C165     1.0000 0.53550  0.05051  0.87240  Biso   1.000  C
  C166     1.0000 0.96450  0.55051  0.62760  Biso   1.000  C
  C167     1.0000 0.46450  0.94949  0.12760  Biso   1.000  C
  C168     1.0000 0.03550  0.44949  0.37240  Biso   1.000  C
  H161     1.0000 0.51860  0.07380  0.89430  Biso   1.000  H
  H162     1.0000 0.98140  0.57380  0.60570  Biso   1.000  H
  H163     1.0000 0.48140  0.92620  0.10570  Biso   1.000  H
  H164     1.0000 0.01860  0.42620  0.39430  Biso   1.000  H
  H165     1.0000 0.54780  0.05930  0.82770  Biso   1.000  H
  H166     1.0000 0.95220  0.55930  0.67230  Biso   1.000  H
  H167     1.0000 0.45220  0.94070  0.17230  Biso   1.000  H
  H168     1.0000 0.04780  0.44070  0.32770  Biso   1.000  H
  C169     1.0000 0.82680  0.92861  0.95310  Biso   1.000  C
  C170     1.0000 0.67320  0.42861  0.54690  Biso   1.000  C
  C171     1.0000 0.17320  0.07139  0.04690  Biso   1.000  C
  C172     1.0000 0.32680  0.57139  0.45310  Biso   1.000  C
  H169     1.0000 0.84160  0.95580  0.94470  Biso   1.000  H
  H170     1.0000 0.65840  0.45580  0.55530  Biso   1.000  H
  H171     1.0000 0.15840  0.04420  0.05530  Biso   1.000  H
  H172     1.0000 0.34160  0.54420  0.44470  Biso   1.000  H
  H173     1.0000 0.76790  0.92830  0.94630  Biso   1.000  H
  H174     1.0000 0.73210  0.42830  0.55370  Biso   1.000  H
  H175     1.0000 0.23210  0.07170  0.05370  Biso   1.000  H
  H176     1.0000 0.26790  0.57170  0.44630  Biso   1.000  H
  C173     1.0000 0.84000  0.92453  0.09190  Biso   1.000  C
  C174     1.0000 0.66000  0.42453  0.40810  Biso   1.000  C
  C175     1.0000 0.16000  0.07547  0.90810  Biso   1.000  C
  C176     1.0000 0.34000  0.57547  0.59190  Biso   1.000  C
  H177     1.0000 0.79610  0.94440  0.07080  Biso   1.000  H
  H178     1.0000 0.70390  0.44440  0.42920  Biso   1.000  H
  H179     1.0000 0.20390  0.05560  0.92920  Biso   1.000  H
  H180     1.0000 0.29610  0.55560  0.57080  Biso   1.000  H
  H181     1.0000 0.88250  0.93570  0.13850  Biso   1.000  H
  H182     1.0000 0.61750  0.43570  0.36150  Biso   1.000  H
  H183     1.0000 0.11750  0.06430  0.86150  Biso   1.000  H
  H184     1.0000 0.38250  0.56430  0.63850  Biso   1.000  H
  O221     1.0000 0.40000  0.03280  0.79400  Biso   1.000  O
  O222     1.0000 0.10000  0.53280  0.70600  Biso   1.000  O
  O223     1.0000 0.60000  0.96720  0.20600  Biso   1.000  O
  O224     1.0000 0.90000  0.46720  0.29400  Biso   1.000  O
  O225     1.0000 0.64680  0.97104  0.85570  Biso   1.000  O
  O226     1.0000 0.85320  0.47104  0.64430  Biso   1.000  O
  O227     1.0000 0.35320  0.02896  0.14430  Biso   1.000  O
  O228     1.0000 0.14680  0.52896  0.35570  Biso   1.000  O
  O229     1.0000 0.40360  0.17471  0.33360  Biso   1.000  O
  O230     1.0000 0.09640  0.67471  0.16640  Biso   1.000  O
  O231     1.0000 0.59640  0.82529  0.66640  Biso   1.000  O
  O232     1.0000 0.90360  0.32529  0.83360  Biso   1.000  O
  O233     1.0000 0.63040  0.06183  0.24250  Biso   1.000  O
  O234     1.0000 0.86960  0.56183  0.25750  Biso   1.000  O
  O235     1.0000 0.36960  0.93817  0.75750  Biso   1.000  O
  O236     1.0000 0.13040  0.43817  0.74250  Biso   1.000  O
  C177     1.0000 0.69580  0.25796  0.87610  Biso   1.000  C
  C178     1.0000 0.80420  0.75796  0.62390  Biso   1.000  C
  C179     1.0000 0.30420  0.74204  0.12390  Biso   1.000  C
  C180     1.0000 0.19580  0.24204  0.37610  Biso   1.000  C
  C181     1.0000 0.46630  0.15642  0.37560  Biso   1.000  C
  C182     1.0000 0.03370  0.65642  0.12440  Biso   1.000  C
  C183     1.0000 0.53370  0.84358  0.62440  Biso   1.000  C
  C184     1.0000 0.96630  0.34358  0.87560  Biso   1.000  C
  C185     1.0000 0.68470  0.03650  0.90610  Biso   1.000  C
  C186     1.0000 0.81530  0.53650  0.59390  Biso   1.000  C
  C187     1.0000 0.31530  0.96350  0.09390  Biso   1.000  C
  C188     1.0000 0.18470  0.46350  0.40610  Biso   1.000  C
  H185     1.0000 0.73680  0.03580  0.95150  Biso   1.000  H
  H186     1.0000 0.76320  0.53580  0.54850  Biso   1.000  H
  H187     1.0000 0.26320  0.96420  0.04850  Biso   1.000  H
  H188     1.0000 0.23680  0.46420  0.45150  Biso   1.000  H
  H189     1.0000 0.68210  0.06190  0.87980  Biso   1.000  H
  H190     1.0000 0.81790  0.56190  0.62020  Biso   1.000  H
  H191     1.0000 0.31790  0.93810  0.12020  Biso   1.000  H
  H192     1.0000 0.18210  0.43810  0.37980  Biso   1.000  H
  O237     1.0000 0.72640  0.00737  0.80882  Biso   1.000  O
  O238     1.0000 0.77360  0.50737  0.69118  Biso   1.000  O
  O239     1.0000 0.27360  0.99263  0.19118  Biso   1.000  O
  O240     1.0000 0.22640  0.49263  0.30882  Biso   1.000  O
  C189     1.0000 0.68440  0.00259  0.85140  Biso   1.000  C
  C190     1.0000 0.81560  0.50259  0.64860  Biso   1.000  C
  C191     1.0000 0.31560  0.99741  0.14860  Biso   1.000  C
  C192     1.0000 0.18440  0.49741  0.35140  Biso   1.000  C
  O241     1.0000 0.77380  0.89126  0.16590  Biso   1.000  O
  O242     1.0000 0.72620  0.39126  0.33410  Biso   1.000  O
  O243     1.0000 0.22620  0.10874  0.83410  Biso   1.000  O
  O244     1.0000 0.27380  0.60874  0.66590  Biso   1.000  O
  O245     1.0000 0.73032  0.26219  0.82767  Biso   1.000  O
  O246     1.0000 0.76968  0.76219  0.67233  Biso   1.000  O
  O247     1.0000 0.26968  0.73781  0.17233  Biso   1.000  O
  O248     1.0000 0.23032  0.23781  0.32767  Biso   1.000  O
  O249     1.0000 0.79570  0.28643  0.35973  Biso   1.000  O
  O250     1.0000 0.70430  0.78643  0.14027  Biso   1.000  O
  O251     1.0000 0.20430  0.71357  0.64027  Biso   1.000  O
  O252     1.0000 0.29570  0.21357  0.85973  Biso   1.000  O
  O253     1.0000 0.72560  0.13601  0.31985  Biso   1.000  O
  O254     1.0000 0.77440  0.63601  0.18015  Biso   1.000  O
  O255     1.0000 0.27440  0.86399  0.68015  Biso   1.000  O
  O256     1.0000 0.22560  0.36399  0.81985  Biso   1.000  O
