data_image0
_cell_length_a       17.107
_cell_length_b       33.19
_cell_length_c       18.151
_cell_angle_alpha    90
_cell_angle_beta     111.534
_cell_angle_gamma    90

_symmetry_space_group_name_H-M    "P 1"
_symmetry_int_tables_number       1

loop_
  _symmetry_equiv_pos_as_xyz
  'x, y, z'

loop_
  _atom_site_label
  _atom_site_occupancy
  _atom_site_fract_x
  _atom_site_fract_y
  _atom_site_fract_z
  _atom_site_thermal_displace_type
  _atom_site_B_iso_or_equiv
  _atom_site_type_symbol
  Gd1      1.0000 0.76218  0.09181  0.22906  Biso   1.000  Gd
  Gd2      1.0000 0.73782  0.59181  0.27094  Biso   1.000  Gd
  Gd3      1.0000 0.23782  0.90819  0.77094  Biso   1.000  Gd
  Gd4      1.0000 0.26218  0.40819  0.72906  Biso   1.000  Gd
  Gd5      1.0000 0.75815  0.21191  0.74090  Biso   1.000  Gd
  Gd6      1.0000 0.74185  0.71191  0.75910  Biso   1.000  Gd
  Gd7      1.0000 0.24185  0.78809  0.25910  Biso   1.000  Gd
  Gd8      1.0000 0.25815  0.28809  0.24090  Biso   1.000  Gd
  Gd9      1.0000 0.76474  0.96325  0.71755  Biso   1.000  Gd
  Gd10     1.0000 0.73526  0.46325  0.78245  Biso   1.000  Gd
  Gd11     1.0000 0.23526  0.03675  0.28245  Biso   1.000  Gd
  Gd12     1.0000 0.26474  0.53675  0.21755  Biso   1.000  Gd
  Gd13     1.0000 0.74175  0.83747  0.24473  Biso   1.000  Gd
  Gd14     1.0000 0.75825  0.33747  0.25527  Biso   1.000  Gd
  Gd15     1.0000 0.25825  0.16253  0.75527  Biso   1.000  Gd
  Gd16     1.0000 0.24175  0.66253  0.74473  Biso   1.000  Gd
  Cu1      1.0000 0.59157  0.10051  0.45080  Biso   1.000  Cu
  Cu2      1.0000 0.90843  0.60051  0.04920  Biso   1.000  Cu
  Cu3      1.0000 0.40843  0.89949  0.54920  Biso   1.000  Cu
  Cu4      1.0000 0.09157  0.39949  0.95080  Biso   1.000  Cu
  Cu5      1.0000 0.89132  0.22710  0.55868  Biso   1.000  Cu
  Cu6      1.0000 0.60868  0.72710  0.94132  Biso   1.000  Cu
  Cu7      1.0000 0.10868  0.77290  0.44132  Biso   1.000  Cu
  Cu8      1.0000 0.39132  0.27290  0.05868  Biso   1.000  Cu
  Cu9      1.0000 0.89741  0.85677  0.02644  Biso   1.000  Cu
  Cu10     1.0000 0.60259  0.35677  0.47356  Biso   1.000  Cu
  Cu11     1.0000 0.10259  0.14323  0.97356  Biso   1.000  Cu
  Cu12     1.0000 0.39741  0.64323  0.52644  Biso   1.000  Cu
  Cu13     1.0000 0.89059  0.98252  0.52988  Biso   1.000  Cu
  Cu14     1.0000 0.60941  0.48252  0.97012  Biso   1.000  Cu
  Cu15     1.0000 0.10941  0.01748  0.47012  Biso   1.000  Cu
  Cu16     1.0000 0.39059  0.51748  0.02988  Biso   1.000  Cu
  Cu17     1.0000 0.89005  0.10810  0.05024  Biso   1.000  Cu
  Cu18     1.0000 0.60995  0.60810  0.44976  Biso   1.000  Cu
  Cu19     1.0000 0.10995  0.89190  0.94976  Biso   1.000  Cu
  Cu20     1.0000 0.39005  0.39190  0.55024  Biso   1.000  Cu
  Cu21     1.0000 0.59892  0.85317  0.42398  Biso   1.000  Cu
  Cu22     1.0000 0.90108  0.35317  0.07602  Biso   1.000  Cu
  Cu23     1.0000 0.40108  0.14683  0.57602  Biso   1.000  Cu
  Cu24     1.0000 0.09892  0.64683  0.92398  Biso   1.000  Cu
  Cu25     1.0000 0.59366  0.97495  0.95147  Biso   1.000  Cu
  Cu26     1.0000 0.90634  0.47495  0.54853  Biso   1.000  Cu
  Cu27     1.0000 0.40634  0.02505  0.04853  Biso   1.000  Cu
  Cu28     1.0000 0.09366  0.52505  0.45147  Biso   1.000  Cu
  Cu29     1.0000 0.60084  0.22748  0.96223  Biso   1.000  Cu
  Cu30     1.0000 0.89916  0.72748  0.53777  Biso   1.000  Cu
  Cu31     1.0000 0.39916  0.77252  0.03777  Biso   1.000  Cu
  Cu32     1.0000 0.10084  0.27252  0.46223  Biso   1.000  Cu
  Cl1      1.0000 0.91370  0.78968  0.02423  Biso   1.000  Cl
  Cl2      1.0000 0.58630  0.28968  0.47577  Biso   1.000  Cl
  Cl3      1.0000 0.08630  0.21032  0.97577  Biso   1.000  Cl
  Cl4      1.0000 0.41370  0.71032  0.52423  Biso   1.000  Cl
  Cl5      1.0000 0.56842  0.03467  0.45337  Biso   1.000  Cl
  Cl6      1.0000 0.93158  0.53467  0.04663  Biso   1.000  Cl
  Cl7      1.0000 0.43158  0.96533  0.54663  Biso   1.000  Cl
  Cl8      1.0000 0.06842  0.46533  0.95337  Biso   1.000  Cl
  Cl9      1.0000 0.57863  0.16132  0.96293  Biso   1.000  Cl
  Cl10     1.0000 0.92137  0.66132  0.53707  Biso   1.000  Cl
  Cl11     1.0000 0.42137  0.83868  0.03707  Biso   1.000  Cl
  Cl12     1.0000 0.07863  0.33868  0.46293  Biso   1.000  Cl
  Cl13     1.0000 0.90020  0.16059  0.54573  Biso   1.000  Cl
  Cl14     1.0000 0.59980  0.66059  0.95427  Biso   1.000  Cl
  Cl15     1.0000 0.09980  0.83941  0.45427  Biso   1.000  Cl
  Cl16     1.0000 0.40020  0.33941  0.04573  Biso   1.000  Cl
  Cl17     1.0000 0.89680  0.91525  0.51650  Biso   1.000  Cl
  Cl18     1.0000 0.60320  0.41525  0.98350  Biso   1.000  Cl
  Cl19     1.0000 0.10320  0.08475  0.48350  Biso   1.000  Cl
  Cl20     1.0000 0.39680  0.58475  0.01650  Biso   1.000  Cl
  Cl21     1.0000 0.89910  0.04075  0.04622  Biso   1.000  Cl
  Cl22     1.0000 0.60090  0.54075  0.45378  Biso   1.000  Cl
  Cl23     1.0000 0.10090  0.95925  0.95378  Biso   1.000  Cl
  Cl24     1.0000 0.39910  0.45925  0.54622  Biso   1.000  Cl
  Cl25     1.0000 0.58353  0.78635  0.42835  Biso   1.000  Cl
  Cl26     1.0000 0.91647  0.28635  0.07165  Biso   1.000  Cl
  Cl27     1.0000 0.41647  0.21365  0.57165  Biso   1.000  Cl
  Cl28     1.0000 0.08353  0.71365  0.92835  Biso   1.000  Cl
  Cl29     1.0000 0.57940  0.90979  0.97520  Biso   1.000  Cl
  Cl30     1.0000 0.92060  0.40979  0.52480  Biso   1.000  Cl
  Cl31     1.0000 0.42060  0.09021  0.02480  Biso   1.000  Cl
  Cl32     1.0000 0.07940  0.59021  0.47520  Biso   1.000  Cl
  O1       1.0000 0.67890  0.86127  0.53330  Biso   1.000  O
  O2       1.0000 0.82110  0.36127  0.96670  Biso   1.000  O
  O3       1.0000 0.32110  0.13873  0.46670  Biso   1.000  O
  O4       1.0000 0.17890  0.63873  0.03330  Biso   1.000  O
  O5       1.0000 0.72300  0.90734  0.62770  Biso   1.000  O
  O6       1.0000 0.77700  0.40734  0.87230  Biso   1.000  O
  O7       1.0000 0.27700  0.09266  0.37230  Biso   1.000  O
  O8       1.0000 0.22300  0.59266  0.12770  Biso   1.000  O
  O9       1.0000 0.81800  0.24029  0.44890  Biso   1.000  O
  O10      1.0000 0.68200  0.74029  0.05110  Biso   1.000  O
  O11      1.0000 0.18200  0.75971  0.55110  Biso   1.000  O
  O12      1.0000 0.31800  0.25971  0.94890  Biso   1.000  O
  O13      1.0000 0.67500  0.09679  0.39200  Biso   1.000  O
  O14      1.0000 0.82500  0.59679  0.10800  Biso   1.000  O
  O15      1.0000 0.32500  0.90321  0.60800  Biso   1.000  O
  O16      1.0000 0.17500  0.40321  0.89200  Biso   1.000  O
  O17      1.0000 0.48550  0.24468  0.88220  Biso   1.000  O
  O18      1.0000 0.01450  0.74468  0.61780  Biso   1.000  O
  O19      1.0000 0.51450  0.75532  0.11780  Biso   1.000  O
  O20      1.0000 0.98550  0.25532  0.38220  Biso   1.000  O
  N1       1.0000 0.61610  0.15900  0.44790  Biso   1.000  N
  N2       1.0000 0.88390  0.65900  0.05210  Biso   1.000  N
  N3       1.0000 0.38390  0.84100  0.55210  Biso   1.000  N
  N4       1.0000 0.11610  0.34100  0.94790  Biso   1.000  N
  N5       1.0000 0.60510  0.91430  0.41800  Biso   1.000  N
  N6       1.0000 0.89490  0.41430  0.08200  Biso   1.000  N
  N7       1.0000 0.39490  0.08570  0.58200  Biso   1.000  N
  N8       1.0000 0.10510  0.58570  0.91800  Biso   1.000  N
  O21      1.0000 0.63490  0.23788  0.07940  Biso   1.000  O
  O22      1.0000 0.86510  0.73788  0.42060  Biso   1.000  O
  O23      1.0000 0.36510  0.76212  0.92060  Biso   1.000  O
  O24      1.0000 0.13490  0.26212  0.57940  Biso   1.000  O
  O25      1.0000 0.68710  0.22360  0.90830  Biso   1.000  O
  O26      1.0000 0.81290  0.72360  0.59170  Biso   1.000  O
  O27      1.0000 0.31290  0.77640  0.09170  Biso   1.000  O
  O28      1.0000 0.18710  0.27640  0.40830  Biso   1.000  O
  O29      1.0000 0.81740  0.91600  0.82180  Biso   1.000  O
  O30      1.0000 0.68260  0.41600  0.67820  Biso   1.000  O
  O31      1.0000 0.18260  0.08400  0.17820  Biso   1.000  O
  O32      1.0000 0.31740  0.58400  0.32180  Biso   1.000  O
  O33      1.0000 0.80730  0.85350  0.07720  Biso   1.000  O
  O34      1.0000 0.69270  0.35350  0.42280  Biso   1.000  O
  O35      1.0000 0.19270  0.14650  0.92280  Biso   1.000  O
  O36      1.0000 0.30730  0.64650  0.57720  Biso   1.000  O
  O37      1.0000 0.82430  0.11857  0.93800  Biso   1.000  O
  O38      1.0000 0.67570  0.61857  0.56200  Biso   1.000  O
  O39      1.0000 0.17570  0.88143  0.06200  Biso   1.000  O
  O40      1.0000 0.32430  0.38143  0.43800  Biso   1.000  O
  N9       1.0000 0.87970  0.91680  0.03380  Biso   1.000  N
  N10      1.0000 0.62030  0.41680  0.46620  Biso   1.000  N
  N11      1.0000 0.12030  0.08320  0.96620  Biso   1.000  N
  N12      1.0000 0.37970  0.58320  0.53380  Biso   1.000  N
  O41      1.0000 0.00770  0.87053  0.11980  Biso   1.000  O
  O42      1.0000 0.49230  0.37053  0.38020  Biso   1.000  O
  O43      1.0000 0.99230  0.12947  0.88020  Biso   1.000  O
  O44      1.0000 0.50770  0.62947  0.61980  Biso   1.000  O
  O45      1.0000 0.98250  0.11160  0.15160  Biso   1.000  O
  O46      1.0000 0.51750  0.61160  0.34840  Biso   1.000  O
  O47      1.0000 0.01750  0.88840  0.84840  Biso   1.000  O
  O48      1.0000 0.48250  0.38840  0.65160  Biso   1.000  O
  N13      1.0000 0.62340  0.28680  0.95890  Biso   1.000  N
  N14      1.0000 0.87660  0.78680  0.54110  Biso   1.000  N
  N15      1.0000 0.37660  0.71320  0.04110  Biso   1.000  N
  N16      1.0000 0.12340  0.21320  0.45890  Biso   1.000  N
  O49      1.0000 0.82920  0.99388  0.41820  Biso   1.000  O
  O50      1.0000 0.67080  0.49388  0.08180  Biso   1.000  O
  O51      1.0000 0.17080  0.00612  0.58180  Biso   1.000  O
  O52      1.0000 0.32920  0.50612  0.91820  Biso   1.000  O
  O53      1.0000 0.79790  0.11416  0.11380  Biso   1.000  O
  O54      1.0000 0.70210  0.61416  0.38620  Biso   1.000  O
  O55      1.0000 0.20210  0.88584  0.88620  Biso   1.000  O
  O56      1.0000 0.29790  0.38584  0.61380  Biso   1.000  O
  O57      1.0000 0.80530  0.04190  0.32920  Biso   1.000  O
  O58      1.0000 0.69470  0.54190  0.17080  Biso   1.000  O
  O59      1.0000 0.19470  0.95810  0.67080  Biso   1.000  O
  O60      1.0000 0.30530  0.45810  0.82920  Biso   1.000  O
  C1       1.0000 0.83860  0.90290  0.89070  Biso   1.000  C
  C2       1.0000 0.66140  0.40290  0.60930  Biso   1.000  C
  C3       1.0000 0.16140  0.09710  0.10930  Biso   1.000  C
  C4       1.0000 0.33860  0.59710  0.39070  Biso   1.000  C
  C5       1.0000 0.83020  0.15400  0.91540  Biso   1.000  C
  C6       1.0000 0.66980  0.65400  0.58460  Biso   1.000  C
  C7       1.0000 0.16980  0.84600  0.08460  Biso   1.000  C
  C8       1.0000 0.33020  0.34600  0.41540  Biso   1.000  C
  O61      1.0000 0.71880  0.03711  0.14300  Biso   1.000  O
  O62      1.0000 0.78120  0.53711  0.35700  Biso   1.000  O
  O63      1.0000 0.28120  0.96289  0.85700  Biso   1.000  O
  O64      1.0000 0.21880  0.46289  0.64300  Biso   1.000  O
  O65      1.0000 0.86410  0.86780  0.91160  Biso   1.000  O
  O66      1.0000 0.63590  0.36780  0.58840  Biso   1.000  O
  O67      1.0000 0.13590  0.13220  0.08840  Biso   1.000  O
  O68      1.0000 0.36410  0.63220  0.41160  Biso   1.000  O
  O69      1.0000 0.79960  0.98608  0.59890  Biso   1.000  O
  O70      1.0000 0.70040  0.48608  0.90110  Biso   1.000  O
  O71      1.0000 0.20040  0.01392  0.40110  Biso   1.000  O
  O72      1.0000 0.29960  0.51392  0.09890  Biso   1.000  O
  C9       1.0000 0.97310  0.29860  0.63370  Biso   1.000  C
  C10      1.0000 0.52690  0.79860  0.86630  Biso   1.000  C
  C11      1.0000 0.02690  0.70140  0.36630  Biso   1.000  C
  C12      1.0000 0.47310  0.20140  0.13370  Biso   1.000  C
  H1       1.0000 0.96280  0.31880  0.66770  Biso   1.000  H
  H2       1.0000 0.53720  0.81880  0.83230  Biso   1.000  H
  H3       1.0000 0.03720  0.68120  0.33230  Biso   1.000  H
  H4       1.0000 0.46280  0.18120  0.16770  Biso   1.000  H
  H5       1.0000 0.01030  0.31040  0.61010  Biso   1.000  H
  H6       1.0000 0.48970  0.81040  0.88990  Biso   1.000  H
  H7       1.0000 0.98970  0.68960  0.38990  Biso   1.000  H
  H8       1.0000 0.51030  0.18960  0.11010  Biso   1.000  H
  O73      1.0000 0.76560  0.28181  0.68940  Biso   1.000  O
  O74      1.0000 0.73440  0.78181  0.81060  Biso   1.000  O
  O75      1.0000 0.23440  0.71819  0.31060  Biso   1.000  O
  O76      1.0000 0.26560  0.21819  0.18940  Biso   1.000  O
  O77      1.0000 0.77650  0.03410  0.67020  Biso   1.000  O
  O78      1.0000 0.72350  0.53410  0.82980  Biso   1.000  O
  O79      1.0000 0.22350  0.96590  0.32980  Biso   1.000  O
  O80      1.0000 0.27650  0.46590  0.17020  Biso   1.000  O
  O81      1.0000 0.80670  0.23269  0.63070  Biso   1.000  O
  O82      1.0000 0.69330  0.73269  0.86930  Biso   1.000  O
  O83      1.0000 0.19330  0.76731  0.36930  Biso   1.000  O
  O84      1.0000 0.30670  0.26731  0.13070  Biso   1.000  O
  C13      1.0000 0.79680  0.27020  0.64090  Biso   1.000  C
  C14      1.0000 0.70320  0.77020  0.85910  Biso   1.000  C
  C15      1.0000 0.20320  0.72980  0.35910  Biso   1.000  C
  C16      1.0000 0.29680  0.22980  0.14090  Biso   1.000  C
  C17      1.0000 0.83350  0.03030  0.39860  Biso   1.000  C
  C18      1.0000 0.66650  0.53030  0.10140  Biso   1.000  C
  C19      1.0000 0.16650  0.96970  0.60140  Biso   1.000  C
  C20      1.0000 0.33350  0.46970  0.89860  Biso   1.000  C
  O85      1.0000 0.98570  0.98470  0.62800  Biso   1.000  O
  O86      1.0000 0.51430  0.48470  0.87200  Biso   1.000  O
  O87      1.0000 0.01430  0.01530  0.37200  Biso   1.000  O
  O88      1.0000 0.48570  0.51530  0.12800  Biso   1.000  O
  O89      1.0000 0.88940  0.05600  0.22630  Biso   1.000  O
  O90      1.0000 0.61060  0.55600  0.27370  Biso   1.000  O
  O91      1.0000 0.11060  0.94400  0.77370  Biso   1.000  O
  O92      1.0000 0.38940  0.44400  0.72630  Biso   1.000  O
  O93      1.0000 0.63470  0.11000  0.56870  Biso   1.000  O
  O94      1.0000 0.86530  0.61000  0.93130  Biso   1.000  O
  O95      1.0000 0.36530  0.89000  0.43130  Biso   1.000  O
  O96      1.0000 0.13470  0.39000  0.06870  Biso   1.000  O
  C21      1.0000 0.54170  0.30680  0.94170  Biso   1.000  C
  C22      1.0000 0.95830  0.80680  0.55830  Biso   1.000  C
  C23      1.0000 0.45830  0.69320  0.05830  Biso   1.000  C
  C24      1.0000 0.04170  0.19320  0.44170  Biso   1.000  C
  H9       1.0000 0.54340  0.33380  0.92160  Biso   1.000  H
  H10      1.0000 0.95660  0.83380  0.57840  Biso   1.000  H
  H11      1.0000 0.45660  0.66620  0.07840  Biso   1.000  H
  H12      1.0000 0.04340  0.16620  0.42160  Biso   1.000  H
  H13      1.0000 0.52990  0.30910  0.98980  Biso   1.000  H
  H14      1.0000 0.97010  0.80910  0.51020  Biso   1.000  H
  H15      1.0000 0.47010  0.69090  0.01020  Biso   1.000  H
  H16      1.0000 0.02990  0.19090  0.48980  Biso   1.000  H
  O97      1.0000 0.47300  0.11890  0.37730  Biso   1.000  O
  O98      1.0000 0.02700  0.61890  0.12270  Biso   1.000  O
  O99      1.0000 0.52700  0.88110  0.62270  Biso   1.000  O
  O100     1.0000 0.97300  0.38110  0.87730  Biso   1.000  O
  O101     1.0000 0.68000  0.98687  0.05730  Biso   1.000  O
  O102     1.0000 0.82000  0.48687  0.44270  Biso   1.000  O
  O103     1.0000 0.32000  0.01313  0.94270  Biso   1.000  O
  O104     1.0000 0.18000  0.51313  0.55730  Biso   1.000  O
  O105     1.0000 0.89330  0.12070  0.31970  Biso   1.000  O
  O106     1.0000 0.60670  0.62070  0.18030  Biso   1.000  O
  O107     1.0000 0.10670  0.87930  0.68030  Biso   1.000  O
  O108     1.0000 0.39330  0.37930  0.81970  Biso   1.000  O
  N17      1.0000 0.61220  0.03340  0.93280  Biso   1.000  N
  N18      1.0000 0.88780  0.53340  0.56720  Biso   1.000  N
  N19      1.0000 0.38780  0.96660  0.06720  Biso   1.000  N
  N20      1.0000 0.11220  0.46660  0.43280  Biso   1.000  N
  O109     1.0000 0.62240  0.23540  0.63650  Biso   1.000  O
  O110     1.0000 0.87760  0.73540  0.86350  Biso   1.000  O
  O111     1.0000 0.37760  0.76460  0.36350  Biso   1.000  O
  O112     1.0000 0.12240  0.26460  0.13650  Biso   1.000  O
  O113     1.0000 0.62540  0.11960  0.13630  Biso   1.000  O
  O114     1.0000 0.87460  0.61960  0.36370  Biso   1.000  O
  O115     1.0000 0.37460  0.88040  0.86370  Biso   1.000  O
  O116     1.0000 0.12540  0.38040  0.63630  Biso   1.000  O
  C25      1.0000 0.79630  0.15140  0.12960  Biso   1.000  C
  C26      1.0000 0.70370  0.65140  0.37040  Biso   1.000  C
  C27      1.0000 0.20370  0.84860  0.87040  Biso   1.000  C
  C28      1.0000 0.29630  0.34860  0.62960  Biso   1.000  C
  C29      1.0000 0.68170  0.89670  0.55880  Biso   1.000  C
  C30      1.0000 0.81830  0.39670  0.94120  Biso   1.000  C
  C31      1.0000 0.31830  0.10330  0.44120  Biso   1.000  C
  C32      1.0000 0.18170  0.60330  0.05880  Biso   1.000  C
  O117     1.0000 0.68270  0.85675  0.35330  Biso   1.000  O
  O118     1.0000 0.81730  0.35675  0.14670  Biso   1.000  O
  O119     1.0000 0.31730  0.14325  0.64670  Biso   1.000  O
  O120     1.0000 0.18270  0.64325  0.85330  Biso   1.000  O
  O121     1.0000 0.89270  0.93050  0.71160  Biso   1.000  O
  O122     1.0000 0.60730  0.43050  0.78840  Biso   1.000  O
  O123     1.0000 0.10730  0.06950  0.28840  Biso   1.000  O
  O124     1.0000 0.39270  0.56950  0.21160  Biso   1.000  O
  C33      1.0000 0.67130  0.14260  0.58930  Biso   1.000  C
  C34      1.0000 0.82870  0.64260  0.91070  Biso   1.000  C
  C35      1.0000 0.32870  0.85740  0.41070  Biso   1.000  C
  C36      1.0000 0.17130  0.35740  0.08930  Biso   1.000  C
  O125     1.0000 0.89010  0.24383  0.82310  Biso   1.000  O
  O126     1.0000 0.60990  0.74383  0.67690  Biso   1.000  O
  O127     1.0000 0.10990  0.75617  0.17690  Biso   1.000  O
  O128     1.0000 0.39010  0.25617  0.32310  Biso   1.000  O
  O129     1.0000 0.41080  0.29980  0.83520  Biso   1.000  O
  O130     1.0000 0.08920  0.79980  0.66480  Biso   1.000  O
  O131     1.0000 0.58920  0.70020  0.16480  Biso   1.000  O
  O132     1.0000 0.91080  0.20020  0.33520  Biso   1.000  O
  C37      1.0000 0.52330  0.92800  0.36620  Biso   1.000  C
  C38      1.0000 0.97670  0.42800  0.13380  Biso   1.000  C
  C39      1.0000 0.47670  0.07200  0.63380  Biso   1.000  C
  C40      1.0000 0.02330  0.57200  0.86620  Biso   1.000  C
  H17      1.0000 0.53040  0.94990  0.33370  Biso   1.000  H
  H18      1.0000 0.96960  0.44990  0.16630  Biso   1.000  H
  H19      1.0000 0.46960  0.05010  0.66630  Biso   1.000  H
  H20      1.0000 0.03040  0.55010  0.83370  Biso   1.000  H
  H21      1.0000 0.49330  0.93850  0.39810  Biso   1.000  H
  H22      1.0000 0.00670  0.43850  0.10190  Biso   1.000  H
  H23      1.0000 0.50670  0.06150  0.60190  Biso   1.000  H
  H24      1.0000 0.99330  0.56150  0.89810  Biso   1.000  H
  O133     1.0000 0.79930  0.16487  0.84570  Biso   1.000  O
  O134     1.0000 0.70070  0.66487  0.65430  Biso   1.000  O
  O135     1.0000 0.20070  0.83513  0.15430  Biso   1.000  O
  O136     1.0000 0.29930  0.33513  0.34570  Biso   1.000  O
  O137     1.0000 0.77490  0.16270  0.18400  Biso   1.000  O
  O138     1.0000 0.72510  0.66270  0.31600  Biso   1.000  O
  O139     1.0000 0.22510  0.83730  0.81600  Biso   1.000  O
  O140     1.0000 0.27490  0.33730  0.68400  Biso   1.000  O
  O141     1.0000 0.62860  0.99200  0.62950  Biso   1.000  O
  O142     1.0000 0.87140  0.49200  0.87050  Biso   1.000  O
  O143     1.0000 0.37140  0.00800  0.37050  Biso   1.000  O
  O144     1.0000 0.12860  0.50800  0.12950  Biso   1.000  O
  C41      1.0000 0.68200  0.02360  0.07420  Biso   1.000  C
  C42      1.0000 0.81800  0.52360  0.42580  Biso   1.000  C
  C43      1.0000 0.31800  0.97640  0.92580  Biso   1.000  C
  C44      1.0000 0.18200  0.47640  0.57420  Biso   1.000  C
  C45      1.0000 0.82700  0.27580  0.42830  Biso   1.000  C
  C46      1.0000 0.67300  0.77580  0.07170  Biso   1.000  C
  C47      1.0000 0.17300  0.72420  0.57170  Biso   1.000  C
  C48      1.0000 0.32700  0.22420  0.92830  Biso   1.000  C
  C49      1.0000 0.79510  0.02250  0.61410  Biso   1.000  C
  C50      1.0000 0.70490  0.52250  0.88590  Biso   1.000  C
  C51      1.0000 0.20490  0.97750  0.38590  Biso   1.000  C
  C52      1.0000 0.29510  0.47750  0.11410  Biso   1.000  C
  O145     1.0000 0.88280  0.17140  0.74220  Biso   1.000  O
  O146     1.0000 0.61720  0.67140  0.75780  Biso   1.000  O
  O147     1.0000 0.11720  0.82860  0.25780  Biso   1.000  O
  O148     1.0000 0.38280  0.32860  0.24220  Biso   1.000  O
  C53      1.0000 0.47350  0.28260  0.88100  Biso   1.000  C
  C54      1.0000 0.02650  0.78260  0.61900  Biso   1.000  C
  C55      1.0000 0.52650  0.71740  0.11900  Biso   1.000  C
  C56      1.0000 0.97350  0.21740  0.38100  Biso   1.000  C
  N21      1.0000 0.88600  0.04360  0.54130  Biso   1.000  N
  N22      1.0000 0.61400  0.54360  0.95870  Biso   1.000  N
  N23      1.0000 0.11400  0.95640  0.45870  Biso   1.000  N
  N24      1.0000 0.38600  0.45640  0.04130  Biso   1.000  N
  C57      1.0000 0.67340  0.27060  0.10080  Biso   1.000  C
  C58      1.0000 0.82660  0.77060  0.39920  Biso   1.000  C
  C59      1.0000 0.32660  0.72940  0.89920  Biso   1.000  C
  C60      1.0000 0.17340  0.22940  0.60080  Biso   1.000  C
  O149     1.0000 0.70480  0.28123  0.17130  Biso   1.000  O
  O150     1.0000 0.79520  0.78123  0.32870  Biso   1.000  O
  O151     1.0000 0.29520  0.71877  0.82870  Biso   1.000  O
  O152     1.0000 0.20480  0.21877  0.67130  Biso   1.000  O
  C61      1.0000 0.69630  0.89320  0.34390  Biso   1.000  C
  C62      1.0000 0.80370  0.39320  0.15610  Biso   1.000  C
  C63      1.0000 0.30370  0.10680  0.65610  Biso   1.000  C
  C64      1.0000 0.19630  0.60680  0.84390  Biso   1.000  C
  N25      1.0000 0.89190  0.28810  0.56970  Biso   1.000  N
  N26      1.0000 0.60810  0.78810  0.93030  Biso   1.000  N
  N27      1.0000 0.10810  0.71190  0.43030  Biso   1.000  N
  N28      1.0000 0.39190  0.21190  0.06970  Biso   1.000  N
  C65      1.0000 0.81600  0.18200  0.07670  Biso   1.000  C
  C66      1.0000 0.68400  0.68200  0.42330  Biso   1.000  C
  C67      1.0000 0.18400  0.81800  0.92330  Biso   1.000  C
  C68      1.0000 0.31600  0.31800  0.57670  Biso   1.000  C
  H25      1.0000 0.76750  0.18500  0.02790  Biso   1.000  H
  H26      1.0000 0.73250  0.68500  0.47210  Biso   1.000  H
  H27      1.0000 0.23250  0.81500  0.97210  Biso   1.000  H
  H28      1.0000 0.26750  0.31500  0.52790  Biso   1.000  H
  H29      1.0000 0.82700  0.20800  0.10310  Biso   1.000  H
  H30      1.0000 0.67300  0.70800  0.39690  Biso   1.000  H
  H31      1.0000 0.17300  0.79200  0.89690  Biso   1.000  H
  H32      1.0000 0.32700  0.29200  0.60310  Biso   1.000  H
  O153     1.0000 0.07620  0.26910  0.74620  Biso   1.000  O
  O154     1.0000 0.42380  0.76910  0.75380  Biso   1.000  O
  O155     1.0000 0.92380  0.73090  0.25380  Biso   1.000  O
  O156     1.0000 0.57620  0.23090  0.24620  Biso   1.000  O
  C69      1.0000 0.82050  0.30100  0.59090  Biso   1.000  C
  C70      1.0000 0.67950  0.80100  0.90910  Biso   1.000  C
  C71      1.0000 0.17950  0.69900  0.40910  Biso   1.000  C
  C72      1.0000 0.32050  0.19900  0.09090  Biso   1.000  C
  H33      1.0000 0.77230  0.30580  0.54280  Biso   1.000  H
  H34      1.0000 0.72770  0.80580  0.95720  Biso   1.000  H
  H35      1.0000 0.22770  0.69420  0.45720  Biso   1.000  H
  H36      1.0000 0.27230  0.19420  0.04280  Biso   1.000  H
  H37      1.0000 0.83470  0.32610  0.61990  Biso   1.000  H
  H38      1.0000 0.66530  0.82610  0.88010  Biso   1.000  H
  H39      1.0000 0.16530  0.67390  0.38010  Biso   1.000  H
  H40      1.0000 0.33470  0.17390  0.11990  Biso   1.000  H
  O157     1.0000 0.98860  0.22800  0.65580  Biso   1.000  O
  O158     1.0000 0.51140  0.72800  0.84420  Biso   1.000  O
  O159     1.0000 0.01140  0.77200  0.34420  Biso   1.000  O
  O160     1.0000 0.48860  0.27200  0.15580  Biso   1.000  O
  O161     1.0000 0.63060  0.18870  0.76150  Biso   1.000  O
  O162     1.0000 0.86940  0.68870  0.73850  Biso   1.000  O
  O163     1.0000 0.36940  0.81130  0.23850  Biso   1.000  O
  O164     1.0000 0.13060  0.31130  0.26150  Biso   1.000  O
  O165     1.0000 0.64810  0.92650  0.73170  Biso   1.000  O
  O166     1.0000 0.85190  0.42650  0.76830  Biso   1.000  O
  O167     1.0000 0.35190  0.07350  0.26830  Biso   1.000  O
  O168     1.0000 0.14810  0.57350  0.23170  Biso   1.000  O
  O169     1.0000 0.86920  0.81480  0.22130  Biso   1.000  O
  O170     1.0000 0.63080  0.31480  0.27870  Biso   1.000  O
  O171     1.0000 0.13080  0.18520  0.77870  Biso   1.000  O
  O172     1.0000 0.36920  0.68520  0.72130  Biso   1.000  O
  O173     1.0000 0.70740  0.15460  0.66040  Biso   1.000  O
  O174     1.0000 0.79260  0.65460  0.83960  Biso   1.000  O
  O175     1.0000 0.29260  0.84540  0.33960  Biso   1.000  O
  O176     1.0000 0.20740  0.34540  0.16040  Biso   1.000  O
  C73      1.0000 0.68730  0.13070  0.36460  Biso   1.000  C
  C74      1.0000 0.81270  0.63070  0.13540  Biso   1.000  C
  C75      1.0000 0.31270  0.86930  0.63540  Biso   1.000  C
  C76      1.0000 0.18730  0.36930  0.86460  Biso   1.000  C
  C77      1.0000 0.01650  0.26270  0.68390  Biso   1.000  C
  C78      1.0000 0.48350  0.76270  0.81610  Biso   1.000  C
  C79      1.0000 0.98350  0.73730  0.31610  Biso   1.000  C
  C80      1.0000 0.51650  0.23730  0.18390  Biso   1.000  C
  N29      1.0000 0.89010  0.16990  0.05740  Biso   1.000  N
  N30      1.0000 0.60990  0.66990  0.44260  Biso   1.000  N
  N31      1.0000 0.10990  0.83010  0.94260  Biso   1.000  N
  N32      1.0000 0.39010  0.33010  0.55740  Biso   1.000  N
  O177     1.0000 0.06380  0.15370  0.24060  Biso   1.000  O
  O178     1.0000 0.43620  0.65370  0.25940  Biso   1.000  O
  O179     1.0000 0.93620  0.84630  0.75940  Biso   1.000  O
  O180     1.0000 0.56380  0.34630  0.74060  Biso   1.000  O
  C81      1.0000 0.87930  0.18430  0.97680  Biso   1.000  C
  C82      1.0000 0.62070  0.68430  0.52320  Biso   1.000  C
  C83      1.0000 0.12070  0.81570  0.02320  Biso   1.000  C
  C84      1.0000 0.37930  0.31570  0.47680  Biso   1.000  C
  H41      1.0000 0.93390  0.18840  0.97340  Biso   1.000  H
  H42      1.0000 0.56610  0.68840  0.52660  Biso   1.000  H
  H43      1.0000 0.06610  0.81160  0.02660  Biso   1.000  H
  H44      1.0000 0.43390  0.31160  0.47340  Biso   1.000  H
  H45      1.0000 0.84980  0.20990  0.96680  Biso   1.000  H
  H46      1.0000 0.65020  0.70990  0.53320  Biso   1.000  H
  H47      1.0000 0.15020  0.79010  0.03320  Biso   1.000  H
  H48      1.0000 0.34980  0.29010  0.46680  Biso   1.000  H
  C85      1.0000 0.67920  0.16970  0.52520  Biso   1.000  C
  C86      1.0000 0.82080  0.66970  0.97480  Biso   1.000  C
  C87      1.0000 0.32080  0.83030  0.47480  Biso   1.000  C
  C88      1.0000 0.17920  0.33030  0.02520  Biso   1.000  C
  H49      1.0000 0.67160  0.19750  0.53730  Biso   1.000  H
  H50      1.0000 0.82840  0.69750  0.96270  Biso   1.000  H
  H51      1.0000 0.32840  0.80250  0.46270  Biso   1.000  H
  H52      1.0000 0.17160  0.30250  0.03730  Biso   1.000  H
  H53      1.0000 0.73500  0.16690  0.52360  Biso   1.000  H
  H54      1.0000 0.76500  0.66690  0.97640  Biso   1.000  H
  H55      1.0000 0.26500  0.83310  0.47640  Biso   1.000  H
  H56      1.0000 0.23500  0.33310  0.02360  Biso   1.000  H
  O181     1.0000 0.87870  0.86090  0.35120  Biso   1.000  O
  O182     1.0000 0.62130  0.36090  0.14880  Biso   1.000  O
  O183     1.0000 0.12130  0.13910  0.64880  Biso   1.000  O
  O184     1.0000 0.37870  0.63910  0.85120  Biso   1.000  O
  C89      1.0000 0.87800  0.05970  0.46230  Biso   1.000  C
  C90      1.0000 0.62200  0.55970  0.03770  Biso   1.000  C
  C91      1.0000 0.12200  0.94030  0.53770  Biso   1.000  C
  C92      1.0000 0.37800  0.44030  0.96230  Biso   1.000  C
  H57      1.0000 0.93340  0.06510  0.46160  Biso   1.000  H
  H58      1.0000 0.56660  0.56510  0.03840  Biso   1.000  H
  H59      1.0000 0.06660  0.93490  0.53840  Biso   1.000  H
  H60      1.0000 0.43340  0.43490  0.96160  Biso   1.000  H
  H61      1.0000 0.84710  0.08490  0.45270  Biso   1.000  H
  H62      1.0000 0.65290  0.58490  0.04730  Biso   1.000  H
  H63      1.0000 0.15290  0.91510  0.54730  Biso   1.000  H
  H64      1.0000 0.34710  0.41510  0.95270  Biso   1.000  H
  O185     1.0000 0.89260  0.99480  0.80970  Biso   1.000  O
  O186     1.0000 0.60740  0.49480  0.69030  Biso   1.000  O
  O187     1.0000 0.10740  0.00520  0.19030  Biso   1.000  O
  O188     1.0000 0.39260  0.50520  0.30970  Biso   1.000  O
  O189     1.0000 0.61130  0.86780  0.15400  Biso   1.000  O
  O190     1.0000 0.88870  0.36780  0.34600  Biso   1.000  O
  O191     1.0000 0.38870  0.13220  0.84600  Biso   1.000  O
  O192     1.0000 0.11130  0.63220  0.65400  Biso   1.000  O
  C93      1.0000 0.67310  0.92490  0.39080  Biso   1.000  C
  C94      1.0000 0.82690  0.42490  0.10920  Biso   1.000  C
  C95      1.0000 0.32690  0.07510  0.60920  Biso   1.000  C
  C96      1.0000 0.17310  0.57510  0.89080  Biso   1.000  C
  H65      1.0000 0.72260  0.93140  0.43670  Biso   1.000  H
  H66      1.0000 0.77740  0.43140  0.06330  Biso   1.000  H
  H67      1.0000 0.27740  0.06860  0.56330  Biso   1.000  H
  H68      1.0000 0.22260  0.56860  0.93670  Biso   1.000  H
  H69      1.0000 0.65690  0.94910  0.35860  Biso   1.000  H
  H70      1.0000 0.84310  0.44910  0.14140  Biso   1.000  H
  H71      1.0000 0.34310  0.05090  0.64140  Biso   1.000  H
  H72      1.0000 0.15690  0.55090  0.85860  Biso   1.000  H
  C97      1.0000 0.00710  0.14700  0.17610  Biso   1.000  C
  C98      1.0000 0.49290  0.64700  0.32390  Biso   1.000  C
  C99      1.0000 0.99290  0.85300  0.82390  Biso   1.000  C
  C100     1.0000 0.50710  0.35300  0.67610  Biso   1.000  C
  C101     1.0000 0.68430  0.29740  0.03820  Biso   1.000  C
  C102     1.0000 0.81570  0.79740  0.46180  Biso   1.000  C
  C103     1.0000 0.31570  0.70260  0.96180  Biso   1.000  C
  C104     1.0000 0.18430  0.20260  0.53820  Biso   1.000  C
  H73      1.0000 0.67640  0.32530  0.04980  Biso   1.000  H
  H74      1.0000 0.82360  0.82530  0.45020  Biso   1.000  H
  H75      1.0000 0.32360  0.67470  0.95020  Biso   1.000  H
  H76      1.0000 0.17640  0.17470  0.54980  Biso   1.000  H
  H77      1.0000 0.74100  0.29460  0.03880  Biso   1.000  H
  H78      1.0000 0.75900  0.79460  0.46120  Biso   1.000  H
  H79      1.0000 0.25900  0.70540  0.96120  Biso   1.000  H
  H80      1.0000 0.24100  0.20540  0.53880  Biso   1.000  H
  O193     1.0000 0.73400  0.90370  0.30020  Biso   1.000  O
  O194     1.0000 0.76600  0.40370  0.19980  Biso   1.000  O
  O195     1.0000 0.26600  0.09630  0.69980  Biso   1.000  O
  O196     1.0000 0.23400  0.59630  0.80020  Biso   1.000  O
  O197     1.0000 0.40910  0.90530  0.25620  Biso   1.000  O
  O198     1.0000 0.09090  0.40530  0.24380  Biso   1.000  O
  O199     1.0000 0.59090  0.09470  0.74380  Biso   1.000  O
  O200     1.0000 0.90910  0.59470  0.75620  Biso   1.000  O
  O201     1.0000 0.61960  0.79720  0.24420  Biso   1.000  O
  O202     1.0000 0.88040  0.29720  0.25580  Biso   1.000  O
  O203     1.0000 0.38040  0.20280  0.75580  Biso   1.000  O
  O204     1.0000 0.11960  0.70280  0.74420  Biso   1.000  O
  C105     1.0000 0.63370  0.05330  0.00920  Biso   1.000  C
  C106     1.0000 0.86630  0.55330  0.49080  Biso   1.000  C
  C107     1.0000 0.36630  0.94670  0.99080  Biso   1.000  C
  C108     1.0000 0.13370  0.44670  0.50920  Biso   1.000  C
  H81      1.0000 0.58300  0.06200  0.01670  Biso   1.000  H
  H82      1.0000 0.91700  0.56200  0.48330  Biso   1.000  H
  H83      1.0000 0.41700  0.93800  0.98330  Biso   1.000  H
  H84      1.0000 0.08300  0.43800  0.51670  Biso   1.000  H
  H85      1.0000 0.66800  0.07680  0.01130  Biso   1.000  H
  H86      1.0000 0.83200  0.57680  0.48870  Biso   1.000  H
  H87      1.0000 0.33200  0.92320  0.98870  Biso   1.000  H
  H88      1.0000 0.16800  0.42320  0.51130  Biso   1.000  H
  C109     1.0000 0.96950  0.18140  0.12040  Biso   1.000  C
  C110     1.0000 0.53050  0.68140  0.37960  Biso   1.000  C
  C111     1.0000 0.03050  0.81860  0.87960  Biso   1.000  C
  C112     1.0000 0.46950  0.31860  0.62040  Biso   1.000  C
  H89      1.0000 0.95940  0.20390  0.15010  Biso   1.000  H
  H90      1.0000 0.54060  0.70390  0.34990  Biso   1.000  H
  H91      1.0000 0.04060  0.79610  0.84990  Biso   1.000  H
  H92      1.0000 0.45940  0.29610  0.65010  Biso   1.000  H
  H93      1.0000 0.00910  0.19020  0.09680  Biso   1.000  H
  H94      1.0000 0.49090  0.69020  0.40320  Biso   1.000  H
  H95      1.0000 0.99090  0.80980  0.90320  Biso   1.000  H
  H96      1.0000 0.50910  0.30980  0.59680  Biso   1.000  H
  C113     1.0000 0.80250  0.88550  0.11110  Biso   1.000  C
  C114     1.0000 0.69750  0.38550  0.38890  Biso   1.000  C
  C115     1.0000 0.19750  0.11450  0.88890  Biso   1.000  C
  C116     1.0000 0.30250  0.61450  0.61110  Biso   1.000  C
  C117     1.0000 0.96340  0.93390  0.06210  Biso   1.000  C
  C118     1.0000 0.53660  0.43390  0.43790  Biso   1.000  C
  C119     1.0000 0.03660  0.06610  0.93790  Biso   1.000  C
  C120     1.0000 0.46340  0.56610  0.56210  Biso   1.000  C
  H97      1.0000 0.96170  0.96090  0.08220  Biso   1.000  H
  H98      1.0000 0.53830  0.46090  0.41780  Biso   1.000  H
  H99      1.0000 0.03830  0.03910  0.91780  Biso   1.000  H
  H100     1.0000 0.46170  0.53910  0.58220  Biso   1.000  H
  H101     1.0000 0.98310  0.93600  0.01850  Biso   1.000  H
  H102     1.0000 0.51690  0.43600  0.48150  Biso   1.000  H
  H103     1.0000 0.01690  0.06400  0.98150  Biso   1.000  H
  H104     1.0000 0.48310  0.56400  0.51850  Biso   1.000  H
  C121     1.0000 0.53580  0.18030  0.43360  Biso   1.000  C
  C122     1.0000 0.96420  0.68030  0.06640  Biso   1.000  C
  C123     1.0000 0.46420  0.81970  0.56640  Biso   1.000  C
  C124     1.0000 0.03580  0.31970  0.93360  Biso   1.000  C
  H105     1.0000 0.53810  0.20700  0.41280  Biso   1.000  H
  H106     1.0000 0.96190  0.70700  0.08720  Biso   1.000  H
  H107     1.0000 0.46190  0.79300  0.58720  Biso   1.000  H
  H108     1.0000 0.03810  0.29300  0.91280  Biso   1.000  H
  H109     1.0000 0.52680  0.18320  0.48310  Biso   1.000  H
  H110     1.0000 0.97320  0.68320  0.01690  Biso   1.000  H
  H111     1.0000 0.47320  0.81680  0.51690  Biso   1.000  H
  H112     1.0000 0.02680  0.31680  0.98310  Biso   1.000  H
  C125     1.0000 0.47220  0.89620  0.31410  Biso   1.000  C
  C126     1.0000 0.02780  0.39620  0.18590  Biso   1.000  C
  C127     1.0000 0.52780  0.10380  0.68590  Biso   1.000  C
  C128     1.0000 0.97220  0.60380  0.81410  Biso   1.000  C
  O205     1.0000 0.47780  0.98370  0.88230  Biso   1.000  O
  O206     1.0000 0.02220  0.48370  0.61770  Biso   1.000  O
  O207     1.0000 0.52220  0.01630  0.11770  Biso   1.000  O
  O208     1.0000 0.97780  0.51630  0.38230  Biso   1.000  O
  C129     1.0000 0.02390  0.90800  0.12730  Biso   1.000  C
  C130     1.0000 0.47610  0.40800  0.37270  Biso   1.000  C
  C131     1.0000 0.97610  0.09200  0.87270  Biso   1.000  C
  C132     1.0000 0.52390  0.59200  0.62730  Biso   1.000  C
  C133     1.0000 0.88250  0.30410  0.49130  Biso   1.000  C
  C134     1.0000 0.61750  0.80410  0.00870  Biso   1.000  C
  C135     1.0000 0.11750  0.69590  0.50870  Biso   1.000  C
  C136     1.0000 0.38250  0.19590  0.99130  Biso   1.000  C
  H113     1.0000 0.93720  0.30630  0.48690  Biso   1.000  H
  H114     1.0000 0.56280  0.80630  0.01310  Biso   1.000  H
  H115     1.0000 0.06280  0.69370  0.51310  Biso   1.000  H
  H116     1.0000 0.43720  0.19370  0.98690  Biso   1.000  H
  H117     1.0000 0.85750  0.33070  0.48440  Biso   1.000  H
  H118     1.0000 0.64250  0.83070  0.01560  Biso   1.000  H
  H119     1.0000 0.14250  0.66930  0.51560  Biso   1.000  H
  H120     1.0000 0.35750  0.16930  0.98440  Biso   1.000  H
  C137     1.0000 0.00840  0.01910  0.65710  Biso   1.000  C
  C138     1.0000 0.49160  0.51910  0.84290  Biso   1.000  C
  C139     1.0000 0.99160  0.98090  0.34290  Biso   1.000  C
  C140     1.0000 0.50840  0.48090  0.15710  Biso   1.000  C
  C141     1.0000 0.62660  0.92800  0.50110  Biso   1.000  C
  C142     1.0000 0.87340  0.42800  0.99890  Biso   1.000  C
  C143     1.0000 0.37340  0.07200  0.49890  Biso   1.000  C
  C144     1.0000 0.12660  0.57200  0.00110  Biso   1.000  C
  H121     1.0000 0.57540  0.93210  0.51150  Biso   1.000  H
  H122     1.0000 0.92460  0.43210  0.98850  Biso   1.000  H
  H123     1.0000 0.42460  0.06790  0.48850  Biso   1.000  H
  H124     1.0000 0.07540  0.56790  0.01150  Biso   1.000  H
  H125     1.0000 0.65630  0.95350  0.50880  Biso   1.000  H
  H126     1.0000 0.84370  0.45350  0.99120  Biso   1.000  H
  H127     1.0000 0.34370  0.04650  0.49120  Biso   1.000  H
  H128     1.0000 0.15630  0.54650  0.00880  Biso   1.000  H
  C145     1.0000 0.96430  0.05530  0.60700  Biso   1.000  C
  C146     1.0000 0.53570  0.55530  0.89300  Biso   1.000  C
  C147     1.0000 0.03570  0.94470  0.39300  Biso   1.000  C
  C148     1.0000 0.46430  0.44470  0.10700  Biso   1.000  C
  H129     1.0000 0.95100  0.07480  0.64060  Biso   1.000  H
  H130     1.0000 0.54900  0.57480  0.85940  Biso   1.000  H
  H131     1.0000 0.04900  0.92520  0.35940  Biso   1.000  H
  H132     1.0000 0.45100  0.42520  0.14060  Biso   1.000  H
  H133     1.0000 0.00210  0.06810  0.58540  Biso   1.000  H
  H134     1.0000 0.49790  0.56810  0.91460  Biso   1.000  H
  H135     1.0000 0.99790  0.93190  0.41460  Biso   1.000  H
  H136     1.0000 0.50210  0.43190  0.08540  Biso   1.000  H
  C149     1.0000 0.81070  0.05360  0.55860  Biso   1.000  C
  C150     1.0000 0.68930  0.55360  0.94140  Biso   1.000  C
  C151     1.0000 0.18930  0.94640  0.44140  Biso   1.000  C
  C152     1.0000 0.31070  0.44640  0.05860  Biso   1.000  C
  H137     1.0000 0.76230  0.05460  0.50950  Biso   1.000  H
  H138     1.0000 0.73770  0.55460  0.99050  Biso   1.000  H
  H139     1.0000 0.23770  0.94540  0.49050  Biso   1.000  H
  H140     1.0000 0.26230  0.44540  0.00950  Biso   1.000  H
  H141     1.0000 0.81770  0.08010  0.58300  Biso   1.000  H
  H142     1.0000 0.68230  0.58010  0.91700  Biso   1.000  H
  H143     1.0000 0.18230  0.91990  0.41700  Biso   1.000  H
  H144     1.0000 0.31770  0.41990  0.08300  Biso   1.000  H
  C153     1.0000 0.65720  0.29430  0.89570  Biso   1.000  C
  C154     1.0000 0.84280  0.79430  0.60430  Biso   1.000  C
  C155     1.0000 0.34280  0.70570  0.10430  Biso   1.000  C
  C156     1.0000 0.15720  0.20570  0.39570  Biso   1.000  C
  H145     1.0000 0.70040  0.31490  0.91320  Biso   1.000  H
  H146     1.0000 0.79960  0.81490  0.58680  Biso   1.000  H
  H147     1.0000 0.29960  0.68510  0.08680  Biso   1.000  H
  H148     1.0000 0.20040  0.18510  0.41320  Biso   1.000  H
  H149     1.0000 0.61250  0.30420  0.84870  Biso   1.000  H
  H150     1.0000 0.88750  0.80420  0.65130  Biso   1.000  H
  H151     1.0000 0.38750  0.69580  0.15130  Biso   1.000  H
  H152     1.0000 0.11250  0.19580  0.34870  Biso   1.000  H
  O209     1.0000 0.08330  0.92400  0.17850  Biso   1.000  O
  O210     1.0000 0.41670  0.42400  0.32150  Biso   1.000  O
  O211     1.0000 0.91670  0.07600  0.82150  Biso   1.000  O
  O212     1.0000 0.58330  0.57600  0.67850  Biso   1.000  O
  O213     1.0000 0.06490  0.02570  0.72140  Biso   1.000  O
  O214     1.0000 0.43510  0.52570  0.77860  Biso   1.000  O
  O215     1.0000 0.93510  0.97430  0.27860  Biso   1.000  O
  O216     1.0000 0.56490  0.47430  0.22140  Biso   1.000  O
  C157     1.0000 0.64660  0.16710  0.38300  Biso   1.000  C
  C158     1.0000 0.85340  0.66710  0.11700  Biso   1.000  C
  C159     1.0000 0.35340  0.83290  0.61700  Biso   1.000  C
  C160     1.0000 0.14660  0.33290  0.88300  Biso   1.000  C
  H153     1.0000 0.68670  0.18910  0.39810  Biso   1.000  H
  H154     1.0000 0.81330  0.68910  0.10190  Biso   1.000  H
  H155     1.0000 0.31330  0.81090  0.60190  Biso   1.000  H
  H156     1.0000 0.18670  0.31090  0.89810  Biso   1.000  H
  H157     1.0000 0.59970  0.17530  0.33610  Biso   1.000  H
  H158     1.0000 0.90030  0.67530  0.16390  Biso   1.000  H
  H159     1.0000 0.40030  0.82470  0.66390  Biso   1.000  H
  H160     1.0000 0.09970  0.32470  0.83610  Biso   1.000  H
  C161     1.0000 0.46510  0.01770  0.84790  Biso   1.000  C
  C162     1.0000 0.03490  0.51770  0.65210  Biso   1.000  C
  C163     1.0000 0.53490  0.98230  0.15210  Biso   1.000  C
  C164     1.0000 0.96510  0.48230  0.34790  Biso   1.000  C
  O217     1.0000 0.49520  0.85960  0.33240  Biso   1.000  O
  O218     1.0000 0.00480  0.35960  0.16760  Biso   1.000  O
  O219     1.0000 0.50480  0.14040  0.66760  Biso   1.000  O
  O220     1.0000 0.99520  0.64040  0.83240  Biso   1.000  O
  C165     1.0000 0.53400  0.04880  0.87260  Biso   1.000  C
  C166     1.0000 0.96600  0.54880  0.62740  Biso   1.000  C
  C167     1.0000 0.46600  0.95120  0.12740  Biso   1.000  C
  C168     1.0000 0.03400  0.45120  0.37260  Biso   1.000  C
  H161     1.0000 0.54530  0.05740  0.82640  Biso   1.000  H
  H162     1.0000 0.95470  0.55740  0.67360  Biso   1.000  H
  H163     1.0000 0.45470  0.94260  0.17360  Biso   1.000  H
  H164     1.0000 0.04530  0.44260  0.32640  Biso   1.000  H
  H165     1.0000 0.51510  0.07210  0.89360  Biso   1.000  H
  H166     1.0000 0.98490  0.57210  0.60640  Biso   1.000  H
  H167     1.0000 0.48490  0.92790  0.10640  Biso   1.000  H
  H168     1.0000 0.01510  0.42790  0.39360  Biso   1.000  H
  C169     1.0000 0.82860  0.93040  0.95270  Biso   1.000  C
  C170     1.0000 0.67140  0.43040  0.54730  Biso   1.000  C
  C171     1.0000 0.17140  0.06960  0.04730  Biso   1.000  C
  C172     1.0000 0.32860  0.56960  0.45270  Biso   1.000  C
  H169     1.0000 0.84540  0.95750  0.94480  Biso   1.000  H
  H170     1.0000 0.65460  0.45750  0.55520  Biso   1.000  H
  H171     1.0000 0.15460  0.04250  0.05520  Biso   1.000  H
  H172     1.0000 0.34540  0.54250  0.44480  Biso   1.000  H
  H173     1.0000 0.76990  0.93120  0.94670  Biso   1.000  H
  H174     1.0000 0.73010  0.43120  0.55330  Biso   1.000  H
  H175     1.0000 0.23010  0.06880  0.05330  Biso   1.000  H
  H176     1.0000 0.26990  0.56880  0.44670  Biso   1.000  H
  C173     1.0000 0.84000  0.92380  0.09210  Biso   1.000  C
  C174     1.0000 0.66000  0.42380  0.40790  Biso   1.000  C
  C175     1.0000 0.16000  0.07620  0.90790  Biso   1.000  C
  C176     1.0000 0.34000  0.57620  0.59210  Biso   1.000  C
  H177     1.0000 0.79610  0.94380  0.07150  Biso   1.000  H
  H178     1.0000 0.70390  0.44380  0.42850  Biso   1.000  H
  H179     1.0000 0.20390  0.05620  0.92850  Biso   1.000  H
  H180     1.0000 0.29610  0.55620  0.57150  Biso   1.000  H
  H181     1.0000 0.88160  0.93440  0.14040  Biso   1.000  H
  H182     1.0000 0.61840  0.43440  0.35960  Biso   1.000  H
  H183     1.0000 0.11840  0.06560  0.85960  Biso   1.000  H
  H184     1.0000 0.38160  0.56560  0.64040  Biso   1.000  H
  O221     1.0000 0.40020  0.02430  0.78880  Biso   1.000  O
  O222     1.0000 0.09980  0.52430  0.71120  Biso   1.000  O
  O223     1.0000 0.59980  0.97570  0.21120  Biso   1.000  O
  O224     1.0000 0.90020  0.47570  0.28880  Biso   1.000  O
  O225     1.0000 0.64480  0.96987  0.85570  Biso   1.000  O
  O226     1.0000 0.85520  0.46987  0.64430  Biso   1.000  O
  O227     1.0000 0.35520  0.03013  0.14430  Biso   1.000  O
  O228     1.0000 0.14480  0.53013  0.35570  Biso   1.000  O
  O229     1.0000 0.39970  0.17490  0.33170  Biso   1.000  O
  O230     1.0000 0.10030  0.67490  0.16830  Biso   1.000  O
  O231     1.0000 0.60030  0.82510  0.66830  Biso   1.000  O
  O232     1.0000 0.89970  0.32510  0.83170  Biso   1.000  O
  O233     1.0000 0.63800  0.06160  0.24700  Biso   1.000  O
  O234     1.0000 0.86200  0.56160  0.25300  Biso   1.000  O
  O235     1.0000 0.36200  0.93840  0.75300  Biso   1.000  O
  O236     1.0000 0.13800  0.43840  0.74700  Biso   1.000  O
  C177     1.0000 0.69390  0.25620  0.87530  Biso   1.000  C
  C178     1.0000 0.80610  0.75620  0.62470  Biso   1.000  C
  C179     1.0000 0.30610  0.74380  0.12470  Biso   1.000  C
  C180     1.0000 0.19390  0.24380  0.37530  Biso   1.000  C
  C181     1.0000 0.46350  0.15680  0.37480  Biso   1.000  C
  C182     1.0000 0.03650  0.65680  0.12520  Biso   1.000  C
  C183     1.0000 0.53650  0.84320  0.62520  Biso   1.000  C
  C184     1.0000 0.96350  0.34320  0.87480  Biso   1.000  C
  C185     1.0000 0.68240  0.03560  0.90320  Biso   1.000  C
  C186     1.0000 0.81760  0.53560  0.59680  Biso   1.000  C
  C187     1.0000 0.31760  0.96440  0.09680  Biso   1.000  C
  C188     1.0000 0.18240  0.46440  0.40320  Biso   1.000  C
  H185     1.0000 0.73530  0.03590  0.94810  Biso   1.000  H
  H186     1.0000 0.76470  0.53590  0.55190  Biso   1.000  H
  H187     1.0000 0.26470  0.96410  0.05190  Biso   1.000  H
  H188     1.0000 0.23530  0.46410  0.44810  Biso   1.000  H
  H189     1.0000 0.67820  0.06060  0.87460  Biso   1.000  H
  H190     1.0000 0.82180  0.56060  0.62540  Biso   1.000  H
  H191     1.0000 0.32180  0.93940  0.12540  Biso   1.000  H
  H192     1.0000 0.17820  0.43940  0.37460  Biso   1.000  H
  O237     1.0000 0.72460  0.00540  0.80580  Biso   1.000  O
  O238     1.0000 0.77540  0.50540  0.69420  Biso   1.000  O
  O239     1.0000 0.27540  0.99460  0.19420  Biso   1.000  O
  O240     1.0000 0.22460  0.49460  0.30580  Biso   1.000  O
  C189     1.0000 0.68280  0.00060  0.84920  Biso   1.000  C
  C190     1.0000 0.81720  0.50060  0.65080  Biso   1.000  C
  C191     1.0000 0.31720  0.99940  0.15080  Biso   1.000  C
  C192     1.0000 0.18280  0.49940  0.34920  Biso   1.000  C
  O241     1.0000 0.77210  0.88820  0.16400  Biso   1.000  O
  O242     1.0000 0.72790  0.38820  0.33600  Biso   1.000  O
  O243     1.0000 0.22790  0.11180  0.83600  Biso   1.000  O
  O244     1.0000 0.27210  0.61180  0.66400  Biso   1.000  O
  O245     1.0000 0.72810  0.26016  0.82590  Biso   1.000  O
  O246     1.0000 0.77190  0.76016  0.67410  Biso   1.000  O
  O247     1.0000 0.27190  0.73984  0.17410  Biso   1.000  O
  O248     1.0000 0.22810  0.23984  0.32590  Biso   1.000  O
  O249     1.0000 0.79630  0.28890  0.35900  Biso   1.000  O
  O250     1.0000 0.70370  0.78890  0.14100  Biso   1.000  O
  O251     1.0000 0.20370  0.71110  0.64100  Biso   1.000  O
  O252     1.0000 0.29630  0.21110  0.85900  Biso   1.000  O
  O253     1.0000 0.72560  0.13461  0.31830  Biso   1.000  O
  O254     1.0000 0.77440  0.63461  0.18170  Biso   1.000  O
  O255     1.0000 0.27440  0.86539  0.68170  Biso   1.000  O
  O256     1.0000 0.22560  0.36539  0.81830  Biso   1.000  O
  K1       1.0000 0.74314  0.21672  0.27359  Biso   1.000  K
  K2       1.0000 0.75686  0.71672  0.22641  Biso   1.000  K
  K3       1.0000 0.25686  0.78328  0.72641  Biso   1.000  K
  K4       1.0000 0.24314  0.28328  0.77359  Biso   1.000  K
  K5       1.0000 0.73376  0.34227  0.76713  Biso   1.000  K
  K6       1.0000 0.76624  0.84227  0.73287  Biso   1.000  K
  K7       1.0000 0.26624  0.65773  0.23287  Biso   1.000  K
  K8       1.0000 0.23376  0.15773  0.26713  Biso   1.000  K
  K9       1.0000 0.75195  0.08965  0.76469  Biso   1.000  K
  K10      1.0000 0.74805  0.58965  0.73531  Biso   1.000  K
  K11      1.0000 0.24805  0.91035  0.23531  Biso   1.000  K
  K12      1.0000 0.25195  0.41035  0.26469  Biso   1.000  K
  K13      1.0000 0.76528  0.96830  0.23386  Biso   1.000  K
  K14      1.0000 0.73472  0.46830  0.26614  Biso   1.000  K
  K15      1.0000 0.23472  0.03170  0.76614  Biso   1.000  K
  K16      1.0000 0.26528  0.53170  0.73386  Biso   1.000  K
  O257     1.0000 0.98800  0.39230  0.70200  Biso   1.000  O
  O258     1.0000 0.51200  0.89230  0.79800  Biso   1.000  O
  O259     1.0000 0.01200  0.60770  0.29800  Biso   1.000  O
  O260     1.0000 0.48800  0.10770  0.20200  Biso   1.000  O
