data_image0
_cell_length_a       16.9052
_cell_length_b       32.537
_cell_length_c       18.1468
_cell_angle_alpha    90
_cell_angle_beta     112.544
_cell_angle_gamma    90

_symmetry_space_group_name_H-M    "P 1"
_symmetry_int_tables_number       1

loop_
  _symmetry_equiv_pos_as_xyz
  'x, y, z'

loop_
  _atom_site_label
  _atom_site_occupancy
  _atom_site_fract_x
  _atom_site_fract_y
  _atom_site_fract_z
  _atom_site_thermal_displace_type
  _atom_site_B_iso_or_equiv
  _atom_site_type_symbol
  Gd1      1.0000 0.76068  0.08990  0.23783  Biso   1.000  Gd
  Gd2      1.0000 0.73932  0.58990  0.26217  Biso   1.000  Gd
  Gd3      1.0000 0.23932  0.91010  0.76217  Biso   1.000  Gd
  Gd4      1.0000 0.26068  0.41010  0.73783  Biso   1.000  Gd
  Gd5      1.0000 0.75682  0.21252  0.75394  Biso   1.000  Gd
  Gd6      1.0000 0.74318  0.71252  0.74606  Biso   1.000  Gd
  Gd7      1.0000 0.24318  0.78748  0.24606  Biso   1.000  Gd
  Gd8      1.0000 0.25682  0.28748  0.25394  Biso   1.000  Gd
  Gd9      1.0000 0.76389  0.96355  0.72034  Biso   1.000  Gd
  Gd10     1.0000 0.73611  0.46355  0.77966  Biso   1.000  Gd
  Gd11     1.0000 0.23611  0.03645  0.27966  Biso   1.000  Gd
  Gd12     1.0000 0.26389  0.53645  0.22034  Biso   1.000  Gd
  Gd13     1.0000 0.74563  0.33659  0.27170  Biso   1.000  Gd
  Gd14     1.0000 0.75437  0.83659  0.22830  Biso   1.000  Gd
  Gd15     1.0000 0.25437  0.66341  0.72830  Biso   1.000  Gd
  Gd16     1.0000 0.24563  0.16341  0.77170  Biso   1.000  Gd
  Cu1      1.0000 0.59318  0.10027  0.45780  Biso   1.000  Cu
  Cu2      1.0000 0.90682  0.60027  0.04220  Biso   1.000  Cu
  Cu3      1.0000 0.40682  0.89973  0.54220  Biso   1.000  Cu
  Cu4      1.0000 0.09318  0.39973  0.95780  Biso   1.000  Cu
  Cu5      1.0000 0.89589  0.23195  0.58268  Biso   1.000  Cu
  Cu6      1.0000 0.60411  0.73195  0.91732  Biso   1.000  Cu
  Cu7      1.0000 0.10411  0.76805  0.41732  Biso   1.000  Cu
  Cu8      1.0000 0.39589  0.26805  0.08268  Biso   1.000  Cu
  Cu9      1.0000 0.89763  0.85681  0.02952  Biso   1.000  Cu
  Cu10     1.0000 0.60237  0.35681  0.47048  Biso   1.000  Cu
  Cu11     1.0000 0.10237  0.14319  0.97048  Biso   1.000  Cu
  Cu12     1.0000 0.39763  0.64319  0.52952  Biso   1.000  Cu
  Cu13     1.0000 0.89475  0.98462  0.54853  Biso   1.000  Cu
  Cu14     1.0000 0.60525  0.48462  0.95147  Biso   1.000  Cu
  Cu15     1.0000 0.10525  0.01538  0.45147  Biso   1.000  Cu
  Cu16     1.0000 0.39475  0.51538  0.04853  Biso   1.000  Cu
  Cu17     1.0000 0.89357  0.10931  0.06599  Biso   1.000  Cu
  Cu18     1.0000 0.60643  0.60931  0.43401  Biso   1.000  Cu
  Cu19     1.0000 0.10643  0.89069  0.93401  Biso   1.000  Cu
  Cu20     1.0000 0.39357  0.39069  0.56599  Biso   1.000  Cu
  Cu21     1.0000 0.59495  0.85345  0.42280  Biso   1.000  Cu
  Cu22     1.0000 0.90505  0.35345  0.07720  Biso   1.000  Cu
  Cu23     1.0000 0.40505  0.14655  0.57720  Biso   1.000  Cu
  Cu24     1.0000 0.09495  0.64655  0.92280  Biso   1.000  Cu
  Cu25     1.0000 0.58914  0.97751  0.94411  Biso   1.000  Cu
  Cu26     1.0000 0.91086  0.47751  0.55589  Biso   1.000  Cu
  Cu27     1.0000 0.41086  0.02249  0.05589  Biso   1.000  Cu
  Cu28     1.0000 0.08914  0.52249  0.44411  Biso   1.000  Cu
  Cu29     1.0000 0.59628  0.22693  0.96957  Biso   1.000  Cu
  Cu30     1.0000 0.90372  0.72693  0.53043  Biso   1.000  Cu
  Cu31     1.0000 0.40372  0.77307  0.03043  Biso   1.000  Cu
  Cu32     1.0000 0.09628  0.27307  0.46957  Biso   1.000  Cu
  Cl1      1.0000 0.91220  0.78833  0.03400  Biso   1.000  Cl
  Cl2      1.0000 0.58780  0.28833  0.46600  Biso   1.000  Cl
  Cl3      1.0000 0.08780  0.21167  0.96600  Biso   1.000  Cl
  Cl4      1.0000 0.41220  0.71167  0.53400  Biso   1.000  Cl
  Cl5      1.0000 0.57260  0.03282  0.45430  Biso   1.000  Cl
  Cl6      1.0000 0.92740  0.53282  0.04570  Biso   1.000  Cl
  Cl7      1.0000 0.42740  0.96718  0.54570  Biso   1.000  Cl
  Cl8      1.0000 0.07260  0.46718  0.95430  Biso   1.000  Cl
  Cl9      1.0000 0.57420  0.16000  0.96700  Biso   1.000  Cl
  Cl10     1.0000 0.92580  0.66000  0.53300  Biso   1.000  Cl
  Cl11     1.0000 0.42580  0.84000  0.03300  Biso   1.000  Cl
  Cl12     1.0000 0.07420  0.34000  0.46700  Biso   1.000  Cl
  Cl13     1.0000 0.91010  0.16318  0.58290  Biso   1.000  Cl
  Cl14     1.0000 0.58990  0.66318  0.91710  Biso   1.000  Cl
  Cl15     1.0000 0.08990  0.83682  0.41710  Biso   1.000  Cl
  Cl16     1.0000 0.41010  0.33682  0.08290  Biso   1.000  Cl
  Cl17     1.0000 0.90490  0.91601  0.55090  Biso   1.000  Cl
  Cl18     1.0000 0.59510  0.41601  0.94910  Biso   1.000  Cl
  Cl19     1.0000 0.09510  0.08399  0.44910  Biso   1.000  Cl
  Cl20     1.0000 0.40490  0.58399  0.05090  Biso   1.000  Cl
  Cl21     1.0000 0.90370  0.04083  0.06700  Biso   1.000  Cl
  Cl22     1.0000 0.59630  0.54083  0.43300  Biso   1.000  Cl
  Cl23     1.0000 0.09630  0.95917  0.93300  Biso   1.000  Cl
  Cl24     1.0000 0.40370  0.45917  0.56700  Biso   1.000  Cl
  Cl25     1.0000 0.57630  0.78690  0.43090  Biso   1.000  Cl
  Cl26     1.0000 0.92370  0.28690  0.06910  Biso   1.000  Cl
  Cl27     1.0000 0.42370  0.21310  0.56910  Biso   1.000  Cl
  Cl28     1.0000 0.07630  0.71310  0.93090  Biso   1.000  Cl
  Cl29     1.0000 0.56770  0.91092  0.95660  Biso   1.000  Cl
  Cl30     1.0000 0.93230  0.41092  0.54340  Biso   1.000  Cl
  Cl31     1.0000 0.43230  0.08908  0.04340  Biso   1.000  Cl
  Cl32     1.0000 0.06770  0.58908  0.45660  Biso   1.000  Cl
  Na1      1.0000 0.74170  0.21600  0.27930  Biso   1.000  Na
  Na2      1.0000 0.75830  0.71600  0.22070  Biso   1.000  Na
  Na3      1.0000 0.25830  0.78400  0.72070  Biso   1.000  Na
  Na4      1.0000 0.24170  0.28400  0.77930  Biso   1.000  Na
  Na5      1.0000 0.74230  0.34180  0.77750  Biso   1.000  Na
  Na6      1.0000 0.75770  0.84180  0.72250  Biso   1.000  Na
  Na7      1.0000 0.25770  0.65820  0.22250  Biso   1.000  Na
  Na8      1.0000 0.24230  0.15820  0.27750  Biso   1.000  Na
  Na9      1.0000 0.75180  0.09200  0.75860  Biso   1.000  Na
  Na10     1.0000 0.74820  0.59200  0.74140  Biso   1.000  Na
  Na11     1.0000 0.24820  0.90800  0.24140  Biso   1.000  Na
  Na12     1.0000 0.25180  0.40800  0.25860  Biso   1.000  Na
  Na13     1.0000 0.76190  0.96710  0.23040  Biso   1.000  Na
  Na14     1.0000 0.73810  0.46710  0.26960  Biso   1.000  Na
  Na15     1.0000 0.23810  0.03290  0.76960  Biso   1.000  Na
  Na16     1.0000 0.26190  0.53290  0.73040  Biso   1.000  Na
  O1       1.0000 0.68530  0.86090  0.53270  Biso   1.000  O
  O2       1.0000 0.81470  0.36090  0.96730  Biso   1.000  O
  O3       1.0000 0.31470  0.13910  0.46730  Biso   1.000  O
  O4       1.0000 0.18530  0.63910  0.03270  Biso   1.000  O
  O5       1.0000 0.72820  0.90620  0.62890  Biso   1.000  O
  O6       1.0000 0.77180  0.40620  0.87110  Biso   1.000  O
  O7       1.0000 0.27180  0.09380  0.37110  Biso   1.000  O
  O8       1.0000 0.22820  0.59380  0.12890  Biso   1.000  O
  O9       1.0000 0.81960  0.23780  0.47300  Biso   1.000  O
  O10      1.0000 0.68040  0.73780  0.02700  Biso   1.000  O
  O11      1.0000 0.18040  0.76220  0.52700  Biso   1.000  O
  O12      1.0000 0.31960  0.26220  0.97300  Biso   1.000  O
  O13      1.0000 0.64490  0.09920  0.37380  Biso   1.000  O
  O14      1.0000 0.85510  0.59920  0.12620  Biso   1.000  O
  O15      1.0000 0.35510  0.90080  0.62620  Biso   1.000  O
  O16      1.0000 0.14490  0.40080  0.87380  Biso   1.000  O
  O17      1.0000 0.47760  0.24420  0.89210  Biso   1.000  O
  O18      1.0000 0.02240  0.74420  0.60790  Biso   1.000  O
  O19      1.0000 0.52240  0.75580  0.10790  Biso   1.000  O
  O20      1.0000 0.97760  0.25580  0.39210  Biso   1.000  O
  N1       1.0000 0.61510  0.16060  0.45530  Biso   1.000  N
  N2       1.0000 0.88490  0.66060  0.04470  Biso   1.000  N
  N3       1.0000 0.38490  0.83940  0.54470  Biso   1.000  N
  N4       1.0000 0.11510  0.33940  0.95530  Biso   1.000  N
  N5       1.0000 0.61020  0.91480  0.41720  Biso   1.000  N
  N6       1.0000 0.88980  0.41480  0.08280  Biso   1.000  N
  N7       1.0000 0.38980  0.08520  0.58280  Biso   1.000  N
  N8       1.0000 0.11020  0.58520  0.91720  Biso   1.000  N
  O21      1.0000 0.63180  0.23560  0.08870  Biso   1.000  O
  O22      1.0000 0.86820  0.73560  0.41130  Biso   1.000  O
  O23      1.0000 0.36820  0.76440  0.91130  Biso   1.000  O
  O24      1.0000 0.13180  0.26440  0.58870  Biso   1.000  O
  O25      1.0000 0.67990  0.22490  0.91250  Biso   1.000  O
  O26      1.0000 0.82010  0.72490  0.58750  Biso   1.000  O
  O27      1.0000 0.32010  0.77510  0.08750  Biso   1.000  O
  O28      1.0000 0.17990  0.27510  0.41250  Biso   1.000  O
  O29      1.0000 0.80310  0.91040  0.81750  Biso   1.000  O
  O30      1.0000 0.69690  0.41040  0.68250  Biso   1.000  O
  O31      1.0000 0.19690  0.08960  0.18250  Biso   1.000  O
  O32      1.0000 0.30310  0.58960  0.31750  Biso   1.000  O
  O33      1.0000 0.80750  0.86050  0.08450  Biso   1.000  O
  O34      1.0000 0.69250  0.36050  0.41550  Biso   1.000  O
  O35      1.0000 0.19250  0.13950  0.91550  Biso   1.000  O
  O36      1.0000 0.30750  0.63950  0.58450  Biso   1.000  O
  O37      1.0000 0.81900  0.11690  0.95110  Biso   1.000  O
  O38      1.0000 0.68100  0.61690  0.54890  Biso   1.000  O
  O39      1.0000 0.18100  0.88310  0.04890  Biso   1.000  O
  O40      1.0000 0.31900  0.38310  0.45110  Biso   1.000  O
  N9       1.0000 0.88230  0.91790  0.03120  Biso   1.000  N
  N10      1.0000 0.61770  0.41790  0.46880  Biso   1.000  N
  N11      1.0000 0.11770  0.08210  0.96880  Biso   1.000  N
  N12      1.0000 0.38230  0.58210  0.53120  Biso   1.000  N
  O41      1.0000 0.01670  0.87170  0.11580  Biso   1.000  O
  O42      1.0000 0.48330  0.37170  0.38420  Biso   1.000  O
  O43      1.0000 0.98330  0.12830  0.88420  Biso   1.000  O
  O44      1.0000 0.51670  0.62830  0.61580  Biso   1.000  O
  O45      1.0000 0.99780  0.11630  0.15920  Biso   1.000  O
  O46      1.0000 0.50220  0.61630  0.34080  Biso   1.000  O
  O47      1.0000 0.00220  0.88370  0.84080  Biso   1.000  O
  O48      1.0000 0.49780  0.38370  0.65920  Biso   1.000  O
  N13      1.0000 0.61730  0.28770  0.97020  Biso   1.000  N
  N14      1.0000 0.88270  0.78770  0.52980  Biso   1.000  N
  N15      1.0000 0.38270  0.71230  0.02980  Biso   1.000  N
  N16      1.0000 0.11730  0.21230  0.47020  Biso   1.000  N
  O49      1.0000 0.83890  0.99090  0.43160  Biso   1.000  O
  O50      1.0000 0.66110  0.49090  0.06840  Biso   1.000  O
  O51      1.0000 0.16110  0.00910  0.56840  Biso   1.000  O
  O52      1.0000 0.33890  0.50910  0.93160  Biso   1.000  O
  O53      1.0000 0.80570  0.11690  0.13060  Biso   1.000  O
  O54      1.0000 0.69430  0.61690  0.36940  Biso   1.000  O
  O55      1.0000 0.19430  0.88310  0.86940  Biso   1.000  O
  O56      1.0000 0.30570  0.38310  0.63060  Biso   1.000  O
  O57      1.0000 0.79580  0.03570  0.33380  Biso   1.000  O
  O58      1.0000 0.70420  0.53570  0.16620  Biso   1.000  O
  O59      1.0000 0.20420  0.96430  0.66620  Biso   1.000  O
  O60      1.0000 0.29580  0.46430  0.83380  Biso   1.000  O
  C1       1.0000 0.82700  0.90040  0.88730  Biso   1.000  C
  C2       1.0000 0.67300  0.40040  0.61270  Biso   1.000  C
  C3       1.0000 0.17300  0.09960  0.11270  Biso   1.000  C
  C4       1.0000 0.32700  0.59960  0.38730  Biso   1.000  C
  C5       1.0000 0.82360  0.15130  0.92530  Biso   1.000  C
  C6       1.0000 0.67640  0.65130  0.57470  Biso   1.000  C
  C7       1.0000 0.17640  0.84870  0.07470  Biso   1.000  C
  C8       1.0000 0.32360  0.34870  0.42530  Biso   1.000  C
  O61      1.0000 0.72380  0.03210  0.14930  Biso   1.000  O
  O62      1.0000 0.77620  0.53210  0.35070  Biso   1.000  O
  O63      1.0000 0.27620  0.96790  0.85070  Biso   1.000  O
  O64      1.0000 0.22380  0.46790  0.64930  Biso   1.000  O
  O65      1.0000 0.85630  0.86410  0.91530  Biso   1.000  O
  O66      1.0000 0.64370  0.36410  0.58470  Biso   1.000  O
  O67      1.0000 0.14370  0.13590  0.08470  Biso   1.000  O
  O68      1.0000 0.35630  0.63590  0.41530  Biso   1.000  O
  O69      1.0000 0.80660  0.99050  0.60800  Biso   1.000  O
  O70      1.0000 0.69340  0.49050  0.89200  Biso   1.000  O
  O71      1.0000 0.19340  0.00950  0.39200  Biso   1.000  O
  O72      1.0000 0.30660  0.50950  0.10800  Biso   1.000  O
  C9       1.0000 0.97450  0.30810  0.63930  Biso   1.000  C
  C10      1.0000 0.52550  0.80810  0.86070  Biso   1.000  C
  C11      1.0000 0.02550  0.69190  0.36070  Biso   1.000  C
  C12      1.0000 0.47450  0.19190  0.13930  Biso   1.000  C
  H1       1.0000 0.00540  0.31960  0.60870  Biso   1.000  H
  H2       1.0000 0.49460  0.81960  0.89130  Biso   1.000  H
  H3       1.0000 0.99460  0.68040  0.39130  Biso   1.000  H
  H4       1.0000 0.50540  0.18040  0.10870  Biso   1.000  H
  H5       1.0000 0.96670  0.33000  0.67210  Biso   1.000  H
  H6       1.0000 0.53330  0.83000  0.82790  Biso   1.000  H
  H7       1.0000 0.03330  0.67000  0.32790  Biso   1.000  H
  H8       1.0000 0.46670  0.17000  0.17210  Biso   1.000  H
  O73      1.0000 0.76320  0.28620  0.70420  Biso   1.000  O
  O74      1.0000 0.73680  0.78620  0.79580  Biso   1.000  O
  O75      1.0000 0.23680  0.71380  0.29580  Biso   1.000  O
  O76      1.0000 0.26320  0.21380  0.20420  Biso   1.000  O
  O77      1.0000 0.78440  0.03840  0.68680  Biso   1.000  O
  O78      1.0000 0.71560  0.53840  0.81320  Biso   1.000  O
  O79      1.0000 0.21560  0.96160  0.31320  Biso   1.000  O
  O80      1.0000 0.28440  0.46160  0.18680  Biso   1.000  O
  O81      1.0000 0.80840  0.23680  0.64870  Biso   1.000  O
  O82      1.0000 0.69160  0.73680  0.85130  Biso   1.000  O
  O83      1.0000 0.19160  0.76320  0.35130  Biso   1.000  O
  O84      1.0000 0.30840  0.26320  0.14870  Biso   1.000  O
  C13      1.0000 0.79730  0.27490  0.65710  Biso   1.000  C
  C14      1.0000 0.70270  0.77490  0.84290  Biso   1.000  C
  C15      1.0000 0.20270  0.72510  0.34290  Biso   1.000  C
  C16      1.0000 0.29730  0.22510  0.15710  Biso   1.000  C
  C17      1.0000 0.82540  0.02550  0.40550  Biso   1.000  C
  C18      1.0000 0.67460  0.52550  0.09450  Biso   1.000  C
  C19      1.0000 0.17460  0.97450  0.59450  Biso   1.000  C
  C20      1.0000 0.32540  0.47450  0.90550  Biso   1.000  C
  O85      1.0000 0.00680  0.99560  0.63710  Biso   1.000  O
  O86      1.0000 0.49320  0.49560  0.86290  Biso   1.000  O
  O87      1.0000 0.99320  0.00440  0.36290  Biso   1.000  O
  O88      1.0000 0.50680  0.50440  0.13710  Biso   1.000  O
  O89      1.0000 0.89300  0.05530  0.24280  Biso   1.000  O
  O90      1.0000 0.60700  0.55530  0.25720  Biso   1.000  O
  O91      1.0000 0.10700  0.94470  0.75720  Biso   1.000  O
  O92      1.0000 0.39300  0.44470  0.74280  Biso   1.000  O
  O93      1.0000 0.65870  0.10810  0.57310  Biso   1.000  O
  O94      1.0000 0.84130  0.60810  0.92690  Biso   1.000  O
  O95      1.0000 0.34130  0.89190  0.42690  Biso   1.000  O
  O96      1.0000 0.15870  0.39190  0.07310  Biso   1.000  O
  C21      1.0000 0.53450  0.30810  0.95310  Biso   1.000  C
  C22      1.0000 0.96550  0.80810  0.54690  Biso   1.000  C
  C23      1.0000 0.46550  0.69190  0.04690  Biso   1.000  C
  C24      1.0000 0.03450  0.19190  0.45310  Biso   1.000  C
  H9       1.0000 0.53490  0.33490  0.92990  Biso   1.000  H
  H10      1.0000 0.96510  0.83490  0.57010  Biso   1.000  H
  H11      1.0000 0.46510  0.66510  0.07010  Biso   1.000  H
  H12      1.0000 0.03490  0.16510  0.42990  Biso   1.000  H
  H13      1.0000 0.52610  0.31210  0.00260  Biso   1.000  H
  H14      1.0000 0.97390  0.81210  0.49740  Biso   1.000  H
  H15      1.0000 0.47390  0.68790  0.99740  Biso   1.000  H
  H16      1.0000 0.02610  0.18790  0.50260  Biso   1.000  H
  O97      1.0000 0.46850  0.11780  0.39590  Biso   1.000  O
  O98      1.0000 0.03150  0.61780  0.10410  Biso   1.000  O
  O99      1.0000 0.53150  0.88220  0.60410  Biso   1.000  O
  O100     1.0000 0.96850  0.38220  0.89590  Biso   1.000  O
  O101     1.0000 0.68040  0.98410  0.05440  Biso   1.000  O
  O102     1.0000 0.81960  0.48410  0.44560  Biso   1.000  O
  O103     1.0000 0.31960  0.01590  0.94560  Biso   1.000  O
  O104     1.0000 0.18040  0.51590  0.55440  Biso   1.000  O
  O105     1.0000 0.88920  0.11870  0.33810  Biso   1.000  O
  O106     1.0000 0.61080  0.61870  0.16190  Biso   1.000  O
  O107     1.0000 0.11080  0.88130  0.66190  Biso   1.000  O
  O108     1.0000 0.38920  0.38130  0.83810  Biso   1.000  O
  N17      1.0000 0.61580  0.03610  0.93500  Biso   1.000  N
  N18      1.0000 0.88420  0.53610  0.56500  Biso   1.000  N
  N19      1.0000 0.38420  0.96390  0.06500  Biso   1.000  N
  N20      1.0000 0.11580  0.46390  0.43500  Biso   1.000  N
  O109     1.0000 0.62600  0.23880  0.64840  Biso   1.000  O
  O110     1.0000 0.87400  0.73880  0.85160  Biso   1.000  O
  O111     1.0000 0.37400  0.76120  0.35160  Biso   1.000  O
  O112     1.0000 0.12600  0.26120  0.14840  Biso   1.000  O
  O113     1.0000 0.62730  0.11950  0.13880  Biso   1.000  O
  O114     1.0000 0.87270  0.61950  0.36120  Biso   1.000  O
  O115     1.0000 0.37270  0.88050  0.86120  Biso   1.000  O
  O116     1.0000 0.12730  0.38050  0.63880  Biso   1.000  O
  C25      1.0000 0.80110  0.15420  0.14500  Biso   1.000  C
  C26      1.0000 0.69890  0.65420  0.35500  Biso   1.000  C
  C27      1.0000 0.19890  0.84580  0.85500  Biso   1.000  C
  C28      1.0000 0.30110  0.34580  0.64500  Biso   1.000  C
  C29      1.0000 0.68650  0.89550  0.55780  Biso   1.000  C
  C30      1.0000 0.81350  0.39550  0.94220  Biso   1.000  C
  C31      1.0000 0.31350  0.10450  0.44220  Biso   1.000  C
  C32      1.0000 0.18650  0.60450  0.05780  Biso   1.000  C
  O117     1.0000 0.66800  0.85440  0.34190  Biso   1.000  O
  O118     1.0000 0.83200  0.35440  0.15810  Biso   1.000  O
  O119     1.0000 0.33200  0.14560  0.65810  Biso   1.000  O
  O120     1.0000 0.16800  0.64560  0.84190  Biso   1.000  O
  O121     1.0000 0.89860  0.93420  0.72260  Biso   1.000  O
  O122     1.0000 0.60140  0.43420  0.77740  Biso   1.000  O
  O123     1.0000 0.10140  0.06580  0.27740  Biso   1.000  O
  O124     1.0000 0.39860  0.56580  0.22260  Biso   1.000  O
  C33      1.0000 0.67930  0.14400  0.59610  Biso   1.000  C
  C34      1.0000 0.82070  0.64400  0.90390  Biso   1.000  C
  C35      1.0000 0.32070  0.85600  0.40390  Biso   1.000  C
  C36      1.0000 0.17930  0.35600  0.09610  Biso   1.000  C
  O125     1.0000 0.88590  0.24440  0.84270  Biso   1.000  O
  O126     1.0000 0.61410  0.74440  0.65730  Biso   1.000  O
  O127     1.0000 0.11410  0.75560  0.15730  Biso   1.000  O
  O128     1.0000 0.38590  0.25560  0.34270  Biso   1.000  O
  O129     1.0000 0.39430  0.30020  0.85320  Biso   1.000  O
  O130     1.0000 0.10570  0.80020  0.64680  Biso   1.000  O
  O131     1.0000 0.60570  0.69980  0.14680  Biso   1.000  O
  O132     1.0000 0.89430  0.19980  0.35320  Biso   1.000  O
  C37      1.0000 0.52870  0.93360  0.36310  Biso   1.000  C
  C38      1.0000 0.97130  0.43360  0.13690  Biso   1.000  C
  C39      1.0000 0.47130  0.06640  0.63690  Biso   1.000  C
  C40      1.0000 0.02870  0.56640  0.86310  Biso   1.000  C
  H17      1.0000 0.53890  0.95020  0.32330  Biso   1.000  H
  H18      1.0000 0.96110  0.45020  0.17670  Biso   1.000  H
  H19      1.0000 0.46110  0.04980  0.67670  Biso   1.000  H
  H20      1.0000 0.03890  0.54980  0.82330  Biso   1.000  H
  H21      1.0000 0.50620  0.95130  0.39340  Biso   1.000  H
  H22      1.0000 0.99380  0.45130  0.10660  Biso   1.000  H
  H23      1.0000 0.49380  0.04870  0.60660  Biso   1.000  H
  H24      1.0000 0.00620  0.54870  0.89340  Biso   1.000  H
  O133     1.0000 0.79040  0.16070  0.85380  Biso   1.000  O
  O134     1.0000 0.70960  0.66070  0.64620  Biso   1.000  O
  O135     1.0000 0.20960  0.83930  0.14620  Biso   1.000  O
  O136     1.0000 0.29040  0.33930  0.35380  Biso   1.000  O
  O137     1.0000 0.77760  0.16690  0.19860  Biso   1.000  O
  O138     1.0000 0.72240  0.66690  0.30140  Biso   1.000  O
  O139     1.0000 0.22240  0.83310  0.80140  Biso   1.000  O
  O140     1.0000 0.27760  0.33310  0.69860  Biso   1.000  O
  O141     1.0000 0.63260  0.99500  0.62740  Biso   1.000  O
  O142     1.0000 0.86740  0.49500  0.87260  Biso   1.000  O
  O143     1.0000 0.36740  0.00500  0.37260  Biso   1.000  O
  O144     1.0000 0.13260  0.50500  0.12740  Biso   1.000  O
  C41      1.0000 0.68680  0.02230  0.07840  Biso   1.000  C
  C42      1.0000 0.81320  0.52230  0.42160  Biso   1.000  C
  C43      1.0000 0.31320  0.97770  0.92160  Biso   1.000  C
  C44      1.0000 0.18680  0.47770  0.57840  Biso   1.000  C
  C45      1.0000 0.81750  0.27490  0.44170  Biso   1.000  C
  C46      1.0000 0.68250  0.77490  0.05830  Biso   1.000  C
  C47      1.0000 0.18250  0.72510  0.55830  Biso   1.000  C
  C48      1.0000 0.31750  0.22510  0.94170  Biso   1.000  C
  C49      1.0000 0.80780  0.02870  0.63280  Biso   1.000  C
  C50      1.0000 0.69220  0.52870  0.86720  Biso   1.000  C
  C51      1.0000 0.19220  0.97130  0.36720  Biso   1.000  C
  C52      1.0000 0.30780  0.47130  0.13280  Biso   1.000  C
  O145     1.0000 0.88430  0.17320  0.75780  Biso   1.000  O
  O146     1.0000 0.61570  0.67320  0.74220  Biso   1.000  O
  O147     1.0000 0.11570  0.82680  0.24220  Biso   1.000  O
  O148     1.0000 0.38430  0.32680  0.25780  Biso   1.000  O
  C53      1.0000 0.46280  0.28340  0.89750  Biso   1.000  C
  C54      1.0000 0.03720  0.78340  0.60250  Biso   1.000  C
  C55      1.0000 0.53720  0.71660  0.10250  Biso   1.000  C
  C56      1.0000 0.96280  0.21660  0.39750  Biso   1.000  C
  N21      1.0000 0.88670  0.04730  0.54820  Biso   1.000  N
  N22      1.0000 0.61330  0.54730  0.95180  Biso   1.000  N
  N23      1.0000 0.11330  0.95270  0.45180  Biso   1.000  N
  N24      1.0000 0.38670  0.45270  0.04820  Biso   1.000  N
  C57      1.0000 0.66620  0.26830  0.10980  Biso   1.000  C
  C58      1.0000 0.83380  0.76830  0.39020  Biso   1.000  C
  C59      1.0000 0.33380  0.73170  0.89020  Biso   1.000  C
  C60      1.0000 0.16620  0.23170  0.60980  Biso   1.000  C
  O149     1.0000 0.69750  0.28040  0.18310  Biso   1.000  O
  O150     1.0000 0.80250  0.78040  0.31690  Biso   1.000  O
  O151     1.0000 0.30250  0.71960  0.81690  Biso   1.000  O
  O152     1.0000 0.19750  0.21960  0.68310  Biso   1.000  O
  C61      1.0000 0.68600  0.88340  0.34100  Biso   1.000  C
  C62      1.0000 0.81400  0.38340  0.15900  Biso   1.000  C
  C63      1.0000 0.31400  0.11660  0.65900  Biso   1.000  C
  C64      1.0000 0.18600  0.61660  0.84100  Biso   1.000  C
  N25      1.0000 0.88970  0.29500  0.58320  Biso   1.000  N
  N26      1.0000 0.61030  0.79500  0.91680  Biso   1.000  N
  N27      1.0000 0.11030  0.70500  0.41680  Biso   1.000  N
  N28      1.0000 0.38970  0.20500  0.08320  Biso   1.000  N
  C65      1.0000 0.81620  0.18390  0.08680  Biso   1.000  C
  C66      1.0000 0.68380  0.68390  0.41320  Biso   1.000  C
  C67      1.0000 0.18380  0.81610  0.91320  Biso   1.000  C
  C68      1.0000 0.31620  0.31610  0.58680  Biso   1.000  C
  H25      1.0000 0.76520  0.18490  0.03810  Biso   1.000  H
  H26      1.0000 0.73480  0.68490  0.46190  Biso   1.000  H
  H27      1.0000 0.23480  0.81510  0.96190  Biso   1.000  H
  H28      1.0000 0.26520  0.31510  0.53810  Biso   1.000  H
  H29      1.0000 0.82600  0.21120  0.10990  Biso   1.000  H
  H30      1.0000 0.67400  0.71120  0.39010  Biso   1.000  H
  H31      1.0000 0.17400  0.78880  0.89010  Biso   1.000  H
  H32      1.0000 0.32600  0.28880  0.60990  Biso   1.000  H
  O153     1.0000 0.09330  0.28560  0.74790  Biso   1.000  O
  O154     1.0000 0.40670  0.78560  0.75210  Biso   1.000  O
  O155     1.0000 0.90670  0.71440  0.25210  Biso   1.000  O
  O156     1.0000 0.59330  0.21440  0.24790  Biso   1.000  O
  C69      1.0000 0.81810  0.30620  0.60650  Biso   1.000  C
  C70      1.0000 0.68190  0.80620  0.89350  Biso   1.000  C
  C71      1.0000 0.18190  0.69380  0.39350  Biso   1.000  C
  C72      1.0000 0.31810  0.19380  0.10650  Biso   1.000  C
  H33      1.0000 0.76750  0.31060  0.55850  Biso   1.000  H
  H34      1.0000 0.73250  0.81060  0.94150  Biso   1.000  H
  H35      1.0000 0.23250  0.68940  0.44150  Biso   1.000  H
  H36      1.0000 0.26750  0.18940  0.05850  Biso   1.000  H
  H37      1.0000 0.83170  0.33200  0.63550  Biso   1.000  H
  H38      1.0000 0.66830  0.83200  0.86450  Biso   1.000  H
  H39      1.0000 0.16830  0.66800  0.36450  Biso   1.000  H
  H40      1.0000 0.33170  0.16800  0.13550  Biso   1.000  H
  O157     1.0000 0.99970  0.23860  0.67620  Biso   1.000  O
  O158     1.0000 0.50030  0.73860  0.82380  Biso   1.000  O
  O159     1.0000 0.00030  0.76140  0.32380  Biso   1.000  O
  O160     1.0000 0.49970  0.26140  0.17620  Biso   1.000  O
  O161     1.0000 0.62470  0.18840  0.76590  Biso   1.000  O
  O162     1.0000 0.87530  0.68840  0.73410  Biso   1.000  O
  O163     1.0000 0.37530  0.81160  0.23410  Biso   1.000  O
  O164     1.0000 0.12470  0.31160  0.26590  Biso   1.000  O
  O165     1.0000 0.63760  0.93090  0.72410  Biso   1.000  O
  O166     1.0000 0.86240  0.43090  0.77590  Biso   1.000  O
  O167     1.0000 0.36240  0.06910  0.27590  Biso   1.000  O
  O168     1.0000 0.13760  0.56910  0.22410  Biso   1.000  O
  O169     1.0000 0.61380  0.31180  0.28440  Biso   1.000  O
  O170     1.0000 0.88620  0.81180  0.21560  Biso   1.000  O
  O171     1.0000 0.38620  0.68820  0.71560  Biso   1.000  O
  O172     1.0000 0.11380  0.18820  0.78440  Biso   1.000  O
  O173     1.0000 0.71290  0.15370  0.66760  Biso   1.000  O
  O174     1.0000 0.78710  0.65370  0.83240  Biso   1.000  O
  O175     1.0000 0.28710  0.84630  0.33240  Biso   1.000  O
  O176     1.0000 0.21290  0.34630  0.16760  Biso   1.000  O
  C73      1.0000 0.68280  0.13250  0.36700  Biso   1.000  C
  C74      1.0000 0.81720  0.63250  0.13300  Biso   1.000  C
  C75      1.0000 0.31720  0.86750  0.63300  Biso   1.000  C
  C76      1.0000 0.18280  0.36750  0.86700  Biso   1.000  C
  C77      1.0000 0.02820  0.27640  0.69220  Biso   1.000  C
  C78      1.0000 0.47180  0.77640  0.80780  Biso   1.000  C
  C79      1.0000 0.97180  0.72360  0.30780  Biso   1.000  C
  C80      1.0000 0.52820  0.22360  0.19220  Biso   1.000  C
  N29      1.0000 0.89100  0.17150  0.06720  Biso   1.000  N
  N30      1.0000 0.60900  0.67150  0.43280  Biso   1.000  N
  N31      1.0000 0.10900  0.82850  0.93280  Biso   1.000  N
  N32      1.0000 0.39100  0.32850  0.56720  Biso   1.000  N
  O177     1.0000 0.08760  0.16200  0.23760  Biso   1.000  O
  O178     1.0000 0.41240  0.66200  0.26240  Biso   1.000  O
  O179     1.0000 0.91240  0.83800  0.76240  Biso   1.000  O
  O180     1.0000 0.58760  0.33800  0.73760  Biso   1.000  O
  C81      1.0000 0.87670  0.18440  0.98340  Biso   1.000  C
  C82      1.0000 0.62330  0.68440  0.51660  Biso   1.000  C
  C83      1.0000 0.12330  0.81560  0.01660  Biso   1.000  C
  C84      1.0000 0.37670  0.31560  0.48340  Biso   1.000  C
  H41      1.0000 0.93130  0.18780  0.97820  Biso   1.000  H
  H42      1.0000 0.56870  0.68780  0.52180  Biso   1.000  H
  H43      1.0000 0.06870  0.81220  0.02180  Biso   1.000  H
  H44      1.0000 0.43130  0.31220  0.47820  Biso   1.000  H
  H45      1.0000 0.84660  0.21050  0.97130  Biso   1.000  H
  H46      1.0000 0.65340  0.71050  0.52870  Biso   1.000  H
  H47      1.0000 0.15340  0.78950  0.02870  Biso   1.000  H
  H48      1.0000 0.34660  0.28950  0.47130  Biso   1.000  H
  C85      1.0000 0.65600  0.17510  0.53350  Biso   1.000  C
  C86      1.0000 0.84400  0.67510  0.96650  Biso   1.000  C
  C87      1.0000 0.34400  0.82490  0.46650  Biso   1.000  C
  C88      1.0000 0.15600  0.32490  0.03350  Biso   1.000  C
  H49      1.0000 0.61880  0.19500  0.54380  Biso   1.000  H
  H50      1.0000 0.88120  0.69500  0.95620  Biso   1.000  H
  H51      1.0000 0.38120  0.80500  0.45620  Biso   1.000  H
  H52      1.0000 0.11880  0.30500  0.04380  Biso   1.000  H
  H53      1.0000 0.70770  0.18940  0.53710  Biso   1.000  H
  H54      1.0000 0.79230  0.68940  0.96290  Biso   1.000  H
  H55      1.0000 0.29230  0.81060  0.46290  Biso   1.000  H
  H56      1.0000 0.20770  0.31060  0.03710  Biso   1.000  H
  O181     1.0000 0.61500  0.36280  0.16280  Biso   1.000  O
  O182     1.0000 0.88500  0.86280  0.33720  Biso   1.000  O
  O183     1.0000 0.38500  0.63720  0.83720  Biso   1.000  O
  O184     1.0000 0.11500  0.13720  0.66280  Biso   1.000  O
  C89      1.0000 0.83600  0.05750  0.46580  Biso   1.000  C
  C90      1.0000 0.66400  0.55750  0.03420  Biso   1.000  C
  C91      1.0000 0.16400  0.94250  0.53420  Biso   1.000  C
  C92      1.0000 0.33600  0.44250  0.96580  Biso   1.000  C
  H57      1.0000 0.86230  0.08130  0.45180  Biso   1.000  H
  H58      1.0000 0.63770  0.58130  0.04820  Biso   1.000  H
  H59      1.0000 0.13770  0.91870  0.54820  Biso   1.000  H
  H60      1.0000 0.36230  0.41870  0.95180  Biso   1.000  H
  H61      1.0000 0.77980  0.06580  0.46220  Biso   1.000  H
  H62      1.0000 0.72020  0.56580  0.03780  Biso   1.000  H
  H63      1.0000 0.22020  0.93420  0.53780  Biso   1.000  H
  H64      1.0000 0.27980  0.43420  0.96220  Biso   1.000  H
  O185     1.0000 0.88970  0.99070  0.83100  Biso   1.000  O
  O186     1.0000 0.61030  0.49070  0.66900  Biso   1.000  O
  O187     1.0000 0.11030  0.00930  0.16900  Biso   1.000  O
  O188     1.0000 0.38970  0.50930  0.33100  Biso   1.000  O
  O189     1.0000 0.88050  0.36640  0.36180  Biso   1.000  O
  O190     1.0000 0.61950  0.86640  0.13820  Biso   1.000  O
  O191     1.0000 0.11950  0.63360  0.63820  Biso   1.000  O
  O192     1.0000 0.38050  0.13360  0.86180  Biso   1.000  O
  C93      1.0000 0.67980  0.92040  0.38730  Biso   1.000  C
  C94      1.0000 0.82020  0.42040  0.11270  Biso   1.000  C
  C95      1.0000 0.32020  0.07960  0.61270  Biso   1.000  C
  C96      1.0000 0.17980  0.57960  0.88730  Biso   1.000  C
  H65      1.0000 0.66830  0.94450  0.35340  Biso   1.000  H
  H66      1.0000 0.83170  0.44450  0.14660  Biso   1.000  H
  H67      1.0000 0.33170  0.05550  0.64660  Biso   1.000  H
  H68      1.0000 0.16830  0.55550  0.85340  Biso   1.000  H
  H69      1.0000 0.73380  0.92450  0.43200  Biso   1.000  H
  H70      1.0000 0.76620  0.42450  0.06800  Biso   1.000  H
  H71      1.0000 0.26620  0.07550  0.56800  Biso   1.000  H
  H72      1.0000 0.23380  0.57550  0.93200  Biso   1.000  H
  C97      1.0000 0.02360  0.15250  0.17730  Biso   1.000  C
  C98      1.0000 0.47640  0.65250  0.32270  Biso   1.000  C
  C99      1.0000 0.97640  0.84750  0.82270  Biso   1.000  C
  C100     1.0000 0.52360  0.34750  0.67730  Biso   1.000  C
  C101     1.0000 0.68100  0.29620  0.04990  Biso   1.000  C
  C102     1.0000 0.81900  0.79620  0.45010  Biso   1.000  C
  C103     1.0000 0.31900  0.70380  0.95010  Biso   1.000  C
  C104     1.0000 0.18100  0.20380  0.54990  Biso   1.000  C
  H73      1.0000 0.67680  0.32460  0.06380  Biso   1.000  H
  H74      1.0000 0.82320  0.82460  0.43620  Biso   1.000  H
  H75      1.0000 0.32320  0.67540  0.93620  Biso   1.000  H
  H76      1.0000 0.17680  0.17540  0.56380  Biso   1.000  H
  H77      1.0000 0.73810  0.29170  0.05070  Biso   1.000  H
  H78      1.0000 0.76190  0.79170  0.44930  Biso   1.000  H
  H79      1.0000 0.26190  0.70830  0.94930  Biso   1.000  H
  H80      1.0000 0.23810  0.20830  0.55070  Biso   1.000  H
  O193     1.0000 0.73130  0.89550  0.29740  Biso   1.000  O
  O194     1.0000 0.76870  0.39550  0.20260  Biso   1.000  O
  O195     1.0000 0.26870  0.10450  0.70260  Biso   1.000  O
  O196     1.0000 0.23130  0.60450  0.79740  Biso   1.000  O
  O197     1.0000 0.39550  0.91140  0.26730  Biso   1.000  O
  O198     1.0000 0.10450  0.41140  0.23270  Biso   1.000  O
  O199     1.0000 0.60450  0.08860  0.73270  Biso   1.000  O
  O200     1.0000 0.89550  0.58860  0.76730  Biso   1.000  O
  O201     1.0000 0.86810  0.29700  0.26760  Biso   1.000  O
  O202     1.0000 0.63190  0.79700  0.23240  Biso   1.000  O
  O203     1.0000 0.13190  0.70300  0.73240  Biso   1.000  O
  O204     1.0000 0.36810  0.20300  0.76760  Biso   1.000  O
  C105     1.0000 0.63810  0.05430  0.01780  Biso   1.000  C
  C106     1.0000 0.86190  0.55430  0.48220  Biso   1.000  C
  C107     1.0000 0.36190  0.94570  0.98220  Biso   1.000  C
  C108     1.0000 0.13810  0.44570  0.51780  Biso   1.000  C
  H81      1.0000 0.67290  0.07880  0.02410  Biso   1.000  H
  H82      1.0000 0.82710  0.57880  0.47590  Biso   1.000  H
  H83      1.0000 0.32710  0.92120  0.97590  Biso   1.000  H
  H84      1.0000 0.17290  0.42120  0.52410  Biso   1.000  H
  H85      1.0000 0.58620  0.06190  0.02540  Biso   1.000  H
  H86      1.0000 0.91380  0.56190  0.47460  Biso   1.000  H
  H87      1.0000 0.41380  0.93810  0.97460  Biso   1.000  H
  H88      1.0000 0.08620  0.43810  0.52540  Biso   1.000  H
  C109     1.0000 0.97360  0.18710  0.12320  Biso   1.000  C
  C110     1.0000 0.52640  0.68710  0.37680  Biso   1.000  C
  C111     1.0000 0.02640  0.81290  0.87680  Biso   1.000  C
  C112     1.0000 0.47360  0.31290  0.62320  Biso   1.000  C
  H89      1.0000 0.96420  0.20900  0.15520  Biso   1.000  H
  H90      1.0000 0.53580  0.70900  0.34480  Biso   1.000  H
  H91      1.0000 0.03580  0.79100  0.84480  Biso   1.000  H
  H92      1.0000 0.46420  0.29100  0.65520  Biso   1.000  H
  H93      1.0000 0.00610  0.19820  0.09390  Biso   1.000  H
  H94      1.0000 0.49390  0.69820  0.40610  Biso   1.000  H
  H95      1.0000 0.99390  0.80180  0.90610  Biso   1.000  H
  H96      1.0000 0.50610  0.30180  0.59390  Biso   1.000  H
  C113     1.0000 0.81050  0.89390  0.11780  Biso   1.000  C
  C114     1.0000 0.68950  0.39390  0.38220  Biso   1.000  C
  C115     1.0000 0.18950  0.10610  0.88220  Biso   1.000  C
  C116     1.0000 0.31050  0.60610  0.61780  Biso   1.000  C
  C117     1.0000 0.97110  0.93420  0.04820  Biso   1.000  C
  C118     1.0000 0.52890  0.43420  0.45180  Biso   1.000  C
  C119     1.0000 0.02890  0.06580  0.95180  Biso   1.000  C
  C120     1.0000 0.47110  0.56580  0.54820  Biso   1.000  C
  H97      1.0000 0.97410  0.96310  0.06220  Biso   1.000  H
  H98      1.0000 0.52590  0.46310  0.43780  Biso   1.000  H
  H99      1.0000 0.02590  0.03690  0.93780  Biso   1.000  H
  H100     1.0000 0.47410  0.53690  0.56220  Biso   1.000  H
  H101     1.0000 0.98490  0.93130  0.00130  Biso   1.000  H
  H102     1.0000 0.51510  0.43130  0.49870  Biso   1.000  H
  H103     1.0000 0.01510  0.06870  0.99870  Biso   1.000  H
  H104     1.0000 0.48490  0.56870  0.50130  Biso   1.000  H
  C121     1.0000 0.54140  0.18250  0.39560  Biso   1.000  C
  C122     1.0000 0.95860  0.68250  0.10440  Biso   1.000  C
  C123     1.0000 0.45860  0.81750  0.60440  Biso   1.000  C
  C124     1.0000 0.04140  0.31750  0.89560  Biso   1.000  C
  H105     1.0000 0.55170  0.18680  0.34710  Biso   1.000  H
  H106     1.0000 0.94830  0.68680  0.15290  Biso   1.000  H
  H107     1.0000 0.44830  0.81320  0.65290  Biso   1.000  H
  H108     1.0000 0.05170  0.31320  0.84710  Biso   1.000  H
  H109     1.0000 0.53400  0.20910  0.41620  Biso   1.000  H
  H110     1.0000 0.96600  0.70910  0.08380  Biso   1.000  H
  H111     1.0000 0.46600  0.79090  0.58380  Biso   1.000  H
  H112     1.0000 0.03400  0.29090  0.91620  Biso   1.000  H
  C125     1.0000 0.46320  0.89970  0.32190  Biso   1.000  C
  C126     1.0000 0.03680  0.39970  0.17810  Biso   1.000  C
  C127     1.0000 0.53680  0.10030  0.67810  Biso   1.000  C
  C128     1.0000 0.96320  0.60030  0.82190  Biso   1.000  C
  O205     1.0000 0.46950  0.99200  0.87750  Biso   1.000  O
  O206     1.0000 0.03050  0.49200  0.62250  Biso   1.000  O
  O207     1.0000 0.53050  0.00800  0.12250  Biso   1.000  O
  O208     1.0000 0.96950  0.50800  0.37750  Biso   1.000  O
  C129     1.0000 0.03530  0.90920  0.11850  Biso   1.000  C
  C130     1.0000 0.46470  0.40920  0.38150  Biso   1.000  C
  C131     1.0000 0.96470  0.09080  0.88150  Biso   1.000  C
  C132     1.0000 0.53530  0.59080  0.61850  Biso   1.000  C
  C133     1.0000 0.87120  0.30700  0.50020  Biso   1.000  C
  C134     1.0000 0.62880  0.80700  0.99980  Biso   1.000  C
  C135     1.0000 0.12880  0.69300  0.49980  Biso   1.000  C
  C136     1.0000 0.37120  0.19300  0.00020  Biso   1.000  C
  H113     1.0000 0.92470  0.31080  0.49290  Biso   1.000  H
  H114     1.0000 0.57530  0.81080  0.00710  Biso   1.000  H
  H115     1.0000 0.07530  0.68920  0.50710  Biso   1.000  H
  H116     1.0000 0.42470  0.18920  0.99290  Biso   1.000  H
  H117     1.0000 0.84090  0.33300  0.48920  Biso   1.000  H
  H118     1.0000 0.65910  0.83300  0.01080  Biso   1.000  H
  H119     1.0000 0.15910  0.66700  0.51080  Biso   1.000  H
  H120     1.0000 0.34090  0.16700  0.98920  Biso   1.000  H
  C137     1.0000 0.02840  0.03220  0.64800  Biso   1.000  C
  C138     1.0000 0.47160  0.53220  0.85200  Biso   1.000  C
  C139     1.0000 0.97160  0.96780  0.35200  Biso   1.000  C
  C140     1.0000 0.52840  0.46780  0.14800  Biso   1.000  C
  C141     1.0000 0.64040  0.92820  0.50050  Biso   1.000  C
  C142     1.0000 0.85960  0.42820  0.99950  Biso   1.000  C
  C143     1.0000 0.35960  0.07180  0.49950  Biso   1.000  C
  C144     1.0000 0.14040  0.57180  0.00050  Biso   1.000  C
  H121     1.0000 0.59180  0.93720  0.51210  Biso   1.000  H
  H122     1.0000 0.90820  0.43720  0.98790  Biso   1.000  H
  H123     1.0000 0.40820  0.06280  0.48790  Biso   1.000  H
  H124     1.0000 0.09180  0.56280  0.01210  Biso   1.000  H
  H125     1.0000 0.67830  0.95160  0.50770  Biso   1.000  H
  H126     1.0000 0.82170  0.45160  0.99230  Biso   1.000  H
  H127     1.0000 0.32170  0.04840  0.49230  Biso   1.000  H
  H128     1.0000 0.17830  0.54840  0.00770  Biso   1.000  H
  C145     1.0000 0.97200  0.06060  0.56100  Biso   1.000  C
  C146     1.0000 0.52800  0.56060  0.93900  Biso   1.000  C
  C147     1.0000 0.02800  0.93940  0.43900  Biso   1.000  C
  C148     1.0000 0.47200  0.43940  0.06100  Biso   1.000  C
  H129     1.0000 0.97860  0.09000  0.57090  Biso   1.000  H
  H130     1.0000 0.52140  0.59000  0.92910  Biso   1.000  H
  H131     1.0000 0.02140  0.91000  0.42910  Biso   1.000  H
  H132     1.0000 0.47860  0.41000  0.07090  Biso   1.000  H
  H133     1.0000 0.98800  0.05330  0.51740  Biso   1.000  H
  H134     1.0000 0.51200  0.55330  0.98260  Biso   1.000  H
  H135     1.0000 0.01200  0.94670  0.48260  Biso   1.000  H
  H136     1.0000 0.48800  0.44670  0.01740  Biso   1.000  H
  C149     1.0000 0.84730  0.06110  0.59660  Biso   1.000  C
  C150     1.0000 0.65270  0.56110  0.90340  Biso   1.000  C
  C151     1.0000 0.15270  0.93890  0.40340  Biso   1.000  C
  C152     1.0000 0.34730  0.43890  0.09660  Biso   1.000  C
  H137     1.0000 0.80250  0.08010  0.56620  Biso   1.000  H
  H138     1.0000 0.69750  0.58010  0.93380  Biso   1.000  H
  H139     1.0000 0.19750  0.91990  0.43380  Biso   1.000  H
  H140     1.0000 0.30250  0.41990  0.06620  Biso   1.000  H
  H141     1.0000 0.88900  0.07660  0.63990  Biso   1.000  H
  H142     1.0000 0.61100  0.57660  0.86010  Biso   1.000  H
  H143     1.0000 0.11100  0.92340  0.36010  Biso   1.000  H
  H144     1.0000 0.38900  0.42340  0.13990  Biso   1.000  H
  C153     1.0000 0.64730  0.29690  0.90520  Biso   1.000  C
  C154     1.0000 0.85270  0.79690  0.59480  Biso   1.000  C
  C155     1.0000 0.35270  0.70310  0.09480  Biso   1.000  C
  C156     1.0000 0.14730  0.20310  0.40520  Biso   1.000  C
  H145     1.0000 0.68960  0.31870  0.92190  Biso   1.000  H
  H146     1.0000 0.81040  0.81870  0.57810  Biso   1.000  H
  H147     1.0000 0.31040  0.68130  0.07810  Biso   1.000  H
  H148     1.0000 0.18960  0.18130  0.42190  Biso   1.000  H
  H149     1.0000 0.59950  0.30630  0.85840  Biso   1.000  H
  H150     1.0000 0.90050  0.80630  0.64160  Biso   1.000  H
  H151     1.0000 0.40050  0.69370  0.14160  Biso   1.000  H
  H152     1.0000 0.09950  0.19370  0.35840  Biso   1.000  H
  O209     1.0000 0.10060  0.92570  0.16010  Biso   1.000  O
  O210     1.0000 0.39940  0.42570  0.33990  Biso   1.000  O
  O211     1.0000 0.89940  0.07430  0.83990  Biso   1.000  O
  O212     1.0000 0.60060  0.57430  0.66010  Biso   1.000  O
  O213     1.0000 0.09600  0.04580  0.69900  Biso   1.000  O
  O214     1.0000 0.40400  0.54580  0.80100  Biso   1.000  O
  O215     1.0000 0.90400  0.95420  0.30100  Biso   1.000  O
  O216     1.0000 0.59600  0.45420  0.19900  Biso   1.000  O
  C157     1.0000 0.67300  0.16550  0.41180  Biso   1.000  C
  C158     1.0000 0.82700  0.66550  0.08820  Biso   1.000  C
  C159     1.0000 0.32700  0.83450  0.58820  Biso   1.000  C
  C160     1.0000 0.17300  0.33450  0.91180  Biso   1.000  C
  H153     1.0000 0.65320  0.18890  0.37620  Biso   1.000  H
  H154     1.0000 0.84680  0.68890  0.12380  Biso   1.000  H
  H155     1.0000 0.34680  0.81110  0.62380  Biso   1.000  H
  H156     1.0000 0.15320  0.31110  0.87620  Biso   1.000  H
  H157     1.0000 0.72960  0.17250  0.45070  Biso   1.000  H
  H158     1.0000 0.77040  0.67250  0.04930  Biso   1.000  H
  H159     1.0000 0.27040  0.82750  0.54930  Biso   1.000  H
  H160     1.0000 0.22960  0.32750  0.95070  Biso   1.000  H
  C161     1.0000 0.45840  0.02940  0.84840  Biso   1.000  C
  C162     1.0000 0.04160  0.52940  0.65160  Biso   1.000  C
  C163     1.0000 0.54160  0.97060  0.15160  Biso   1.000  C
  C164     1.0000 0.95840  0.47060  0.34840  Biso   1.000  C
  O217     1.0000 0.48060  0.86390  0.34260  Biso   1.000  O
  O218     1.0000 0.01940  0.36390  0.15740  Biso   1.000  O
  O219     1.0000 0.51940  0.13610  0.65740  Biso   1.000  O
  O220     1.0000 0.98060  0.63610  0.84260  Biso   1.000  O
  C165     1.0000 0.53440  0.05450  0.87600  Biso   1.000  C
  C166     1.0000 0.96560  0.55450  0.62400  Biso   1.000  C
  C167     1.0000 0.46560  0.94550  0.12400  Biso   1.000  C
  C168     1.0000 0.03440  0.44550  0.37600  Biso   1.000  C
  H161     1.0000 0.52200  0.07900  0.90000  Biso   1.000  H
  H162     1.0000 0.97800  0.57900  0.60000  Biso   1.000  H
  H163     1.0000 0.47800  0.92100  0.10000  Biso   1.000  H
  H164     1.0000 0.02200  0.42100  0.40000  Biso   1.000  H
  H165     1.0000 0.54540  0.06320  0.82970  Biso   1.000  H
  H166     1.0000 0.95460  0.56320  0.67030  Biso   1.000  H
  H167     1.0000 0.45460  0.93680  0.17030  Biso   1.000  H
  H168     1.0000 0.04540  0.43680  0.32970  Biso   1.000  H
  C169     1.0000 0.82290  0.93080  0.94860  Biso   1.000  C
  C170     1.0000 0.67710  0.43080  0.55140  Biso   1.000  C
  C171     1.0000 0.17710  0.06920  0.05140  Biso   1.000  C
  C172     1.0000 0.32290  0.56920  0.44860  Biso   1.000  C
  H169     1.0000 0.83910  0.95790  0.93680  Biso   1.000  H
  H170     1.0000 0.66090  0.45790  0.56320  Biso   1.000  H
  H171     1.0000 0.16090  0.04210  0.06320  Biso   1.000  H
  H172     1.0000 0.33910  0.54210  0.43680  Biso   1.000  H
  H173     1.0000 0.76470  0.93240  0.94640  Biso   1.000  H
  H174     1.0000 0.73530  0.43240  0.55360  Biso   1.000  H
  H175     1.0000 0.23530  0.06760  0.05360  Biso   1.000  H
  H176     1.0000 0.26470  0.56760  0.44640  Biso   1.000  H
  C173     1.0000 0.85140  0.92900  0.09480  Biso   1.000  C
  C174     1.0000 0.64860  0.42900  0.40520  Biso   1.000  C
  C175     1.0000 0.14860  0.07100  0.90520  Biso   1.000  C
  C176     1.0000 0.35140  0.57100  0.59480  Biso   1.000  C
  H177     1.0000 0.89940  0.93850  0.14130  Biso   1.000  H
  H178     1.0000 0.60060  0.43850  0.35870  Biso   1.000  H
  H179     1.0000 0.10060  0.06150  0.85870  Biso   1.000  H
  H180     1.0000 0.39940  0.56150  0.64130  Biso   1.000  H
  H181     1.0000 0.81060  0.95130  0.07630  Biso   1.000  H
  H182     1.0000 0.68940  0.45130  0.42370  Biso   1.000  H
  H183     1.0000 0.18940  0.04870  0.92370  Biso   1.000  H
  H184     1.0000 0.31060  0.54870  0.57630  Biso   1.000  H
  O221     1.0000 0.39250  0.04090  0.80450  Biso   1.000  O
  O222     1.0000 0.10750  0.54090  0.69550  Biso   1.000  O
  O223     1.0000 0.60750  0.95910  0.19550  Biso   1.000  O
  O224     1.0000 0.89250  0.45910  0.30450  Biso   1.000  O
  O225     1.0000 0.63520  0.97420  0.84810  Biso   1.000  O
  O226     1.0000 0.86480  0.47420  0.65190  Biso   1.000  O
  O227     1.0000 0.36480  0.02580  0.15190  Biso   1.000  O
  O228     1.0000 0.13520  0.52580  0.34810  Biso   1.000  O
  O229     1.0000 0.39090  0.17340  0.34080  Biso   1.000  O
  O230     1.0000 0.10910  0.67340  0.15920  Biso   1.000  O
  O231     1.0000 0.60910  0.82660  0.65920  Biso   1.000  O
  O232     1.0000 0.89090  0.32660  0.84080  Biso   1.000  O
  O233     1.0000 0.62860  0.05950  0.24090  Biso   1.000  O
  O234     1.0000 0.87140  0.55950  0.25910  Biso   1.000  O
  O235     1.0000 0.37140  0.94050  0.75910  Biso   1.000  O
  O236     1.0000 0.12860  0.44050  0.74090  Biso   1.000  O
  C177     1.0000 0.68690  0.25850  0.88380  Biso   1.000  C
  C178     1.0000 0.81310  0.75850  0.61620  Biso   1.000  C
  C179     1.0000 0.31310  0.74150  0.11620  Biso   1.000  C
  C180     1.0000 0.18690  0.24150  0.38380  Biso   1.000  C
  C181     1.0000 0.45770  0.15520  0.37700  Biso   1.000  C
  C182     1.0000 0.04230  0.65520  0.12300  Biso   1.000  C
  C183     1.0000 0.54230  0.84480  0.62300  Biso   1.000  C
  C184     1.0000 0.95770  0.34480  0.87700  Biso   1.000  C
  C185     1.0000 0.68750  0.03890  0.90900  Biso   1.000  C
  C186     1.0000 0.81250  0.53890  0.59100  Biso   1.000  C
  C187     1.0000 0.31250  0.96110  0.09100  Biso   1.000  C
  C188     1.0000 0.18750  0.46110  0.40900  Biso   1.000  C
  H185     1.0000 0.74110  0.03610  0.95460  Biso   1.000  H
  H186     1.0000 0.75890  0.53610  0.54540  Biso   1.000  H
  H187     1.0000 0.25890  0.96390  0.04540  Biso   1.000  H
  H188     1.0000 0.24110  0.46390  0.45460  Biso   1.000  H
  H189     1.0000 0.68700  0.06550  0.88480  Biso   1.000  H
  H190     1.0000 0.81300  0.56550  0.61520  Biso   1.000  H
  H191     1.0000 0.31300  0.93450  0.11520  Biso   1.000  H
  H192     1.0000 0.18700  0.43450  0.38480  Biso   1.000  H
  O237     1.0000 0.72420  0.00650  0.80690  Biso   1.000  O
  O238     1.0000 0.77580  0.50650  0.69310  Biso   1.000  O
  O239     1.0000 0.27580  0.99350  0.19310  Biso   1.000  O
  O240     1.0000 0.22420  0.49350  0.30690  Biso   1.000  O
  C189     1.0000 0.68010  0.00450  0.84770  Biso   1.000  C
  C190     1.0000 0.81990  0.50450  0.65230  Biso   1.000  C
  C191     1.0000 0.31990  0.99550  0.15230  Biso   1.000  C
  C192     1.0000 0.18010  0.49550  0.34770  Biso   1.000  C
  O241     1.0000 0.78380  0.90080  0.17360  Biso   1.000  O
  O242     1.0000 0.71620  0.40080  0.32640  Biso   1.000  O
  O243     1.0000 0.21620  0.09920  0.82640  Biso   1.000  O
  O244     1.0000 0.28380  0.59920  0.67360  Biso   1.000  O
  O245     1.0000 0.72360  0.26240  0.83690  Biso   1.000  O
  O246     1.0000 0.77640  0.76240  0.66310  Biso   1.000  O
  O247     1.0000 0.27640  0.73760  0.16310  Biso   1.000  O
  O248     1.0000 0.22360  0.23760  0.33690  Biso   1.000  O
  O249     1.0000 0.78260  0.28210  0.37050  Biso   1.000  O
  O250     1.0000 0.71740  0.78210  0.12950  Biso   1.000  O
  O251     1.0000 0.21740  0.71790  0.62950  Biso   1.000  O
  O252     1.0000 0.28260  0.21790  0.87050  Biso   1.000  O
  O253     1.0000 0.72230  0.13760  0.32150  Biso   1.000  O
  O254     1.0000 0.77770  0.63760  0.17850  Biso   1.000  O
  O255     1.0000 0.27770  0.86240  0.67850  Biso   1.000  O
  O256     1.0000 0.22230  0.36240  0.82150  Biso   1.000  O
