data_image0
_cell_length_a       56.02
_cell_length_b       10.073
_cell_length_c       20.97
_cell_angle_alpha    90
_cell_angle_beta     106.13
_cell_angle_gamma    90

_symmetry_space_group_name_H-M    "P 1"
_symmetry_int_tables_number       1

loop_
  _symmetry_equiv_pos_as_xyz
  'x, y, z'

loop_
  _atom_site_label
  _atom_site_occupancy
  _atom_site_fract_x
  _atom_site_fract_y
  _atom_site_fract_z
  _atom_site_thermal_displace_type
  _atom_site_B_iso_or_equiv
  _atom_site_type_symbol
  La1      1.0000 0.24151  0.67143  0.35619  Biso   1.000  La
  La2      1.0000 0.75848  0.67143  0.14381  Biso   1.000  La
  La3      1.0000 0.74152  0.17143  0.35619  Biso   1.000  La
  La4      1.0000 0.25848  0.17143  0.14381  Biso   1.000  La
  La5      1.0000 0.75848  0.32857  0.64380  Biso   1.000  La
  La6      1.0000 0.24151  0.32857  0.85620  Biso   1.000  La
  La7      1.0000 0.25848  0.82857  0.64380  Biso   1.000  La
  La8      1.0000 0.74152  0.82857  0.85620  Biso   1.000  La
  La9      1.0000 0.27219  0.04792  0.35260  Biso   1.000  La
  La10     1.0000 0.72781  0.04792  0.14740  Biso   1.000  La
  La11     1.0000 0.77219  0.54792  0.35260  Biso   1.000  La
  La12     1.0000 0.22781  0.54792  0.14740  Biso   1.000  La
  La13     1.0000 0.72781  0.95208  0.64740  Biso   1.000  La
  La14     1.0000 0.27219  0.95208  0.85260  Biso   1.000  La
  La15     1.0000 0.22781  0.45208  0.64740  Biso   1.000  La
  La16     1.0000 0.77219  0.45208  0.85260  Biso   1.000  La
  Cu1      1.0000 0.01947  0.94317  0.38035  Biso   1.000  Cu
  Cu2      1.0000 0.98053  0.94317  0.11965  Biso   1.000  Cu
  Cu3      1.0000 0.51947  0.44317  0.38035  Biso   1.000  Cu
  Cu4      1.0000 0.48053  0.44317  0.11965  Biso   1.000  Cu
  Cu5      1.0000 0.98053  0.05683  0.61965  Biso   1.000  Cu
  Cu6      1.0000 0.01947  0.05683  0.88035  Biso   1.000  Cu
  Cu7      1.0000 0.48053  0.55683  0.61965  Biso   1.000  Cu
  Cu8      1.0000 0.51947  0.55683  0.88035  Biso   1.000  Cu
  Cu9      1.0000 0.98805  0.06144  0.44083  Biso   1.000  Cu
  Cu10     1.0000 0.01195  0.06144  0.05917  Biso   1.000  Cu
  Cu11     1.0000 0.48805  0.56144  0.44083  Biso   1.000  Cu
  Cu12     1.0000 0.51195  0.56144  0.05917  Biso   1.000  Cu
  Cu13     1.0000 0.01195  0.93856  0.55917  Biso   1.000  Cu
  Cu14     1.0000 0.98805  0.93856  0.94083  Biso   1.000  Cu
  Cu15     1.0000 0.51195  0.43856  0.55917  Biso   1.000  Cu
  Cu16     1.0000 0.48805  0.43856  0.94083  Biso   1.000  Cu
  Cu17     1.0000 0.01981  0.04320  0.23800  Biso   1.000  Cu
  Cu18     1.0000 0.98019  0.04320  0.26200  Biso   1.000  Cu
  Cu19     1.0000 0.51981  0.54320  0.23800  Biso   1.000  Cu
  Cu20     1.0000 0.48019  0.54320  0.26200  Biso   1.000  Cu
  Cu21     1.0000 0.98019  0.95680  0.76200  Biso   1.000  Cu
  Cu22     1.0000 0.01981  0.95680  0.73800  Biso   1.000  Cu
  Cu23     1.0000 0.48019  0.45680  0.76200  Biso   1.000  Cu
  Cu24     1.0000 0.51981  0.45680  0.73800  Biso   1.000  Cu
  Cu25     1.0000 0.00000  0.47360  0.25000  Biso   1.000  Cu
  Cu26     1.0000 0.50000  0.97360  0.25000  Biso   1.000  Cu
  Cu27     1.0000 0.00000  0.52640  0.75000  Biso   1.000  Cu
  Cu28     1.0000 0.50000  0.02640  0.75000  Biso   1.000  Cu
  I1       1.0000 0.99500  0.80094  0.44481  Biso   1.000  I
  I2       1.0000 0.00500  0.80094  0.05519  Biso   1.000  I
  I3       1.0000 0.49500  0.30094  0.44481  Biso   1.000  I
  I4       1.0000 0.50500  0.30094  0.05519  Biso   1.000  I
  I5       1.0000 0.00500  0.19906  0.55519  Biso   1.000  I
  I6       1.0000 0.99500  0.19906  0.94481  Biso   1.000  I
  I7       1.0000 0.50500  0.69906  0.55519  Biso   1.000  I
  I8       1.0000 0.49500  0.69906  0.94481  Biso   1.000  I
  I9       1.0000 0.00779  0.19807  0.35492  Biso   1.000  I
  I10      1.0000 0.99221  0.19807  0.14508  Biso   1.000  I
  I11      1.0000 0.50779  0.69807  0.35492  Biso   1.000  I
  I12      1.0000 0.49221  0.69807  0.14508  Biso   1.000  I
  I13      1.0000 0.99221  0.80193  0.64508  Biso   1.000  I
  I14      1.0000 0.00779  0.80193  0.85492  Biso   1.000  I
  I15      1.0000 0.49221  0.30193  0.64508  Biso   1.000  I
  I16      1.0000 0.50779  0.30193  0.85492  Biso   1.000  I
  I17      1.0000 0.00000  0.81303  0.25000  Biso   1.000  I
  I18      1.0000 0.50000  0.31303  0.25000  Biso   1.000  I
  I19      1.0000 0.00000  0.18697  0.75000  Biso   1.000  I
  I20      1.0000 0.50000  0.68697  0.75000  Biso   1.000  I
  C1       1.0000 0.21268  0.77210  0.48070  Biso   1.000  C
  C2       1.0000 0.78732  0.77210  0.01930  Biso   1.000  C
  C3       1.0000 0.71268  0.27210  0.48070  Biso   1.000  C
  C4       1.0000 0.28732  0.27210  0.01930  Biso   1.000  C
  C5       1.0000 0.78732  0.22790  0.51930  Biso   1.000  C
  C6       1.0000 0.21268  0.22790  0.98070  Biso   1.000  C
  C7       1.0000 0.28732  0.72790  0.51930  Biso   1.000  C
  C8       1.0000 0.71268  0.72790  0.98070  Biso   1.000  C
  C9       1.0000 0.18533  0.79940  0.46950  Biso   1.000  C
  C10      1.0000 0.81467  0.79940  0.03050  Biso   1.000  C
  C11      1.0000 0.68533  0.29940  0.46950  Biso   1.000  C
  C12      1.0000 0.31467  0.29940  0.03050  Biso   1.000  C
  C13      1.0000 0.81467  0.20060  0.53050  Biso   1.000  C
  C14      1.0000 0.18533  0.20060  0.96950  Biso   1.000  C
  C15      1.0000 0.31467  0.70060  0.53050  Biso   1.000  C
  C16      1.0000 0.68533  0.70060  0.96950  Biso   1.000  C
  C17      1.0000 0.17741  0.91880  0.48700  Biso   1.000  C
  C18      1.0000 0.82259  0.91880  0.01300  Biso   1.000  C
  C19      1.0000 0.67741  0.41880  0.48700  Biso   1.000  C
  C20      1.0000 0.32259  0.41880  0.01300  Biso   1.000  C
  C21      1.0000 0.82259  0.08120  0.51300  Biso   1.000  C
  C22      1.0000 0.17741  0.08120  0.98700  Biso   1.000  C
  C23      1.0000 0.32259  0.58120  0.51300  Biso   1.000  C
  C24      1.0000 0.67741  0.58120  0.98700  Biso   1.000  C
  H1       1.0000 0.18900  0.98320  0.50690  Biso   1.000  H
  H2       1.0000 0.81100  0.98320  0.99310  Biso   1.000  H
  H3       1.0000 0.68900  0.48320  0.50690  Biso   1.000  H
  H4       1.0000 0.31100  0.48320  0.99310  Biso   1.000  H
  H5       1.0000 0.81100  0.01680  0.49310  Biso   1.000  H
  H6       1.0000 0.18900  0.01680  0.00690  Biso   1.000  H
  H7       1.0000 0.31100  0.51680  0.49310  Biso   1.000  H
  H8       1.0000 0.68900  0.51680  0.00690  Biso   1.000  H
  C25      1.0000 0.16843  0.69860  0.44430  Biso   1.000  C
  C26      1.0000 0.83157  0.69860  0.05570  Biso   1.000  C
  C27      1.0000 0.66843  0.19860  0.44430  Biso   1.000  C
  C28      1.0000 0.33157  0.19860  0.05570  Biso   1.000  C
  C29      1.0000 0.83157  0.30140  0.55570  Biso   1.000  C
  C30      1.0000 0.16843  0.30140  0.94430  Biso   1.000  C
  C31      1.0000 0.33157  0.80140  0.55570  Biso   1.000  C
  C32      1.0000 0.66843  0.80140  0.94430  Biso   1.000  C
  H9       1.0000 0.17390  0.61660  0.43360  Biso   1.000  H
  H10      1.0000 0.82610  0.61660  0.06640  Biso   1.000  H
  H11      1.0000 0.67390  0.11660  0.43360  Biso   1.000  H
  H12      1.0000 0.32610  0.11660  0.06640  Biso   1.000  H
  H13      1.0000 0.82610  0.38340  0.56640  Biso   1.000  H
  H14      1.0000 0.17390  0.38340  0.93360  Biso   1.000  H
  H15      1.0000 0.32610  0.88340  0.56640  Biso   1.000  H
  H16      1.0000 0.67390  0.88340  0.93360  Biso   1.000  H
  C33      1.0000 0.15190  0.94490  0.47520  Biso   1.000  C
  C34      1.0000 0.84810  0.94490  0.02480  Biso   1.000  C
  C35      1.0000 0.65190  0.44490  0.47520  Biso   1.000  C
  C36      1.0000 0.34810  0.44490  0.02480  Biso   1.000  C
  C37      1.0000 0.84810  0.05510  0.52480  Biso   1.000  C
  C38      1.0000 0.15190  0.05510  0.97520  Biso   1.000  C
  C39      1.0000 0.34810  0.55510  0.52480  Biso   1.000  C
  C40      1.0000 0.65190  0.55510  0.97520  Biso   1.000  C
  H17      1.0000 0.14660  0.02870  0.48410  Biso   1.000  H
  H18      1.0000 0.85340  0.02870  0.01590  Biso   1.000  H
  H19      1.0000 0.64660  0.52870  0.48410  Biso   1.000  H
  H20      1.0000 0.35340  0.52870  0.01590  Biso   1.000  H
  H21      1.0000 0.85340  0.97130  0.51590  Biso   1.000  H
  H22      1.0000 0.14660  0.97130  0.98410  Biso   1.000  H
  H23      1.0000 0.35340  0.47130  0.51590  Biso   1.000  H
  H24      1.0000 0.64660  0.47130  0.98410  Biso   1.000  H
  C41      1.0000 0.14303  0.72220  0.43520  Biso   1.000  C
  C42      1.0000 0.85697  0.72220  0.06480  Biso   1.000  C
  C43      1.0000 0.64303  0.22220  0.43520  Biso   1.000  C
  C44      1.0000 0.35697  0.22220  0.06480  Biso   1.000  C
  C45      1.0000 0.85697  0.27780  0.56480  Biso   1.000  C
  C46      1.0000 0.14303  0.27780  0.93520  Biso   1.000  C
  C47      1.0000 0.35697  0.77780  0.56480  Biso   1.000  C
  C48      1.0000 0.64303  0.77780  0.93520  Biso   1.000  C
  H25      1.0000 0.13160  0.65490  0.41890  Biso   1.000  H
  H26      1.0000 0.86840  0.65490  0.08110  Biso   1.000  H
  H27      1.0000 0.63160  0.15490  0.41890  Biso   1.000  H
  H28      1.0000 0.36840  0.15490  0.08110  Biso   1.000  H
  H29      1.0000 0.86840  0.34510  0.58110  Biso   1.000  H
  H30      1.0000 0.13160  0.34510  0.91890  Biso   1.000  H
  H31      1.0000 0.36840  0.84510  0.58110  Biso   1.000  H
  H32      1.0000 0.63160  0.84510  0.91890  Biso   1.000  H
  C49      1.0000 0.13469  0.84670  0.45050  Biso   1.000  C
  C50      1.0000 0.86531  0.84670  0.04950  Biso   1.000  C
  C51      1.0000 0.63469  0.34670  0.45050  Biso   1.000  C
  C52      1.0000 0.36531  0.34670  0.04950  Biso   1.000  C
  C53      1.0000 0.86531  0.15330  0.54950  Biso   1.000  C
  C54      1.0000 0.13469  0.15330  0.95050  Biso   1.000  C
  C55      1.0000 0.36531  0.65330  0.54950  Biso   1.000  C
  C56      1.0000 0.63469  0.65330  0.95050  Biso   1.000  C
  C57      1.0000 0.10751  0.87030  0.43790  Biso   1.000  C
  C58      1.0000 0.89249  0.87030  0.06210  Biso   1.000  C
  C59      1.0000 0.60751  0.37030  0.43790  Biso   1.000  C
  C60      1.0000 0.39249  0.37030  0.06210  Biso   1.000  C
  C61      1.0000 0.89249  0.12970  0.56210  Biso   1.000  C
  C62      1.0000 0.10751  0.12970  0.93790  Biso   1.000  C
  C63      1.0000 0.39249  0.62970  0.56210  Biso   1.000  C
  C64      1.0000 0.60751  0.62970  0.93790  Biso   1.000  C
  C65      1.0000 0.09772  0.99360  0.42630  Biso   1.000  C
  C66      1.0000 0.90228  0.99360  0.07370  Biso   1.000  C
  C67      1.0000 0.59772  0.49360  0.42630  Biso   1.000  C
  C68      1.0000 0.40228  0.49360  0.07370  Biso   1.000  C
  C69      1.0000 0.90228  0.00640  0.57370  Biso   1.000  C
  C70      1.0000 0.09772  0.00640  0.92630  Biso   1.000  C
  C71      1.0000 0.40228  0.50640  0.57370  Biso   1.000  C
  C72      1.0000 0.59772  0.50640  0.92630  Biso   1.000  C
  H33      1.0000 0.10800  0.06680  0.42840  Biso   1.000  H
  H34      1.0000 0.89200  0.06680  0.07160  Biso   1.000  H
  H35      1.0000 0.60800  0.56680  0.42840  Biso   1.000  H
  H36      1.0000 0.39200  0.56680  0.07160  Biso   1.000  H
  H37      1.0000 0.89200  0.93320  0.57160  Biso   1.000  H
  H38      1.0000 0.10800  0.93320  0.92840  Biso   1.000  H
  H39      1.0000 0.39200  0.43320  0.57160  Biso   1.000  H
  H40      1.0000 0.60800  0.43320  0.92840  Biso   1.000  H
  C73      1.0000 0.09096  0.76780  0.43710  Biso   1.000  C
  C74      1.0000 0.90904  0.76780  0.06290  Biso   1.000  C
  C75      1.0000 0.59096  0.26780  0.43710  Biso   1.000  C
  C76      1.0000 0.40904  0.26780  0.06290  Biso   1.000  C
  C77      1.0000 0.90904  0.23220  0.56290  Biso   1.000  C
  C78      1.0000 0.09096  0.23220  0.93710  Biso   1.000  C
  C79      1.0000 0.40904  0.73220  0.56290  Biso   1.000  C
  C80      1.0000 0.59096  0.73220  0.93710  Biso   1.000  C
  H41      1.0000 0.09700  0.68220  0.44740  Biso   1.000  H
  H42      1.0000 0.90300  0.68220  0.05260  Biso   1.000  H
  H43      1.0000 0.59700  0.18220  0.44740  Biso   1.000  H
  H44      1.0000 0.40300  0.18220  0.05260  Biso   1.000  H
  H45      1.0000 0.90300  0.31780  0.55260  Biso   1.000  H
  H46      1.0000 0.09700  0.31780  0.94740  Biso   1.000  H
  H47      1.0000 0.40300  0.81780  0.55260  Biso   1.000  H
  H48      1.0000 0.59700  0.81780  0.94740  Biso   1.000  H
  C81      1.0000 0.07233  0.00970  0.41130  Biso   1.000  C
  C82      1.0000 0.92767  0.00970  0.08870  Biso   1.000  C
  C83      1.0000 0.57233  0.50970  0.41130  Biso   1.000  C
  C84      1.0000 0.42767  0.50970  0.08870  Biso   1.000  C
  C85      1.0000 0.92767  0.99030  0.58870  Biso   1.000  C
  C86      1.0000 0.07233  0.99030  0.91130  Biso   1.000  C
  C87      1.0000 0.42767  0.49030  0.58870  Biso   1.000  C
  C88      1.0000 0.57233  0.49030  0.91130  Biso   1.000  C
  H49      1.0000 0.06630  0.09560  0.40230  Biso   1.000  H
  H50      1.0000 0.93370  0.09560  0.09770  Biso   1.000  H
  H51      1.0000 0.56630  0.59560  0.40230  Biso   1.000  H
  H52      1.0000 0.43370  0.59560  0.09770  Biso   1.000  H
  H53      1.0000 0.93370  0.90440  0.59770  Biso   1.000  H
  H54      1.0000 0.06630  0.90440  0.90230  Biso   1.000  H
  H55      1.0000 0.43370  0.40440  0.59770  Biso   1.000  H
  H56      1.0000 0.56630  0.40440  0.90230  Biso   1.000  H
  C89      1.0000 0.06535  0.79080  0.42110  Biso   1.000  C
  C90      1.0000 0.93465  0.79080  0.07890  Biso   1.000  C
  C91      1.0000 0.56535  0.29080  0.42110  Biso   1.000  C
  C92      1.0000 0.43465  0.29080  0.07890  Biso   1.000  C
  C93      1.0000 0.93465  0.20920  0.57890  Biso   1.000  C
  C94      1.0000 0.06535  0.20920  0.92110  Biso   1.000  C
  C95      1.0000 0.43465  0.70920  0.57890  Biso   1.000  C
  C96      1.0000 0.56535  0.70920  0.92110  Biso   1.000  C
  H57      1.0000 0.05440  0.72040  0.41890  Biso   1.000  H
  H58      1.0000 0.94560  0.72040  0.08110  Biso   1.000  H
  H59      1.0000 0.55440  0.22040  0.41890  Biso   1.000  H
  H60      1.0000 0.44560  0.22040  0.08110  Biso   1.000  H
  H61      1.0000 0.94560  0.27960  0.58110  Biso   1.000  H
  H62      1.0000 0.05440  0.27960  0.91890  Biso   1.000  H
  H63      1.0000 0.44560  0.77960  0.58110  Biso   1.000  H
  H64      1.0000 0.55440  0.77960  0.91890  Biso   1.000  H
  C97      1.0000 0.29458  0.69940  0.35370  Biso   1.000  C
  C98      1.0000 0.70542  0.69940  0.14630  Biso   1.000  C
  C99      1.0000 0.79458  0.19940  0.35370  Biso   1.000  C
  C100     1.0000 0.20542  0.19940  0.14630  Biso   1.000  C
  C101     1.0000 0.70542  0.30060  0.64630  Biso   1.000  C
  C102     1.0000 0.29458  0.30060  0.85370  Biso   1.000  C
  C103     1.0000 0.20542  0.80060  0.64630  Biso   1.000  C
  C104     1.0000 0.79458  0.80060  0.85370  Biso   1.000  C
  C105     1.0000 0.32165  0.68880  0.36090  Biso   1.000  C
  C106     1.0000 0.67835  0.68880  0.13910  Biso   1.000  C
  C107     1.0000 0.82165  0.18880  0.36090  Biso   1.000  C
  C108     1.0000 0.17835  0.18880  0.13910  Biso   1.000  C
  C109     1.0000 0.67835  0.31120  0.63910  Biso   1.000  C
  C110     1.0000 0.32165  0.31120  0.86090  Biso   1.000  C
  C111     1.0000 0.17835  0.81120  0.63910  Biso   1.000  C
  C112     1.0000 0.82165  0.81120  0.86090  Biso   1.000  C
  C113     1.0000 0.33128  0.56200  0.35390  Biso   1.000  C
  C114     1.0000 0.66872  0.56200  0.14610  Biso   1.000  C
  C115     1.0000 0.83128  0.06200  0.35390  Biso   1.000  C
  C116     1.0000 0.16872  0.06200  0.14610  Biso   1.000  C
  C117     1.0000 0.66872  0.43800  0.64610  Biso   1.000  C
  C118     1.0000 0.33128  0.43800  0.85390  Biso   1.000  C
  C119     1.0000 0.16872  0.93800  0.64610  Biso   1.000  C
  C120     1.0000 0.83128  0.93800  0.85390  Biso   1.000  C
  H65      1.0000 0.32070  0.48970  0.34140  Biso   1.000  H
  H66      1.0000 0.67930  0.48970  0.15860  Biso   1.000  H
  H67      1.0000 0.82070  0.98970  0.34140  Biso   1.000  H
  H68      1.0000 0.17930  0.98970  0.15860  Biso   1.000  H
  H69      1.0000 0.67930  0.51030  0.65860  Biso   1.000  H
  H70      1.0000 0.32070  0.51030  0.84140  Biso   1.000  H
  H71      1.0000 0.17930  0.01030  0.65860  Biso   1.000  H
  H72      1.0000 0.82070  0.01030  0.84140  Biso   1.000  H
  C121     1.0000 0.33787  0.79580  0.37760  Biso   1.000  C
  C122     1.0000 0.66213  0.79580  0.12240  Biso   1.000  C
  C123     1.0000 0.83787  0.29580  0.37760  Biso   1.000  C
  C124     1.0000 0.16213  0.29580  0.12240  Biso   1.000  C
  C125     1.0000 0.66213  0.20420  0.62240  Biso   1.000  C
  C126     1.0000 0.33787  0.20420  0.87760  Biso   1.000  C
  C127     1.0000 0.16213  0.70420  0.62240  Biso   1.000  C
  C128     1.0000 0.83787  0.70420  0.87760  Biso   1.000  C
  H73      1.0000 0.33170  0.87990  0.38210  Biso   1.000  H
  H74      1.0000 0.66830  0.87990  0.11790  Biso   1.000  H
  H75      1.0000 0.83170  0.37990  0.38210  Biso   1.000  H
  H76      1.0000 0.16830  0.37990  0.11790  Biso   1.000  H
  H77      1.0000 0.66830  0.12010  0.61790  Biso   1.000  H
  H78      1.0000 0.33170  0.12010  0.88210  Biso   1.000  H
  H79      1.0000 0.16830  0.62010  0.61790  Biso   1.000  H
  H80      1.0000 0.83170  0.62010  0.88210  Biso   1.000  H
  C129     1.0000 0.35655  0.54620  0.36590  Biso   1.000  C
  C130     1.0000 0.64345  0.54620  0.13410  Biso   1.000  C
  C131     1.0000 0.85655  0.04620  0.36590  Biso   1.000  C
  C132     1.0000 0.14345  0.04620  0.13410  Biso   1.000  C
  C133     1.0000 0.64345  0.45380  0.63410  Biso   1.000  C
  C134     1.0000 0.35655  0.45380  0.86590  Biso   1.000  C
  C135     1.0000 0.14345  0.95380  0.63410  Biso   1.000  C
  C136     1.0000 0.85655  0.95380  0.86590  Biso   1.000  C
  H81      1.0000 0.36290  0.46220  0.36220  Biso   1.000  H
  H82      1.0000 0.63710  0.46220  0.13780  Biso   1.000  H
  H83      1.0000 0.86290  0.96220  0.36220  Biso   1.000  H
  H84      1.0000 0.13710  0.96220  0.13780  Biso   1.000  H
  H85      1.0000 0.63710  0.53780  0.63780  Biso   1.000  H
  H86      1.0000 0.36290  0.53780  0.86220  Biso   1.000  H
  H87      1.0000 0.13710  0.03780  0.63780  Biso   1.000  H
  H88      1.0000 0.86290  0.03780  0.86220  Biso   1.000  H
  C137     1.0000 0.36306  0.77790  0.38760  Biso   1.000  C
  C138     1.0000 0.63694  0.77790  0.11240  Biso   1.000  C
  C139     1.0000 0.86306  0.27790  0.38760  Biso   1.000  C
  C140     1.0000 0.13694  0.27790  0.11240  Biso   1.000  C
  C141     1.0000 0.63694  0.22210  0.61240  Biso   1.000  C
  C142     1.0000 0.36306  0.22210  0.88760  Biso   1.000  C
  C143     1.0000 0.13694  0.72210  0.61240  Biso   1.000  C
  C144     1.0000 0.86306  0.72210  0.88760  Biso   1.000  C
  H89      1.0000 0.37360  0.85090  0.39740  Biso   1.000  H
  H90      1.0000 0.62640  0.85090  0.10260  Biso   1.000  H
  H91      1.0000 0.87360  0.35090  0.39740  Biso   1.000  H
  H92      1.0000 0.12640  0.35090  0.10260  Biso   1.000  H
  H93      1.0000 0.62640  0.14910  0.60260  Biso   1.000  H
  H94      1.0000 0.37360  0.14910  0.89740  Biso   1.000  H
  H95      1.0000 0.12640  0.64910  0.60260  Biso   1.000  H
  H96      1.0000 0.87360  0.64910  0.89740  Biso   1.000  H
  C145     1.0000 0.37287  0.65370  0.38330  Biso   1.000  C
  C146     1.0000 0.62713  0.65370  0.11670  Biso   1.000  C
  C147     1.0000 0.87287  0.15370  0.38330  Biso   1.000  C
  C148     1.0000 0.12713  0.15370  0.11670  Biso   1.000  C
  C149     1.0000 0.62713  0.34630  0.61670  Biso   1.000  C
  C150     1.0000 0.37287  0.34630  0.88330  Biso   1.000  C
  C151     1.0000 0.12713  0.84630  0.61670  Biso   1.000  C
  C152     1.0000 0.87287  0.84630  0.88330  Biso   1.000  C
  C153     1.0000 0.39982  0.63250  0.39630  Biso   1.000  C
  C154     1.0000 0.60018  0.63250  0.10370  Biso   1.000  C
  C155     1.0000 0.89982  0.13250  0.39630  Biso   1.000  C
  C156     1.0000 0.10018  0.13250  0.10370  Biso   1.000  C
  C157     1.0000 0.60018  0.36750  0.60370  Biso   1.000  C
  C158     1.0000 0.39982  0.36750  0.89630  Biso   1.000  C
  C159     1.0000 0.10018  0.86750  0.60370  Biso   1.000  C
  C160     1.0000 0.89982  0.86750  0.89630  Biso   1.000  C
  C161     1.0000 0.41013  0.50870  0.41160  Biso   1.000  C
  C162     1.0000 0.58987  0.50870  0.08840  Biso   1.000  C
  C163     1.0000 0.91013  0.00870  0.41160  Biso   1.000  C
  C164     1.0000 0.08987  0.00870  0.08840  Biso   1.000  C
  C165     1.0000 0.58987  0.49130  0.58840  Biso   1.000  C
  C166     1.0000 0.41013  0.49130  0.91160  Biso   1.000  C
  C167     1.0000 0.08987  0.99130  0.58840  Biso   1.000  C
  C168     1.0000 0.91013  0.99130  0.91160  Biso   1.000  C
  H97      1.0000 0.40020  0.43660  0.41490  Biso   1.000  H
  H98      1.0000 0.59980  0.43660  0.08510  Biso   1.000  H
  H99      1.0000 0.90020  0.93660  0.41490  Biso   1.000  H
  H100     1.0000 0.09980  0.93660  0.08510  Biso   1.000  H
  H101     1.0000 0.59980  0.56340  0.58510  Biso   1.000  H
  H102     1.0000 0.40020  0.56340  0.91490  Biso   1.000  H
  H103     1.0000 0.09980  0.06340  0.58510  Biso   1.000  H
  H104     1.0000 0.90020  0.06340  0.91490  Biso   1.000  H
  C169     1.0000 0.41611  0.73250  0.39400  Biso   1.000  C
  C170     1.0000 0.58389  0.73250  0.10600  Biso   1.000  C
  C171     1.0000 0.91611  0.23250  0.39400  Biso   1.000  C
  C172     1.0000 0.08389  0.23250  0.10600  Biso   1.000  C
  C173     1.0000 0.58389  0.26750  0.60600  Biso   1.000  C
  C174     1.0000 0.41611  0.26750  0.89400  Biso   1.000  C
  C175     1.0000 0.08389  0.76750  0.60600  Biso   1.000  C
  C176     1.0000 0.91611  0.76750  0.89400  Biso   1.000  C
  H105     1.0000 0.40980  0.81710  0.38220  Biso   1.000  H
  H106     1.0000 0.59020  0.81710  0.11780  Biso   1.000  H
  H107     1.0000 0.90980  0.31710  0.38220  Biso   1.000  H
  H108     1.0000 0.09020  0.31710  0.11780  Biso   1.000  H
  H109     1.0000 0.59020  0.18290  0.61780  Biso   1.000  H
  H110     1.0000 0.40980  0.18290  0.88220  Biso   1.000  H
  H111     1.0000 0.09020  0.68290  0.61780  Biso   1.000  H
  H112     1.0000 0.90980  0.68290  0.88220  Biso   1.000  H
  C177     1.0000 0.43554  0.49190  0.42190  Biso   1.000  C
  C178     1.0000 0.56446  0.49190  0.07810  Biso   1.000  C
  C179     1.0000 0.93554  0.99190  0.42190  Biso   1.000  C
  C180     1.0000 0.06446  0.99190  0.07810  Biso   1.000  C
  C181     1.0000 0.56446  0.50810  0.57810  Biso   1.000  C
  C182     1.0000 0.43554  0.50810  0.92190  Biso   1.000  C
  C183     1.0000 0.06446  0.00810  0.57810  Biso   1.000  C
  C184     1.0000 0.93554  0.00810  0.92190  Biso   1.000  C
  H113     1.0000 0.44200  0.40670  0.43080  Biso   1.000  H
  H114     1.0000 0.55800  0.40670  0.06920  Biso   1.000  H
  H115     1.0000 0.94200  0.90670  0.43080  Biso   1.000  H
  H116     1.0000 0.05800  0.90670  0.06920  Biso   1.000  H
  H117     1.0000 0.55800  0.59330  0.56920  Biso   1.000  H
  H118     1.0000 0.44200  0.59330  0.93080  Biso   1.000  H
  H119     1.0000 0.05800  0.09330  0.56920  Biso   1.000  H
  H120     1.0000 0.94200  0.09330  0.93080  Biso   1.000  H
  C185     1.0000 0.44110  0.71380  0.40810  Biso   1.000  C
  C186     1.0000 0.55890  0.71380  0.09190  Biso   1.000  C
  C187     1.0000 0.94110  0.21380  0.40810  Biso   1.000  C
  C188     1.0000 0.05890  0.21380  0.09190  Biso   1.000  C
  C189     1.0000 0.55890  0.28620  0.59190  Biso   1.000  C
  C190     1.0000 0.44110  0.28620  0.90810  Biso   1.000  C
  C191     1.0000 0.05890  0.78620  0.59190  Biso   1.000  C
  C192     1.0000 0.94110  0.78620  0.90810  Biso   1.000  C
  H121     1.0000 0.45140  0.78660  0.40970  Biso   1.000  H
  H122     1.0000 0.54860  0.78660  0.09030  Biso   1.000  H
  H123     1.0000 0.95140  0.28660  0.40970  Biso   1.000  H
  H124     1.0000 0.04860  0.28660  0.09030  Biso   1.000  H
  H125     1.0000 0.54860  0.21340  0.59030  Biso   1.000  H
  H126     1.0000 0.45140  0.21340  0.90970  Biso   1.000  H
  H127     1.0000 0.04860  0.71340  0.59030  Biso   1.000  H
  H128     1.0000 0.95140  0.71340  0.90970  Biso   1.000  H
  C193     1.0000 0.21601  0.01430  0.32980  Biso   1.000  C
  C194     1.0000 0.78399  0.01430  0.17020  Biso   1.000  C
  C195     1.0000 0.71601  0.51430  0.32980  Biso   1.000  C
  C196     1.0000 0.28399  0.51430  0.17020  Biso   1.000  C
  C197     1.0000 0.78399  0.98570  0.67020  Biso   1.000  C
  C198     1.0000 0.21601  0.98570  0.82980  Biso   1.000  C
  C199     1.0000 0.28399  0.48570  0.67020  Biso   1.000  C
  C200     1.0000 0.71601  0.48570  0.82980  Biso   1.000  C
  C201     1.0000 0.18858  0.01470  0.31610  Biso   1.000  C
  C202     1.0000 0.81142  0.01470  0.18390  Biso   1.000  C
  C203     1.0000 0.68858  0.51470  0.31610  Biso   1.000  C
  C204     1.0000 0.31142  0.51470  0.18390  Biso   1.000  C
  C205     1.0000 0.81142  0.98530  0.68390  Biso   1.000  C
  C206     1.0000 0.18858  0.98530  0.81610  Biso   1.000  C
  C207     1.0000 0.31142  0.48530  0.68390  Biso   1.000  C
  C208     1.0000 0.68858  0.48530  0.81610  Biso   1.000  C
  C209     1.0000 0.17472  0.89670  0.31200  Biso   1.000  C
  C210     1.0000 0.82528  0.89670  0.18800  Biso   1.000  C
  C211     1.0000 0.67472  0.39670  0.31200  Biso   1.000  C
  C212     1.0000 0.32528  0.39670  0.18800  Biso   1.000  C
  C213     1.0000 0.82528  0.10330  0.68800  Biso   1.000  C
  C214     1.0000 0.17472  0.10330  0.81200  Biso   1.000  C
  C215     1.0000 0.32528  0.60330  0.68800  Biso   1.000  C
  C216     1.0000 0.67472  0.60330  0.81200  Biso   1.000  C
  H129     1.0000 0.18290  0.81540  0.31880  Biso   1.000  H
  H130     1.0000 0.81710  0.81540  0.18120  Biso   1.000  H
  H131     1.0000 0.68290  0.31540  0.31880  Biso   1.000  H
  H132     1.0000 0.31710  0.31540  0.18120  Biso   1.000  H
  H133     1.0000 0.81710  0.18460  0.68120  Biso   1.000  H
  H134     1.0000 0.18290  0.18460  0.81880  Biso   1.000  H
  H135     1.0000 0.31710  0.68460  0.68120  Biso   1.000  H
  H136     1.0000 0.68290  0.68460  0.81880  Biso   1.000  H
  C217     1.0000 0.17602  0.13440  0.30790  Biso   1.000  C
  C218     1.0000 0.82398  0.13440  0.19210  Biso   1.000  C
  C219     1.0000 0.67602  0.63440  0.30790  Biso   1.000  C
  C220     1.0000 0.32398  0.63440  0.19210  Biso   1.000  C
  C221     1.0000 0.82398  0.86560  0.69210  Biso   1.000  C
  C222     1.0000 0.17602  0.86560  0.80790  Biso   1.000  C
  C223     1.0000 0.32398  0.36560  0.69210  Biso   1.000  C
  C224     1.0000 0.67602  0.36560  0.80790  Biso   1.000  C
  H137     1.0000 0.18500  0.21300  0.31150  Biso   1.000  H
  H138     1.0000 0.81500  0.21300  0.18850  Biso   1.000  H
  H139     1.0000 0.68500  0.71300  0.31150  Biso   1.000  H
  H140     1.0000 0.31500  0.71300  0.18850  Biso   1.000  H
  H141     1.0000 0.81500  0.78700  0.68850  Biso   1.000  H
  H142     1.0000 0.18500  0.78700  0.81150  Biso   1.000  H
  H143     1.0000 0.31500  0.28700  0.68850  Biso   1.000  H
  H144     1.0000 0.68500  0.28700  0.81150  Biso   1.000  H
  C225     1.0000 0.14883  0.90010  0.29800  Biso   1.000  C
  C226     1.0000 0.85117  0.90010  0.20200  Biso   1.000  C
  C227     1.0000 0.64883  0.40010  0.29800  Biso   1.000  C
  C228     1.0000 0.35117  0.40010  0.20200  Biso   1.000  C
  C229     1.0000 0.85117  0.09990  0.70200  Biso   1.000  C
  C230     1.0000 0.14883  0.09990  0.79800  Biso   1.000  C
  C231     1.0000 0.35117  0.59990  0.70200  Biso   1.000  C
  C232     1.0000 0.64883  0.59990  0.79800  Biso   1.000  C
  H145     1.0000 0.13990  0.82110  0.29350  Biso   1.000  H
  H146     1.0000 0.86010  0.82110  0.20650  Biso   1.000  H
  H147     1.0000 0.63990  0.32110  0.29350  Biso   1.000  H
  H148     1.0000 0.36010  0.32110  0.20650  Biso   1.000  H
  H149     1.0000 0.86010  0.17890  0.70650  Biso   1.000  H
  H150     1.0000 0.13990  0.17890  0.79350  Biso   1.000  H
  H151     1.0000 0.36010  0.67890  0.70650  Biso   1.000  H
  H152     1.0000 0.63990  0.67890  0.79350  Biso   1.000  H
  C233     1.0000 0.15023  0.14020  0.29430  Biso   1.000  C
  C234     1.0000 0.84977  0.14020  0.20570  Biso   1.000  C
  C235     1.0000 0.65023  0.64020  0.29430  Biso   1.000  C
  C236     1.0000 0.34977  0.64020  0.20570  Biso   1.000  C
  C237     1.0000 0.84977  0.85980  0.70570  Biso   1.000  C
  C238     1.0000 0.15023  0.85980  0.79430  Biso   1.000  C
  C239     1.0000 0.34977  0.35980  0.70570  Biso   1.000  C
  C240     1.0000 0.65023  0.35980  0.79430  Biso   1.000  C
  H153     1.0000 0.14220  0.22180  0.28760  Biso   1.000  H
  H154     1.0000 0.85780  0.22180  0.21240  Biso   1.000  H
  H155     1.0000 0.64220  0.72180  0.28760  Biso   1.000  H
  H156     1.0000 0.35780  0.72180  0.21240  Biso   1.000  H
  H157     1.0000 0.85780  0.77820  0.71240  Biso   1.000  H
  H158     1.0000 0.14220  0.77820  0.78760  Biso   1.000  H
  H159     1.0000 0.35780  0.27820  0.71240  Biso   1.000  H
  H160     1.0000 0.64220  0.27820  0.78760  Biso   1.000  H
  C241     1.0000 0.13629  0.02090  0.29070  Biso   1.000  C
  C242     1.0000 0.86371  0.02090  0.20930  Biso   1.000  C
  C243     1.0000 0.63629  0.52090  0.29070  Biso   1.000  C
  C244     1.0000 0.36371  0.52090  0.20930  Biso   1.000  C
  C245     1.0000 0.86371  0.97910  0.70930  Biso   1.000  C
  C246     1.0000 0.13629  0.97910  0.79070  Biso   1.000  C
  C247     1.0000 0.36371  0.47910  0.70930  Biso   1.000  C
  C248     1.0000 0.63629  0.47910  0.79070  Biso   1.000  C
  C249     1.0000 0.10891  0.02400  0.27550  Biso   1.000  C
  C250     1.0000 0.89109  0.02400  0.22450  Biso   1.000  C
  C251     1.0000 0.60891  0.52400  0.27550  Biso   1.000  C
  C252     1.0000 0.39109  0.52400  0.22450  Biso   1.000  C
  C253     1.0000 0.89109  0.97600  0.72450  Biso   1.000  C
  C254     1.0000 0.10891  0.97600  0.77550  Biso   1.000  C
  C255     1.0000 0.39109  0.47600  0.72450  Biso   1.000  C
  C256     1.0000 0.60891  0.47600  0.77550  Biso   1.000  C
  C257     1.0000 0.09465  0.91380  0.26110  Biso   1.000  C
  C258     1.0000 0.90535  0.91380  0.23890  Biso   1.000  C
  C259     1.0000 0.59465  0.41380  0.26110  Biso   1.000  C
  C260     1.0000 0.40535  0.41380  0.23890  Biso   1.000  C
  C261     1.0000 0.90535  0.08620  0.73890  Biso   1.000  C
  C262     1.0000 0.09465  0.08620  0.76110  Biso   1.000  C
  C263     1.0000 0.40535  0.58620  0.73890  Biso   1.000  C
  C264     1.0000 0.59465  0.58620  0.76110  Biso   1.000  C
  H161     1.0000 0.10230  0.83220  0.25980  Biso   1.000  H
  H162     1.0000 0.89770  0.83220  0.24020  Biso   1.000  H
  H163     1.0000 0.60230  0.33220  0.25980  Biso   1.000  H
  H164     1.0000 0.39770  0.33220  0.24020  Biso   1.000  H
  H165     1.0000 0.89770  0.16780  0.74020  Biso   1.000  H
  H166     1.0000 0.10230  0.16780  0.75980  Biso   1.000  H
  H167     1.0000 0.39770  0.66780  0.74020  Biso   1.000  H
  H168     1.0000 0.60230  0.66780  0.75980  Biso   1.000  H
  C265     1.0000 0.09561  0.14100  0.27480  Biso   1.000  C
  C266     1.0000 0.90439  0.14100  0.22520  Biso   1.000  C
  C267     1.0000 0.59561  0.64100  0.27480  Biso   1.000  C
  C268     1.0000 0.40439  0.64100  0.22520  Biso   1.000  C
  C269     1.0000 0.90439  0.85900  0.72520  Biso   1.000  C
  C270     1.0000 0.09561  0.85900  0.77480  Biso   1.000  C
  C271     1.0000 0.40439  0.35900  0.72520  Biso   1.000  C
  C272     1.0000 0.59561  0.35900  0.77480  Biso   1.000  C
  H169     1.0000 0.10390  0.22180  0.28450  Biso   1.000  H
  H170     1.0000 0.89610  0.22180  0.21550  Biso   1.000  H
  H171     1.0000 0.60390  0.72180  0.28450  Biso   1.000  H
  H172     1.0000 0.39610  0.72180  0.21550  Biso   1.000  H
  H173     1.0000 0.89610  0.77820  0.71550  Biso   1.000  H
  H174     1.0000 0.10390  0.77820  0.78450  Biso   1.000  H
  H175     1.0000 0.39610  0.27820  0.71550  Biso   1.000  H
  H176     1.0000 0.60390  0.27820  0.78450  Biso   1.000  H
  C273     1.0000 0.06888  0.91840  0.24820  Biso   1.000  C
  C274     1.0000 0.93112  0.91840  0.25180  Biso   1.000  C
  C275     1.0000 0.56888  0.41840  0.24820  Biso   1.000  C
  C276     1.0000 0.43112  0.41840  0.25180  Biso   1.000  C
  C277     1.0000 0.93112  0.08160  0.75180  Biso   1.000  C
  C278     1.0000 0.06888  0.08160  0.74820  Biso   1.000  C
  C279     1.0000 0.43112  0.58160  0.75180  Biso   1.000  C
  C280     1.0000 0.56888  0.58160  0.74820  Biso   1.000  C
  H177     1.0000 0.06000  0.83920  0.24010  Biso   1.000  H
  H178     1.0000 0.94000  0.83920  0.25990  Biso   1.000  H
  H179     1.0000 0.56000  0.33920  0.24010  Biso   1.000  H
  H180     1.0000 0.44000  0.33920  0.25990  Biso   1.000  H
  H181     1.0000 0.94000  0.16080  0.75990  Biso   1.000  H
  H182     1.0000 0.06000  0.16080  0.74010  Biso   1.000  H
  H183     1.0000 0.44000  0.66080  0.75990  Biso   1.000  H
  H184     1.0000 0.56000  0.66080  0.74010  Biso   1.000  H
  C281     1.0000 0.06991  0.13590  0.25940  Biso   1.000  C
  C282     1.0000 0.93009  0.13590  0.24060  Biso   1.000  C
  C283     1.0000 0.56991  0.63590  0.25940  Biso   1.000  C
  C284     1.0000 0.43009  0.63590  0.24060  Biso   1.000  C
  C285     1.0000 0.93009  0.86410  0.74060  Biso   1.000  C
  C286     1.0000 0.06991  0.86410  0.75940  Biso   1.000  C
  C287     1.0000 0.43009  0.36410  0.74060  Biso   1.000  C
  C288     1.0000 0.56991  0.36410  0.75940  Biso   1.000  C
  H185     1.0000 0.06160  0.21620  0.25790  Biso   1.000  H
  H186     1.0000 0.93840  0.21620  0.24210  Biso   1.000  H
  H187     1.0000 0.56160  0.71620  0.25790  Biso   1.000  H
  H188     1.0000 0.43840  0.71620  0.24210  Biso   1.000  H
  H189     1.0000 0.93840  0.78380  0.74210  Biso   1.000  H
  H190     1.0000 0.06160  0.78380  0.75790  Biso   1.000  H
  H191     1.0000 0.43840  0.28380  0.74210  Biso   1.000  H
  H192     1.0000 0.56160  0.28380  0.75790  Biso   1.000  H
  C289     1.0000 0.18470  0.58990  0.23660  Biso   1.000  C
  C290     1.0000 0.81530  0.58990  0.26340  Biso   1.000  C
  C291     1.0000 0.68470  0.08990  0.23660  Biso   1.000  C
  C292     1.0000 0.31530  0.08990  0.26340  Biso   1.000  C
  C293     1.0000 0.81530  0.41010  0.76340  Biso   1.000  C
  C294     1.0000 0.18470  0.41010  0.73660  Biso   1.000  C
  C295     1.0000 0.31530  0.91010  0.76340  Biso   1.000  C
  C296     1.0000 0.68470  0.91010  0.73660  Biso   1.000  C
  C297     1.0000 0.15834  0.57240  0.23630  Biso   1.000  C
  C298     1.0000 0.84166  0.57240  0.26370  Biso   1.000  C
  C299     1.0000 0.65834  0.07240  0.23630  Biso   1.000  C
  C300     1.0000 0.34166  0.07240  0.26370  Biso   1.000  C
  C301     1.0000 0.84166  0.42760  0.76370  Biso   1.000  C
  C302     1.0000 0.15834  0.42760  0.73630  Biso   1.000  C
  C303     1.0000 0.34166  0.92760  0.76370  Biso   1.000  C
  C304     1.0000 0.65834  0.92760  0.73630  Biso   1.000  C
  C305     1.0000 0.13877  0.61070  0.18270  Biso   1.000  C
  C306     1.0000 0.86123  0.61070  0.31730  Biso   1.000  C
  C307     1.0000 0.63877  0.11070  0.18270  Biso   1.000  C
  C308     1.0000 0.36123  0.11070  0.31730  Biso   1.000  C
  C309     1.0000 0.86123  0.38930  0.81730  Biso   1.000  C
  C310     1.0000 0.13877  0.38930  0.68270  Biso   1.000  C
  C311     1.0000 0.36123  0.88930  0.81730  Biso   1.000  C
  C312     1.0000 0.63877  0.88930  0.68270  Biso   1.000  C
  H193     1.0000 0.14210  0.64630  0.14520  Biso   1.000  H
  H194     1.0000 0.85790  0.64630  0.35480  Biso   1.000  H
  H195     1.0000 0.64210  0.14630  0.14520  Biso   1.000  H
  H196     1.0000 0.35790  0.14630  0.35480  Biso   1.000  H
  H197     1.0000 0.85790  0.35370  0.85480  Biso   1.000  H
  H198     1.0000 0.14210  0.35370  0.64520  Biso   1.000  H
  H199     1.0000 0.35790  0.85370  0.85480  Biso   1.000  H
  H200     1.0000 0.64210  0.85370  0.64520  Biso   1.000  H
  C313     1.0000 0.15251  0.51860  0.29070  Biso   1.000  C
  C314     1.0000 0.84749  0.51860  0.20930  Biso   1.000  C
  C315     1.0000 0.65251  0.01860  0.29070  Biso   1.000  C
  C316     1.0000 0.34749  0.01860  0.20930  Biso   1.000  C
  C317     1.0000 0.84749  0.48140  0.70930  Biso   1.000  C
  C318     1.0000 0.15251  0.48140  0.79070  Biso   1.000  C
  C319     1.0000 0.34749  0.98140  0.70930  Biso   1.000  C
  C320     1.0000 0.65251  0.98140  0.79070  Biso   1.000  C
  H201     1.0000 0.16520  0.49320  0.32770  Biso   1.000  H
  H202     1.0000 0.83480  0.49320  0.17230  Biso   1.000  H
  H203     1.0000 0.66520  0.99320  0.32770  Biso   1.000  H
  H204     1.0000 0.33480  0.99320  0.17230  Biso   1.000  H
  H205     1.0000 0.83480  0.50680  0.67230  Biso   1.000  H
  H206     1.0000 0.16520  0.50680  0.82770  Biso   1.000  H
  H207     1.0000 0.33480  0.00680  0.67230  Biso   1.000  H
  H208     1.0000 0.66520  0.00680  0.82770  Biso   1.000  H
  C321     1.0000 0.11461  0.59660  0.18450  Biso   1.000  C
  C322     1.0000 0.88539  0.59660  0.31550  Biso   1.000  C
  C323     1.0000 0.61461  0.09660  0.18450  Biso   1.000  C
  C324     1.0000 0.38539  0.09660  0.31550  Biso   1.000  C
  C325     1.0000 0.88539  0.40340  0.81550  Biso   1.000  C
  C326     1.0000 0.11461  0.40340  0.68450  Biso   1.000  C
  C327     1.0000 0.38539  0.90340  0.81550  Biso   1.000  C
  C328     1.0000 0.61461  0.90340  0.68450  Biso   1.000  C
  H209     1.0000 0.10190  0.62530  0.14850  Biso   1.000  H
  H210     1.0000 0.89810  0.62530  0.35150  Biso   1.000  H
  H211     1.0000 0.60190  0.12530  0.14850  Biso   1.000  H
  H212     1.0000 0.39810  0.12530  0.35150  Biso   1.000  H
  H213     1.0000 0.89810  0.37470  0.85150  Biso   1.000  H
  H214     1.0000 0.10190  0.37470  0.64850  Biso   1.000  H
  H215     1.0000 0.39810  0.87470  0.85150  Biso   1.000  H
  H216     1.0000 0.60190  0.87470  0.64850  Biso   1.000  H
  C329     1.0000 0.12793  0.50220  0.29050  Biso   1.000  C
  C330     1.0000 0.87207  0.50220  0.20950  Biso   1.000  C
  C331     1.0000 0.62793  0.00220  0.29050  Biso   1.000  C
  C332     1.0000 0.37207  0.00220  0.20950  Biso   1.000  C
  C333     1.0000 0.87207  0.49780  0.70950  Biso   1.000  C
  C334     1.0000 0.12793  0.49780  0.79050  Biso   1.000  C
  C335     1.0000 0.37207  0.99780  0.70950  Biso   1.000  C
  C336     1.0000 0.62793  0.99780  0.79050  Biso   1.000  C
  H217     1.0000 0.12440  0.46350  0.32710  Biso   1.000  H
  H218     1.0000 0.87560  0.46350  0.17290  Biso   1.000  H
  H219     1.0000 0.62440  0.96350  0.32710  Biso   1.000  H
  H220     1.0000 0.37560  0.96350  0.17290  Biso   1.000  H
  H221     1.0000 0.87560  0.53650  0.67290  Biso   1.000  H
  H222     1.0000 0.12440  0.53650  0.82710  Biso   1.000  H
  H223     1.0000 0.37560  0.03650  0.67290  Biso   1.000  H
  H224     1.0000 0.62440  0.03650  0.82710  Biso   1.000  H
  C337     1.0000 0.10876  0.54160  0.23770  Biso   1.000  C
  C338     1.0000 0.89124  0.54160  0.26230  Biso   1.000  C
  C339     1.0000 0.60876  0.04160  0.23770  Biso   1.000  C
  C340     1.0000 0.39124  0.04160  0.26230  Biso   1.000  C
  C341     1.0000 0.89124  0.45840  0.76230  Biso   1.000  C
  C342     1.0000 0.10876  0.45840  0.73770  Biso   1.000  C
  C343     1.0000 0.39124  0.95840  0.76230  Biso   1.000  C
  C344     1.0000 0.60876  0.95840  0.73770  Biso   1.000  C
  C345     1.0000 0.08221  0.52500  0.24070  Biso   1.000  C
  C346     1.0000 0.91779  0.52500  0.25930  Biso   1.000  C
  C347     1.0000 0.58221  0.02500  0.24070  Biso   1.000  C
  C348     1.0000 0.41779  0.02500  0.25930  Biso   1.000  C
  C349     1.0000 0.91779  0.47500  0.75930  Biso   1.000  C
  C350     1.0000 0.08221  0.47500  0.74070  Biso   1.000  C
  C351     1.0000 0.41779  0.97500  0.75930  Biso   1.000  C
  C352     1.0000 0.58221  0.97500  0.74070  Biso   1.000  C
  C353     1.0000 0.06235  0.53550  0.18250  Biso   1.000  C
  C354     1.0000 0.93765  0.53550  0.31750  Biso   1.000  C
  C355     1.0000 0.56235  0.03550  0.18250  Biso   1.000  C
  C356     1.0000 0.43765  0.03550  0.31750  Biso   1.000  C
  C357     1.0000 0.93765  0.46450  0.81750  Biso   1.000  C
  C358     1.0000 0.06235  0.46450  0.68250  Biso   1.000  C
  C359     1.0000 0.43765  0.96450  0.81750  Biso   1.000  C
  C360     1.0000 0.56235  0.96450  0.68250  Biso   1.000  C
  H225     1.0000 0.06520  0.55520  0.14190  Biso   1.000  H
  H226     1.0000 0.93480  0.55520  0.35810  Biso   1.000  H
  H227     1.0000 0.56520  0.05520  0.14190  Biso   1.000  H
  H228     1.0000 0.43480  0.05520  0.35810  Biso   1.000  H
  H229     1.0000 0.93480  0.44480  0.85810  Biso   1.000  H
  H230     1.0000 0.06520  0.44480  0.64190  Biso   1.000  H
  H231     1.0000 0.43480  0.94480  0.85810  Biso   1.000  H
  H232     1.0000 0.56520  0.94480  0.64190  Biso   1.000  H
  C361     1.0000 0.07648  0.50290  0.29840  Biso   1.000  C
  C362     1.0000 0.92352  0.50290  0.20160  Biso   1.000  C
  C363     1.0000 0.57648  0.00290  0.29840  Biso   1.000  C
  C364     1.0000 0.42352  0.00290  0.20160  Biso   1.000  C
  C365     1.0000 0.92352  0.49710  0.70160  Biso   1.000  C
  C366     1.0000 0.07648  0.49710  0.79840  Biso   1.000  C
  C367     1.0000 0.42352  0.99710  0.70160  Biso   1.000  C
  C368     1.0000 0.57648  0.99710  0.79840  Biso   1.000  C
  H233     1.0000 0.08910  0.50370  0.33810  Biso   1.000  H
  H234     1.0000 0.91090  0.50370  0.16190  Biso   1.000  H
  H235     1.0000 0.58910  0.00370  0.33810  Biso   1.000  H
  H236     1.0000 0.41090  0.00370  0.16190  Biso   1.000  H
  H237     1.0000 0.91090  0.49630  0.66190  Biso   1.000  H
  H238     1.0000 0.08910  0.49630  0.83810  Biso   1.000  H
  H239     1.0000 0.41090  0.99630  0.66190  Biso   1.000  H
  H240     1.0000 0.58910  0.99630  0.83810  Biso   1.000  H
  C369     1.0000 0.03833  0.51540  0.18780  Biso   1.000  C
  C370     1.0000 0.96167  0.51540  0.31220  Biso   1.000  C
  C371     1.0000 0.53833  0.01540  0.18780  Biso   1.000  C
  C372     1.0000 0.46167  0.01540  0.31220  Biso   1.000  C
  C373     1.0000 0.96167  0.48460  0.81220  Biso   1.000  C
  C374     1.0000 0.03833  0.48460  0.68780  Biso   1.000  C
  C375     1.0000 0.46167  0.98460  0.81220  Biso   1.000  C
  C376     1.0000 0.53833  0.98460  0.68780  Biso   1.000  C
  H241     1.0000 0.02520  0.52240  0.14950  Biso   1.000  H
  H242     1.0000 0.97480  0.52240  0.35050  Biso   1.000  H
  H243     1.0000 0.52520  0.02240  0.14950  Biso   1.000  H
  H244     1.0000 0.47480  0.02240  0.35050  Biso   1.000  H
  H245     1.0000 0.97480  0.47760  0.85050  Biso   1.000  H
  H246     1.0000 0.02520  0.47760  0.64950  Biso   1.000  H
  H247     1.0000 0.47480  0.97760  0.85050  Biso   1.000  H
  H248     1.0000 0.52520  0.97760  0.64950  Biso   1.000  H
  C377     1.0000 0.05216  0.47910  0.29970  Biso   1.000  C
  C378     1.0000 0.94784  0.47910  0.20030  Biso   1.000  C
  C379     1.0000 0.55216  0.97910  0.29970  Biso   1.000  C
  C380     1.0000 0.44784  0.97910  0.20030  Biso   1.000  C
  C381     1.0000 0.94784  0.52090  0.70030  Biso   1.000  C
  C382     1.0000 0.05216  0.52090  0.79970  Biso   1.000  C
  C383     1.0000 0.44784  0.02090  0.70030  Biso   1.000  C
  C384     1.0000 0.55216  0.02090  0.79970  Biso   1.000  C
  H249     1.0000 0.04920  0.45750  0.33990  Biso   1.000  H
  H250     1.0000 0.95080  0.45750  0.16010  Biso   1.000  H
  H251     1.0000 0.54920  0.95750  0.33990  Biso   1.000  H
  H252     1.0000 0.45080  0.95750  0.16010  Biso   1.000  H
  H253     1.0000 0.95080  0.54250  0.66010  Biso   1.000  H
  H254     1.0000 0.04920  0.54250  0.83990  Biso   1.000  H
  H255     1.0000 0.45080  0.04250  0.66010  Biso   1.000  H
  H256     1.0000 0.54920  0.04250  0.83990  Biso   1.000  H
  C385     1.0000 0.25246  0.35470  0.29280  Biso   1.000  C
  C386     1.0000 0.74754  0.35470  0.20720  Biso   1.000  C
  C387     1.0000 0.75246  0.85470  0.29280  Biso   1.000  C
  C388     1.0000 0.24754  0.85470  0.20720  Biso   1.000  C
  C389     1.0000 0.74754  0.64530  0.70720  Biso   1.000  C
  C390     1.0000 0.25246  0.64530  0.79280  Biso   1.000  C
  C391     1.0000 0.24754  0.14530  0.70720  Biso   1.000  C
  C392     1.0000 0.75246  0.14530  0.79280  Biso   1.000  C
  C393     1.0000 0.25676  0.35400  0.36880  Biso   1.000  C
  C394     1.0000 0.74324  0.35400  0.13120  Biso   1.000  C
  C395     1.0000 0.75676  0.85400  0.36880  Biso   1.000  C
  C396     1.0000 0.24324  0.85400  0.13120  Biso   1.000  C
  C397     1.0000 0.74324  0.64600  0.63120  Biso   1.000  C
  C398     1.0000 0.25676  0.64600  0.86880  Biso   1.000  C
  C399     1.0000 0.24324  0.14600  0.63120  Biso   1.000  C
  C400     1.0000 0.75676  0.14600  0.86880  Biso   1.000  C
  O1       1.0000 0.21773  0.69250  0.43880  Biso   1.000  O
  O2       1.0000 0.78227  0.69250  0.06120  Biso   1.000  O
  O3       1.0000 0.71773  0.19250  0.43880  Biso   1.000  O
  O4       1.0000 0.28227  0.19250  0.06120  Biso   1.000  O
  O5       1.0000 0.78227  0.30750  0.56120  Biso   1.000  O
  O6       1.0000 0.21773  0.30750  0.93880  Biso   1.000  O
  O7       1.0000 0.28227  0.80750  0.56120  Biso   1.000  O
  O8       1.0000 0.71773  0.80750  0.93880  Biso   1.000  O
  O9       1.0000 0.22773  0.82600  0.52760  Biso   1.000  O
  O10      1.0000 0.77227  0.82600  0.97240  Biso   1.000  O
  O11      1.0000 0.72773  0.32600  0.52760  Biso   1.000  O
  O12      1.0000 0.27227  0.32600  0.97240  Biso   1.000  O
  O13      1.0000 0.77227  0.17400  0.47240  Biso   1.000  O
  O14      1.0000 0.22773  0.17400  0.02760  Biso   1.000  O
  O15      1.0000 0.27227  0.67400  0.47240  Biso   1.000  O
  O16      1.0000 0.72773  0.67400  0.02760  Biso   1.000  O
  O17      1.0000 0.28178  0.59710  0.34090  Biso   1.000  O
  O18      1.0000 0.71822  0.59710  0.15910  Biso   1.000  O
  O19      1.0000 0.78178  0.09710  0.34090  Biso   1.000  O
  O20      1.0000 0.21822  0.09710  0.15910  Biso   1.000  O
  O21      1.0000 0.71822  0.40290  0.65910  Biso   1.000  O
  O22      1.0000 0.28178  0.40290  0.84090  Biso   1.000  O
  O23      1.0000 0.21822  0.90290  0.65910  Biso   1.000  O
  O24      1.0000 0.78178  0.90290  0.84090  Biso   1.000  O
  O25      1.0000 0.28467  0.81210  0.36050  Biso   1.000  O
  O26      1.0000 0.71533  0.81210  0.13950  Biso   1.000  O
  O27      1.0000 0.78467  0.31210  0.36050  Biso   1.000  O
  O28      1.0000 0.21533  0.31210  0.13950  Biso   1.000  O
  O29      1.0000 0.71533  0.18790  0.63950  Biso   1.000  O
  O30      1.0000 0.28467  0.18790  0.86050  Biso   1.000  O
  O31      1.0000 0.21533  0.68790  0.63950  Biso   1.000  O
  O32      1.0000 0.78467  0.68790  0.86050  Biso   1.000  O
  O33      1.0000 0.22789  0.90230  0.33900  Biso   1.000  O
  O34      1.0000 0.77211  0.90230  0.16100  Biso   1.000  O
  O35      1.0000 0.72789  0.40230  0.33900  Biso   1.000  O
  O36      1.0000 0.27211  0.40230  0.16100  Biso   1.000  O
  O37      1.0000 0.77211  0.09770  0.66100  Biso   1.000  O
  O38      1.0000 0.22789  0.09770  0.83900  Biso   1.000  O
  O39      1.0000 0.27211  0.59770  0.66100  Biso   1.000  O
  O40      1.0000 0.72789  0.59770  0.83900  Biso   1.000  O
  O41      1.0000 0.22694  0.11960  0.33160  Biso   1.000  O
  O42      1.0000 0.77306  0.11960  0.16840  Biso   1.000  O
  O43      1.0000 0.72694  0.61960  0.33160  Biso   1.000  O
  O44      1.0000 0.27306  0.61960  0.16840  Biso   1.000  O
  O45      1.0000 0.77306  0.88040  0.66840  Biso   1.000  O
  O46      1.0000 0.22694  0.88040  0.83160  Biso   1.000  O
  O47      1.0000 0.27306  0.38040  0.66840  Biso   1.000  O
  O48      1.0000 0.72694  0.38040  0.83160  Biso   1.000  O
  O49      1.0000 0.19002  0.59200  0.18250  Biso   1.000  O
  O50      1.0000 0.80998  0.59200  0.31750  Biso   1.000  O
  O51      1.0000 0.69002  0.09200  0.18250  Biso   1.000  O
  O52      1.0000 0.30998  0.09200  0.31750  Biso   1.000  O
  O53      1.0000 0.80998  0.40800  0.81750  Biso   1.000  O
  O54      1.0000 0.19002  0.40800  0.68250  Biso   1.000  O
  O55      1.0000 0.30998  0.90800  0.81750  Biso   1.000  O
  O56      1.0000 0.69002  0.90800  0.68250  Biso   1.000  O
  O57      1.0000 0.20015  0.60250  0.29270  Biso   1.000  O
  O58      1.0000 0.79985  0.60250  0.20730  Biso   1.000  O
  O59      1.0000 0.70015  0.10250  0.29270  Biso   1.000  O
  O60      1.0000 0.29985  0.10250  0.20730  Biso   1.000  O
  O61      1.0000 0.79985  0.39750  0.70730  Biso   1.000  O
  O62      1.0000 0.20015  0.39750  0.79270  Biso   1.000  O
  O63      1.0000 0.29985  0.89750  0.70730  Biso   1.000  O
  O64      1.0000 0.70015  0.89750  0.79270  Biso   1.000  O
  O65      1.0000 0.24541  0.43970  0.39300  Biso   1.000  O
  O66      1.0000 0.75459  0.43970  0.10700  Biso   1.000  O
  O67      1.0000 0.74541  0.93970  0.39300  Biso   1.000  O
  O68      1.0000 0.25459  0.93970  0.10700  Biso   1.000  O
  O69      1.0000 0.75459  0.56030  0.60700  Biso   1.000  O
  O70      1.0000 0.24541  0.56030  0.89300  Biso   1.000  O
  O71      1.0000 0.25459  0.06030  0.60700  Biso   1.000  O
  O72      1.0000 0.74541  0.06030  0.89300  Biso   1.000  O
  O73      1.0000 0.24239  0.45590  0.26320  Biso   1.000  O
  O74      1.0000 0.75761  0.45590  0.23680  Biso   1.000  O
  O75      1.0000 0.74239  0.95590  0.26320  Biso   1.000  O
  O76      1.0000 0.25761  0.95590  0.23680  Biso   1.000  O
  O77      1.0000 0.75761  0.54410  0.73680  Biso   1.000  O
  O78      1.0000 0.24239  0.54410  0.76320  Biso   1.000  O
  O79      1.0000 0.25761  0.04410  0.73680  Biso   1.000  O
  O80      1.0000 0.74239  0.04410  0.76320  Biso   1.000  O
  O81      1.0000 0.25956  0.25020  0.26780  Biso   1.000  O
  O82      1.0000 0.74044  0.25020  0.23220  Biso   1.000  O
  O83      1.0000 0.75956  0.75020  0.26780  Biso   1.000  O
  O84      1.0000 0.24044  0.75020  0.23220  Biso   1.000  O
  O85      1.0000 0.74044  0.74980  0.73220  Biso   1.000  O
  O86      1.0000 0.25956  0.74980  0.76780  Biso   1.000  O
  O87      1.0000 0.24044  0.24980  0.73220  Biso   1.000  O
  O88      1.0000 0.75956  0.24980  0.76780  Biso   1.000  O
  O89      1.0000 0.27121  0.27000  0.40230  Biso   1.000  O
  O90      1.0000 0.72879  0.27000  0.09770  Biso   1.000  O
  O91      1.0000 0.77121  0.77000  0.40230  Biso   1.000  O
  O92      1.0000 0.22879  0.77000  0.09770  Biso   1.000  O
  O93      1.0000 0.72879  0.73000  0.59770  Biso   1.000  O
  O94      1.0000 0.27121  0.73000  0.90230  Biso   1.000  O
  O95      1.0000 0.22879  0.23000  0.59770  Biso   1.000  O
  O96      1.0000 0.77121  0.23000  0.90230  Biso   1.000  O
  O97      1.0000 0.26169  0.01060  0.46340  Biso   1.000  O
  O98      1.0000 0.73831  0.01060  0.03660  Biso   1.000  O
  O99      1.0000 0.76169  0.51060  0.46340  Biso   1.000  O
  O100     1.0000 0.23831  0.51060  0.03660  Biso   1.000  O
  O101     1.0000 0.73831  0.98940  0.53660  Biso   1.000  O
  O102     1.0000 0.26169  0.98940  0.96340  Biso   1.000  O
  O103     1.0000 0.23831  0.48940  0.53660  Biso   1.000  O
  O104     1.0000 0.76169  0.48940  0.96340  Biso   1.000  O
  H257     1.0000 0.24620  0.99460  0.45590  Biso   1.000  H
  H258     1.0000 0.75380  0.99460  0.04410  Biso   1.000  H
  H259     1.0000 0.74620  0.49460  0.45590  Biso   1.000  H
  H260     1.0000 0.25380  0.49460  0.04410  Biso   1.000  H
  H261     1.0000 0.75380  0.00540  0.54410  Biso   1.000  H
  H262     1.0000 0.24620  0.00540  0.95590  Biso   1.000  H
  H263     1.0000 0.25380  0.50540  0.54410  Biso   1.000  H
  H264     1.0000 0.74620  0.50540  0.95590  Biso   1.000  H
  H265     1.0000 0.27010  0.94540  0.48380  Biso   1.000  H
  H266     1.0000 0.72990  0.94540  0.01620  Biso   1.000  H
  H267     1.0000 0.77010  0.44540  0.48380  Biso   1.000  H
  H268     1.0000 0.22990  0.44540  0.01620  Biso   1.000  H
  H269     1.0000 0.72990  0.05460  0.51620  Biso   1.000  H
  H270     1.0000 0.27010  0.05460  0.98380  Biso   1.000  H
  H271     1.0000 0.22990  0.55460  0.51620  Biso   1.000  H
  H272     1.0000 0.77010  0.55460  0.98380  Biso   1.000  H
  O105     1.0000 0.31131  0.06750  0.45090  Biso   1.000  O
  O106     1.0000 0.68869  0.06750  0.04910  Biso   1.000  O
  O107     1.0000 0.81131  0.56750  0.45090  Biso   1.000  O
  O108     1.0000 0.18869  0.56750  0.04910  Biso   1.000  O
  O109     1.0000 0.68869  0.93250  0.54910  Biso   1.000  O
  O110     1.0000 0.31131  0.93250  0.95090  Biso   1.000  O
  O111     1.0000 0.18869  0.43250  0.54910  Biso   1.000  O
  O112     1.0000 0.81131  0.43250  0.95090  Biso   1.000  O
  H273     1.0000 0.32170  0.00800  0.44770  Biso   1.000  H
  H274     1.0000 0.67830  0.00800  0.05230  Biso   1.000  H
  H275     1.0000 0.82170  0.50800  0.44770  Biso   1.000  H
  H276     1.0000 0.17830  0.50800  0.05230  Biso   1.000  H
  H277     1.0000 0.67830  0.99200  0.55230  Biso   1.000  H
  H278     1.0000 0.32170  0.99200  0.94770  Biso   1.000  H
  H279     1.0000 0.17830  0.49200  0.55230  Biso   1.000  H
  H280     1.0000 0.82170  0.49200  0.94770  Biso   1.000  H
  H281     1.0000 0.31770  0.14390  0.45060  Biso   1.000  H
  H282     1.0000 0.68230  0.14390  0.04940  Biso   1.000  H
  H283     1.0000 0.81770  0.64390  0.45060  Biso   1.000  H
  H284     1.0000 0.18230  0.64390  0.04940  Biso   1.000  H
  H285     1.0000 0.68230  0.85610  0.54940  Biso   1.000  H
  H286     1.0000 0.31770  0.85610  0.95060  Biso   1.000  H
  H287     1.0000 0.18230  0.35610  0.54940  Biso   1.000  H
  H288     1.0000 0.81770  0.35610  0.95060  Biso   1.000  H
  N1       1.0000 0.05643  0.91880  0.40860  Biso   1.000  N
  N2       1.0000 0.94357  0.91880  0.09140  Biso   1.000  N
  N3       1.0000 0.55643  0.41880  0.40860  Biso   1.000  N
  N4       1.0000 0.44357  0.41880  0.09140  Biso   1.000  N
  N5       1.0000 0.94357  0.08120  0.59140  Biso   1.000  N
  N6       1.0000 0.05643  0.08120  0.90860  Biso   1.000  N
  N7       1.0000 0.44357  0.58120  0.59140  Biso   1.000  N
  N8       1.0000 0.55643  0.58120  0.90860  Biso   1.000  N
  N9       1.0000 0.45113  0.59050  0.41990  Biso   1.000  N
  N10      1.0000 0.54887  0.59050  0.08010  Biso   1.000  N
  N11      1.0000 0.95113  0.09050  0.41990  Biso   1.000  N
  N12      1.0000 0.04887  0.09050  0.08010  Biso   1.000  N
  N13      1.0000 0.54887  0.40950  0.58010  Biso   1.000  N
  N14      1.0000 0.45113  0.40950  0.91990  Biso   1.000  N
  N15      1.0000 0.04887  0.90950  0.58010  Biso   1.000  N
  N16      1.0000 0.95113  0.90950  0.91990  Biso   1.000  N
  N17      1.0000 0.05649  0.03000  0.24700  Biso   1.000  N
  N18      1.0000 0.94351  0.03000  0.25300  Biso   1.000  N
  N19      1.0000 0.55649  0.53000  0.24700  Biso   1.000  N
  N20      1.0000 0.44351  0.53000  0.25300  Biso   1.000  N
  N21      1.0000 0.94351  0.97000  0.75300  Biso   1.000  N
  N22      1.0000 0.05649  0.97000  0.74700  Biso   1.000  N
  N23      1.0000 0.44351  0.47000  0.75300  Biso   1.000  N
  N24      1.0000 0.55649  0.47000  0.74700  Biso   1.000  N
  N25      1.0000 0.03306  0.48600  0.24570  Biso   1.000  N
  N26      1.0000 0.96694  0.48600  0.25430  Biso   1.000  N
  N27      1.0000 0.53306  0.98600  0.24570  Biso   1.000  N
  N28      1.0000 0.46694  0.98600  0.25430  Biso   1.000  N
  N29      1.0000 0.96694  0.51400  0.75430  Biso   1.000  N
  N30      1.0000 0.03306  0.51400  0.74570  Biso   1.000  N
  N31      1.0000 0.46694  0.01400  0.75430  Biso   1.000  N
  N32      1.0000 0.53306  0.01400  0.74570  Biso   1.000  N
  O113     1.0000 0.28030  0.29020  0.53710  Biso   1.000  O
  O114     1.0000 0.71970  0.29020  0.96290  Biso   1.000  O
  O115     1.0000 0.78030  0.79020  0.53710  Biso   1.000  O
  O116     1.0000 0.21970  0.79020  0.96290  Biso   1.000  O
  O117     1.0000 0.71970  0.70980  0.46290  Biso   1.000  O
  O118     1.0000 0.28030  0.70980  0.03710  Biso   1.000  O
  O119     1.0000 0.21970  0.20980  0.46290  Biso   1.000  O
  O120     1.0000 0.78030  0.20980  0.03710  Biso   1.000  O
  H289     1.0000 0.27670  0.35190  0.50840  Biso   1.000  H
  H290     1.0000 0.72330  0.35190  0.99160  Biso   1.000  H
  H291     1.0000 0.77670  0.85190  0.50840  Biso   1.000  H
  H292     1.0000 0.22330  0.85190  0.99160  Biso   1.000  H
  H293     1.0000 0.72330  0.64810  0.49160  Biso   1.000  H
  H294     1.0000 0.27670  0.64810  0.00840  Biso   1.000  H
  H295     1.0000 0.22330  0.14810  0.49160  Biso   1.000  H
  H296     1.0000 0.77670  0.14810  0.00840  Biso   1.000  H
  H297     1.0000 0.27280  0.30370  0.56680  Biso   1.000  H
  H298     1.0000 0.72720  0.30370  0.93320  Biso   1.000  H
  H299     1.0000 0.77280  0.80370  0.56680  Biso   1.000  H
  H300     1.0000 0.22720  0.80370  0.93320  Biso   1.000  H
  H301     1.0000 0.72720  0.69630  0.43320  Biso   1.000  H
  H302     1.0000 0.27280  0.69630  0.06680  Biso   1.000  H
  H303     1.0000 0.22720  0.19630  0.43320  Biso   1.000  H
  H304     1.0000 0.77280  0.19630  0.06680  Biso   1.000  H
  O121     1.0000 0.31780  0.17500  0.56200  Biso   1.000  O
  O122     1.0000 0.68220  0.17500  0.93800  Biso   1.000  O
  O123     1.0000 0.81780  0.67500  0.56200  Biso   1.000  O
  O124     1.0000 0.18220  0.67500  0.93800  Biso   1.000  O
  O125     1.0000 0.68220  0.82500  0.43800  Biso   1.000  O
  O126     1.0000 0.31780  0.82500  0.06200  Biso   1.000  O
  O127     1.0000 0.18220  0.32500  0.43800  Biso   1.000  O
  O128     1.0000 0.81780  0.32500  0.06200  Biso   1.000  O
  H305     1.0000 0.33070  0.22280  0.56650  Biso   1.000  H
  H306     1.0000 0.66930  0.22280  0.93350  Biso   1.000  H
  H307     1.0000 0.83070  0.72280  0.56650  Biso   1.000  H
  H308     1.0000 0.16930  0.72280  0.93350  Biso   1.000  H
  H309     1.0000 0.66930  0.77720  0.43350  Biso   1.000  H
  H310     1.0000 0.33070  0.77720  0.06650  Biso   1.000  H
  H311     1.0000 0.16930  0.27720  0.43350  Biso   1.000  H
  H312     1.0000 0.83070  0.27720  0.06650  Biso   1.000  H
  H313     1.0000 0.30590  0.22300  0.56640  Biso   1.000  H
  H314     1.0000 0.69410  0.22300  0.93360  Biso   1.000  H
  H315     1.0000 0.80590  0.72300  0.56640  Biso   1.000  H
  H316     1.0000 0.19410  0.72300  0.93360  Biso   1.000  H
  H317     1.0000 0.69410  0.77700  0.43360  Biso   1.000  H
  H318     1.0000 0.30590  0.77700  0.06640  Biso   1.000  H
  H319     1.0000 0.19410  0.27700  0.43360  Biso   1.000  H
  H320     1.0000 0.80590  0.27700  0.06640  Biso   1.000  H
  Cl1      1.0000 0.11333  0.35160  0.48702  Biso   1.000  Cl
  Cl2      1.0000 0.88667  0.35160  0.01298  Biso   1.000  Cl
  Cl3      1.0000 0.61333  0.85160  0.48702  Biso   1.000  Cl
  Cl4      1.0000 0.38667  0.85160  0.01298  Biso   1.000  Cl
  Cl5      1.0000 0.88667  0.64840  0.51298  Biso   1.000  Cl
  Cl6      1.0000 0.11333  0.64840  0.98702  Biso   1.000  Cl
  Cl7      1.0000 0.38667  0.14840  0.51298  Biso   1.000  Cl
  Cl8      1.0000 0.61333  0.14840  0.98702  Biso   1.000  Cl
  O129     1.0000 0.08791  0.36900  0.48040  Biso   1.000  O
  O130     1.0000 0.91209  0.36900  0.01960  Biso   1.000  O
  O131     1.0000 0.58791  0.86900  0.48040  Biso   1.000  O
  O132     1.0000 0.41209  0.86900  0.01960  Biso   1.000  O
  O133     1.0000 0.91209  0.63100  0.51960  Biso   1.000  O
  O134     1.0000 0.08791  0.63100  0.98040  Biso   1.000  O
  O135     1.0000 0.41209  0.13100  0.51960  Biso   1.000  O
  O136     1.0000 0.58791  0.13100  0.98040  Biso   1.000  O
  O137     1.0000 0.12330  0.24330  0.53260  Biso   1.000  O
  O138     1.0000 0.87670  0.24330  0.96740  Biso   1.000  O
  O139     1.0000 0.62330  0.74330  0.53260  Biso   1.000  O
  O140     1.0000 0.37670  0.74330  0.96740  Biso   1.000  O
  O141     1.0000 0.87670  0.75670  0.46740  Biso   1.000  O
  O142     1.0000 0.12330  0.75670  0.03260  Biso   1.000  O
  O143     1.0000 0.37670  0.25670  0.46740  Biso   1.000  O
  O144     1.0000 0.62330  0.25670  0.03260  Biso   1.000  O
  O145     1.0000 0.12850  0.46630  0.51400  Biso   1.000  O
  O146     1.0000 0.87150  0.46630  0.98600  Biso   1.000  O
  O147     1.0000 0.62850  0.96630  0.51400  Biso   1.000  O
  O148     1.0000 0.37150  0.96630  0.98600  Biso   1.000  O
  O149     1.0000 0.87150  0.53370  0.48600  Biso   1.000  O
  O150     1.0000 0.12850  0.53370  0.01400  Biso   1.000  O
  O151     1.0000 0.37150  0.03370  0.48600  Biso   1.000  O
  O152     1.0000 0.62850  0.03370  0.01400  Biso   1.000  O
  O153     1.0000 0.11880  0.31400  0.42570  Biso   1.000  O
  O154     1.0000 0.88120  0.31400  0.07430  Biso   1.000  O
  O155     1.0000 0.61880  0.81400  0.42570  Biso   1.000  O
  O156     1.0000 0.38120  0.81400  0.07430  Biso   1.000  O
  O157     1.0000 0.88120  0.68600  0.57430  Biso   1.000  O
  O158     1.0000 0.11880  0.68600  0.92570  Biso   1.000  O
  O159     1.0000 0.38120  0.18600  0.57430  Biso   1.000  O
  O160     1.0000 0.61880  0.18600  0.92570  Biso   1.000  O
  O161     1.0000 0.13930  0.33300  0.49500  Biso   1.000  O
  O162     1.0000 0.86070  0.33300  0.00500  Biso   1.000  O
  O163     1.0000 0.63930  0.83300  0.49500  Biso   1.000  O
  O164     1.0000 0.36070  0.83300  0.00500  Biso   1.000  O
  O165     1.0000 0.86070  0.66700  0.50500  Biso   1.000  O
  O166     1.0000 0.13930  0.66700  0.99500  Biso   1.000  O
  O167     1.0000 0.36070  0.16700  0.50500  Biso   1.000  O
  O168     1.0000 0.63930  0.16700  0.99500  Biso   1.000  O
  O169     1.0000 0.10740  0.48470  0.50330  Biso   1.000  O
  O170     1.0000 0.89260  0.48470  0.99670  Biso   1.000  O
  O171     1.0000 0.60740  0.98470  0.50330  Biso   1.000  O
  O172     1.0000 0.39260  0.98470  0.99670  Biso   1.000  O
  O173     1.0000 0.89260  0.51530  0.49670  Biso   1.000  O
  O174     1.0000 0.10740  0.51530  0.00330  Biso   1.000  O
  O175     1.0000 0.39260  0.01530  0.49670  Biso   1.000  O
  O176     1.0000 0.60740  0.01530  0.00330  Biso   1.000  O
  O177     1.0000 0.09880  0.32300  0.41980  Biso   1.000  O
  O178     1.0000 0.90120  0.32300  0.08020  Biso   1.000  O
  O179     1.0000 0.59880  0.82300  0.41980  Biso   1.000  O
  O180     1.0000 0.40120  0.82300  0.08020  Biso   1.000  O
  O181     1.0000 0.90120  0.67700  0.58020  Biso   1.000  O
  O182     1.0000 0.09880  0.67700  0.91980  Biso   1.000  O
  O183     1.0000 0.40120  0.17700  0.58020  Biso   1.000  O
  O184     1.0000 0.59880  0.17700  0.91980  Biso   1.000  O
  O185     1.0000 0.10430  0.26200  0.52900  Biso   1.000  O
  O186     1.0000 0.89570  0.26200  0.97100  Biso   1.000  O
  O187     1.0000 0.60430  0.76200  0.52900  Biso   1.000  O
  O188     1.0000 0.39570  0.76200  0.97100  Biso   1.000  O
  O189     1.0000 0.89570  0.73800  0.47100  Biso   1.000  O
  O190     1.0000 0.10430  0.73800  0.02900  Biso   1.000  O
  O191     1.0000 0.39570  0.23800  0.47100  Biso   1.000  O
  O192     1.0000 0.60430  0.23800  0.02900  Biso   1.000  O
  Cu29     1.0000 0.02015  0.02160  0.21230  Biso   1.000  Cu
  Cu30     1.0000 0.97985  0.02160  0.28770  Biso   1.000  Cu
  Cu31     1.0000 0.52015  0.52160  0.21230  Biso   1.000  Cu
  Cu32     1.0000 0.47985  0.52160  0.28770  Biso   1.000  Cu
  Cu33     1.0000 0.97985  0.97840  0.78770  Biso   1.000  Cu
  Cu34     1.0000 0.02015  0.97840  0.71230  Biso   1.000  Cu
  Cu35     1.0000 0.47985  0.47840  0.78770  Biso   1.000  Cu
  Cu36     1.0000 0.52015  0.47840  0.71230  Biso   1.000  Cu
