data_image0
_cell_length_a       26.359
_cell_length_b       15.14
_cell_length_c       20.434
_cell_angle_alpha    90
_cell_angle_beta     99.63
_cell_angle_gamma    90

_symmetry_space_group_name_H-M    "P 1"
_symmetry_int_tables_number       1

loop_
  _symmetry_equiv_pos_as_xyz
  'x, y, z'

loop_
  _atom_site_label
  _atom_site_occupancy
  _atom_site_fract_x
  _atom_site_fract_y
  _atom_site_fract_z
  _atom_site_thermal_displace_type
  _atom_site_B_iso_or_equiv
  _atom_site_type_symbol
  Gd1      1.0000 0.60226  0.20860  0.44736  Biso   1.000  Gd
  Gd2      1.0000 0.60226  0.79140  0.94736  Biso   1.000  Gd
  Gd3      1.0000 0.58650  0.47349  0.61941  Biso   1.000  Gd
  Gd4      1.0000 0.58650  0.52651  0.11941  Biso   1.000  Gd
  Gd5      1.0000 0.60901  0.68998  0.41021  Biso   1.000  Gd
  Gd6      1.0000 0.60901  0.31002  0.91021  Biso   1.000  Gd
  Gd7      1.0000 0.64480  0.92690  0.24087  Biso   1.000  Gd
  Gd8      1.0000 0.64480  0.07310  0.74087  Biso   1.000  Gd
  Cu1      1.0000 0.12659  0.20670  0.43025  Biso   1.000  Cu
  Cu2      1.0000 0.12659  0.79330  0.93025  Biso   1.000  Cu
  Cu3      1.0000 0.10433  0.70730  0.39510  Biso   1.000  Cu
  Cu4      1.0000 0.10433  0.29270  0.89510  Biso   1.000  Cu
  Cu5      1.0000 0.07413  0.80409  0.19143  Biso   1.000  Cu
  Cu6      1.0000 0.07413  0.19591  0.69143  Biso   1.000  Cu
  Cu7      1.0000 0.13779  0.95092  0.20977  Biso   1.000  Cu
  Cu8      1.0000 0.13779  0.04908  0.70977  Biso   1.000  Cu
  Cu9      1.0000 0.08401  0.05308  0.10829  Biso   1.000  Cu
  Cu10     1.0000 0.08401  0.94692  0.60829  Biso   1.000  Cu
  Cu11     1.0000 0.14285  0.19930  0.12975  Biso   1.000  Cu
  Cu12     1.0000 0.14285  0.80070  0.62975  Biso   1.000  Cu
  Cu13     1.0000 0.06667  0.29995  0.19553  Biso   1.000  Cu
  Cu14     1.0000 0.06667  0.70005  0.69553  Biso   1.000  Cu
  Cu15     1.0000 0.12536  0.44233  0.21102  Biso   1.000  Cu
  Cu16     1.0000 0.12536  0.55767  0.71102  Biso   1.000  Cu
  Cu17     1.0000 0.07252  0.55606  0.11092  Biso   1.000  Cu
  Cu18     1.0000 0.07252  0.44394  0.61092  Biso   1.000  Cu
  Cu19     1.0000 0.14489  0.69512  0.13785  Biso   1.000  Cu
  Cu20     1.0000 0.14489  0.30488  0.63785  Biso   1.000  Cu
  I1       1.0000 0.10153  0.87370  0.30891  Biso   1.000  I
  I2       1.0000 0.10153  0.12630  0.80891  Biso   1.000  I
  I3       1.0000 0.11501  0.87153  0.09479  Biso   1.000  I
  I4       1.0000 0.11501  0.12847  0.59479  Biso   1.000  I
  I5       1.0000 0.10164  0.12484  0.22681  Biso   1.000  I
  I6       1.0000 0.10164  0.87516  0.72681  Biso   1.000  I
  I7       1.0000 0.13420  0.10680  0.01810  Biso   1.000  I
  I8       1.0000 0.13420  0.89320  0.51810  Biso   1.000  I
  I9       1.0000 0.10395  0.36874  0.09403  Biso   1.000  I
  I10      1.0000 0.10395  0.63126  0.59403  Biso   1.000  I
  I11      1.0000 0.09117  0.37445  0.31289  Biso   1.000  I
  I12      1.0000 0.09117  0.62555  0.81289  Biso   1.000  I
  I13      1.0000 0.10064  0.62588  0.23197  Biso   1.000  I
  I14      1.0000 0.10064  0.37412  0.73197  Biso   1.000  I
  I15      1.0000 0.12032  0.62053  0.02114  Biso   1.000  I
  I16      1.0000 0.12032  0.37947  0.52114  Biso   1.000  I
  C1       1.0000 0.98440  0.98340  0.52560  Biso   1.000  C
  C2       1.0000 0.98440  0.01660  0.02560  Biso   1.000  C
  H1       1.0000 0.00500  0.98940  0.49310  Biso   1.000  H
  H2       1.0000 0.00500  0.01060  0.99310  Biso   1.000  H
  C3       1.0000 0.97580  0.96060  0.63130  Biso   1.000  C
  C4       1.0000 0.97580  0.03940  0.13130  Biso   1.000  C
  H3       1.0000 0.99140  0.95040  0.67500  Biso   1.000  H
  H4       1.0000 0.99140  0.04960  0.17500  Biso   1.000  H
  C5       1.0000 0.93040  0.99650  0.50760  Biso   1.000  C
  C6       1.0000 0.93040  0.00350  0.00760  Biso   1.000  C
  H5       1.0000 0.91620  0.00590  0.46340  Biso   1.000  H
  H6       1.0000 0.91620  0.99410  0.96340  Biso   1.000  H
  C7       1.0000 0.92300  0.97170  0.61870  Biso   1.000  C
  C8       1.0000 0.92300  0.02830  0.11870  Biso   1.000  C
  H7       1.0000 0.90340  0.96380  0.65200  Biso   1.000  H
  H8       1.0000 0.90340  0.03620  0.15200  Biso   1.000  H
  C9       1.0000 0.90000  0.99540  0.55400  Biso   1.000  C
  C10      1.0000 0.90000  0.00460  0.05400  Biso   1.000  C
  C11      1.0000 0.84320  0.01400  0.53720  Biso   1.000  C
  C12      1.0000 0.84320  0.98600  0.03720  Biso   1.000  C
  C13      1.0000 0.81720  0.00550  0.47420  Biso   1.000  C
  C14      1.0000 0.81720  0.99450  0.97420  Biso   1.000  C
  H9       1.0000 0.83450  0.98480  0.44120  Biso   1.000  H
  H10      1.0000 0.83450  0.01520  0.94120  Biso   1.000  H
  C15      1.0000 0.81730  0.04390  0.58540  Biso   1.000  C
  C16      1.0000 0.81730  0.95610  0.08540  Biso   1.000  C
  H11      1.0000 0.83420  0.04820  0.62910  Biso   1.000  H
  H12      1.0000 0.83420  0.95180  0.12910  Biso   1.000  H
  C17      1.0000 0.76440  0.02730  0.45770  Biso   1.000  C
  C18      1.0000 0.76440  0.97270  0.95770  Biso   1.000  C
  H13      1.0000 0.74680  0.02000  0.41470  Biso   1.000  H
  H14      1.0000 0.74680  0.98000  0.91470  Biso   1.000  H
  C19      1.0000 0.76390  0.06880  0.56860  Biso   1.000  C
  C20      1.0000 0.76390  0.93120  0.06860  Biso   1.000  C
  H15      1.0000 0.74630  0.09120  0.60080  Biso   1.000  H
  H16      1.0000 0.74630  0.90880  0.10080  Biso   1.000  H
  C21      1.0000 0.74050  0.05910  0.50620  Biso   1.000  C
  C22      1.0000 0.74050  0.94090  0.00620  Biso   1.000  C
  C23      1.0000 0.68720  0.09640  0.48770  Biso   1.000  C
  C24      1.0000 0.68720  0.90360  0.98770  Biso   1.000  C
  C25      1.0000 0.53100  0.09680  0.37460  Biso   1.000  C
  C26      1.0000 0.53100  0.90320  0.87460  Biso   1.000  C
  C27      1.0000 0.47830  0.06240  0.34230  Biso   1.000  C
  C28      1.0000 0.47830  0.93760  0.84230  Biso   1.000  C
  C29      1.0000 0.45730  0.08130  0.27750  Biso   1.000  C
  C30      1.0000 0.45730  0.91870  0.77750  Biso   1.000  C
  H17      1.0000 0.47740  0.10870  0.25020  Biso   1.000  H
  H18      1.0000 0.47740  0.89130  0.75020  Biso   1.000  H
  C31      1.0000 0.45070  0.01640  0.38180  Biso   1.000  C
  C32      1.0000 0.45070  0.98360  0.88180  Biso   1.000  C
  H19      1.0000 0.46570  0.00030  0.42450  Biso   1.000  H
  H20      1.0000 0.46570  0.99970  0.92450  Biso   1.000  H
  C33      1.0000 0.40670  0.06000  0.25250  Biso   1.000  C
  C34      1.0000 0.40670  0.94000  0.75250  Biso   1.000  C
  H21      1.0000 0.39310  0.07210  0.20840  Biso   1.000  H
  H22      1.0000 0.39310  0.92790  0.70840  Biso   1.000  H
  C35      1.0000 0.39940  0.99360  0.35730  Biso   1.000  C
  C36      1.0000 0.39940  0.00640  0.85730  Biso   1.000  C
  H23      1.0000 0.38080  0.96060  0.38350  Biso   1.000  H
  H24      1.0000 0.38080  0.03940  0.88350  Biso   1.000  H
  C37      1.0000 0.37610  0.02030  0.29360  Biso   1.000  C
  C38      1.0000 0.37610  0.97970  0.79360  Biso   1.000  C
  C39      1.0000 0.32060  0.00240  0.27250  Biso   1.000  C
  C40      1.0000 0.32060  0.99760  0.77250  Biso   1.000  C
  C41      1.0000 0.29840  0.99480  0.20510  Biso   1.000  C
  C42      1.0000 0.29840  0.00520  0.70510  Biso   1.000  C
  H25      1.0000 0.31850  0.99950  0.17190  Biso   1.000  H
  H26      1.0000 0.31850  0.00050  0.67190  Biso   1.000  H
  C43      1.0000 0.28750  0.00040  0.31780  Biso   1.000  C
  C44      1.0000 0.28750  0.99960  0.81780  Biso   1.000  C
  H27      1.0000 0.29970  0.01270  0.36230  Biso   1.000  H
  H28      1.0000 0.29970  0.98730  0.86230  Biso   1.000  H
  C45      1.0000 0.24540  0.98020  0.18930  Biso   1.000  C
  C46      1.0000 0.24540  0.01980  0.68930  Biso   1.000  C
  H29      1.0000 0.23110  0.97470  0.14470  Biso   1.000  H
  H30      1.0000 0.23110  0.02530  0.64470  Biso   1.000  H
  C47      1.0000 0.23530  0.97980  0.29750  Biso   1.000  C
  C48      1.0000 0.23530  0.02020  0.79750  Biso   1.000  C
  H31      1.0000 0.21450  0.97010  0.32930  Biso   1.000  H
  H32      1.0000 0.21450  0.02990  0.82930  Biso   1.000  H
  C49      1.0000 0.97480  0.22490  0.59890  Biso   1.000  C
  C50      1.0000 0.97480  0.77510  0.09890  Biso   1.000  C
  H33      1.0000 0.99450  0.21990  0.56540  Biso   1.000  H
  H34      1.0000 0.99450  0.78010  0.06540  Biso   1.000  H
  C51      1.0000 0.96720  0.21940  0.70680  Biso   1.000  C
  C52      1.0000 0.96720  0.78060  0.20680  Biso   1.000  C
  H35      1.0000 0.98120  0.20950  0.75100  Biso   1.000  H
  H36      1.0000 0.98120  0.79050  0.25100  Biso   1.000  H
  C53      1.0000 0.92270  0.24360  0.58300  Biso   1.000  C
  C54      1.0000 0.92270  0.75640  0.08300  Biso   1.000  C
  H37      1.0000 0.90880  0.24970  0.53830  Biso   1.000  H
  H38      1.0000 0.90880  0.75030  0.03830  Biso   1.000  H
  C55      1.0000 0.91400  0.23980  0.69020  Biso   1.000  C
  C56      1.0000 0.91400  0.76020  0.19020  Biso   1.000  C
  H39      1.0000 0.89410  0.24390  0.72370  Biso   1.000  H
  H40      1.0000 0.89410  0.75610  0.22370  Biso   1.000  H
  C57      1.0000 0.89180  0.25310  0.62640  Biso   1.000  C
  C58      1.0000 0.89180  0.74690  0.12640  Biso   1.000  C
  C59      1.0000 0.83560  0.27720  0.61080  Biso   1.000  C
  C60      1.0000 0.83560  0.72280  0.11080  Biso   1.000  C
  C61      1.0000 0.81180  0.28010  0.54480  Biso   1.000  C
  C62      1.0000 0.81180  0.71990  0.04480  Biso   1.000  C
  H41      1.0000 0.83100  0.26900  0.51140  Biso   1.000  H
  H42      1.0000 0.83100  0.73100  0.01140  Biso   1.000  H
  C63      1.0000 0.80790  0.29060  0.65850  Biso   1.000  C
  C64      1.0000 0.80790  0.70940  0.15850  Biso   1.000  C
  H43      1.0000 0.82330  0.28410  0.70260  Biso   1.000  H
  H44      1.0000 0.82330  0.71590  0.20260  Biso   1.000  H
  C65      1.0000 0.75930  0.29940  0.52780  Biso   1.000  C
  C66      1.0000 0.75930  0.70060  0.02780  Biso   1.000  C
  H45      1.0000 0.74340  0.30080  0.48360  Biso   1.000  H
  H46      1.0000 0.74340  0.69920  0.98360  Biso   1.000  H
  C67      1.0000 0.75520  0.31470  0.64340  Biso   1.000  C
  C68      1.0000 0.75520  0.68530  0.14340  Biso   1.000  C
  H47      1.0000 0.73670  0.32900  0.67700  Biso   1.000  H
  H48      1.0000 0.73670  0.67100  0.17700  Biso   1.000  H
  C69      1.0000 0.73200  0.31620  0.57780  Biso   1.000  C
  C70      1.0000 0.73200  0.68380  0.07780  Biso   1.000  C
  C71      1.0000 0.67630  0.34130  0.56000  Biso   1.000  C
  C72      1.0000 0.67630  0.65870  0.06000  Biso   1.000  C
  C73      1.0000 0.52840  0.26890  0.55900  Biso   1.000  C
  C74      1.0000 0.52840  0.73110  0.05900  Biso   1.000  C
  C75      1.0000 0.47240  0.25970  0.53880  Biso   1.000  C
  C76      1.0000 0.47240  0.74030  0.03880  Biso   1.000  C
  C77      1.0000 0.45190  0.17500  0.51770  Biso   1.000  C
  C78      1.0000 0.45190  0.82500  0.01770  Biso   1.000  C
  H49      1.0000 0.47340  0.12620  0.51840  Biso   1.000  H
  H50      1.0000 0.47340  0.87380  0.01840  Biso   1.000  H
  C79      1.0000 0.43900  0.33110  0.53950  Biso   1.000  C
  C80      1.0000 0.43900  0.66890  0.03950  Biso   1.000  C
  H51      1.0000 0.45180  0.38610  0.55450  Biso   1.000  H
  H52      1.0000 0.45180  0.61390  0.05450  Biso   1.000  H
  C81      1.0000 0.39950  0.16710  0.49620  Biso   1.000  C
  C82      1.0000 0.39950  0.83290  0.99620  Biso   1.000  C
  H53      1.0000 0.38670  0.11220  0.48100  Biso   1.000  H
  H54      1.0000 0.38670  0.88780  0.98100  Biso   1.000  H
  C83      1.0000 0.38640  0.31960  0.51780  Biso   1.000  C
  C84      1.0000 0.38640  0.68040  0.01780  Biso   1.000  C
  H55      1.0000 0.36460  0.36790  0.51750  Biso   1.000  H
  H56      1.0000 0.36460  0.63210  0.01750  Biso   1.000  H
  C85      1.0000 0.36500  0.23620  0.49590  Biso   1.000  C
  C86      1.0000 0.36500  0.76380  0.99590  Biso   1.000  C
  C87      1.0000 0.30910  0.22670  0.47590  Biso   1.000  C
  C88      1.0000 0.30910  0.77330  0.97590  Biso   1.000  C
  C89      1.0000 0.28400  0.15040  0.48840  Biso   1.000  C
  C90      1.0000 0.28400  0.84960  0.98840  Biso   1.000  C
  H57      1.0000 0.30240  0.10270  0.50880  Biso   1.000  H
  H58      1.0000 0.30240  0.89730  0.00880  Biso   1.000  H
  C91      1.0000 0.27790  0.29600  0.44810  Biso   1.000  C
  C92      1.0000 0.27790  0.70400  0.94810  Biso   1.000  C
  H59      1.0000 0.29330  0.34940  0.44010  Biso   1.000  H
  H60      1.0000 0.29330  0.65060  0.94010  Biso   1.000  H
  C93      1.0000 0.23070  0.14530  0.47040  Biso   1.000  C
  C94      1.0000 0.23070  0.85470  0.97040  Biso   1.000  C
  H61      1.0000 0.21440  0.09230  0.47700  Biso   1.000  H
  H62      1.0000 0.21440  0.90770  0.97700  Biso   1.000  H
  C95      1.0000 0.22530  0.28870  0.43200  Biso   1.000  C
  C96      1.0000 0.22530  0.71130  0.93200  Biso   1.000  C
  H63      1.0000 0.20630  0.33650  0.41270  Biso   1.000  H
  H64      1.0000 0.20630  0.66350  0.91270  Biso   1.000  H
  C97      1.0000 0.97510  0.48530  0.65370  Biso   1.000  C
  C98      1.0000 0.97510  0.51470  0.15370  Biso   1.000  C
  H65      1.0000 0.99560  0.48850  0.69540  Biso   1.000  H
  H66      1.0000 0.99560  0.51150  0.19540  Biso   1.000  H
  C99      1.0000 0.96570  0.47050  0.54410  Biso   1.000  C
  C100     1.0000 0.96570  0.52950  0.04410  Biso   1.000  C
  H67      1.0000 0.98020  0.45920  0.50650  Biso   1.000  H
  H68      1.0000 0.98020  0.54080  0.00650  Biso   1.000  H
  C101     1.0000 0.92280  0.50020  0.64810  Biso   1.000  C
  C102     1.0000 0.92280  0.49980  0.14810  Biso   1.000  C
  H69      1.0000 0.90870  0.50880  0.68640  Biso   1.000  H
  H70      1.0000 0.90870  0.49120  0.18640  Biso   1.000  H
  C103     1.0000 0.91490  0.48900  0.53400  Biso   1.000  C
  C104     1.0000 0.91490  0.51100  0.03400  Biso   1.000  C
  H71      1.0000 0.89660  0.49240  0.49100  Biso   1.000  H
  H72      1.0000 0.89660  0.50760  0.99100  Biso   1.000  H
  C105     1.0000 0.89060  0.50250  0.58660  Biso   1.000  C
  C106     1.0000 0.89060  0.49750  0.08660  Biso   1.000  C
  C107     1.0000 0.83380  0.52600  0.58020  Biso   1.000  C
  C108     1.0000 0.83380  0.47400  0.08020  Biso   1.000  C
  C109     1.0000 0.81090  0.53760  0.63420  Biso   1.000  C
  C110     1.0000 0.81090  0.46240  0.13420  Biso   1.000  C
  H73      1.0000 0.83000  0.53250  0.67650  Biso   1.000  H
  H74      1.0000 0.83000  0.46750  0.17650  Biso   1.000  H
  C111     1.0000 0.80410  0.53240  0.51950  Biso   1.000  C
  C112     1.0000 0.80410  0.46760  0.01950  Biso   1.000  C
  H75      1.0000 0.81850  0.51990  0.48190  Biso   1.000  H
  H76      1.0000 0.81850  0.48010  0.98190  Biso   1.000  H
  C113     1.0000 0.75860  0.55720  0.62630  Biso   1.000  C
  C114     1.0000 0.75860  0.44280  0.12630  Biso   1.000  C
  H77      1.0000 0.74300  0.56290  0.66370  Biso   1.000  H
  H78      1.0000 0.74300  0.43710  0.16370  Biso   1.000  H
  C115     1.0000 0.75400  0.55660  0.51240  Biso   1.000  C
  C116     1.0000 0.75400  0.44340  0.01240  Biso   1.000  C
  H79      1.0000 0.73560  0.56560  0.46990  Biso   1.000  H
  H80      1.0000 0.73560  0.43440  0.96990  Biso   1.000  H
  C117     1.0000 0.73000  0.56820  0.56490  Biso   1.000  C
  C118     1.0000 0.73000  0.43180  0.06490  Biso   1.000  C
  C119     1.0000 0.67460  0.58730  0.55640  Biso   1.000  C
  C120     1.0000 0.67460  0.41270  0.05640  Biso   1.000  C
  C121     1.0000 0.52750  0.35080  0.35030  Biso   1.000  C
  C122     1.0000 0.52750  0.64920  0.85030  Biso   1.000  C
  C123     1.0000 0.47460  0.32470  0.31740  Biso   1.000  C
  C124     1.0000 0.47460  0.67530  0.81740  Biso   1.000  C
  C125     1.0000 0.44030  0.28280  0.35550  Biso   1.000  C
  C126     1.0000 0.44030  0.71720  0.85550  Biso   1.000  C
  H81      1.0000 0.45120  0.26930  0.40000  Biso   1.000  H
  H82      1.0000 0.45120  0.73070  0.90000  Biso   1.000  H
  C127     1.0000 0.45820  0.34080  0.25190  Biso   1.000  C
  C128     1.0000 0.45820  0.65920  0.75190  Biso   1.000  C
  H83      1.0000 0.48050  0.36690  0.22670  Biso   1.000  H
  H84      1.0000 0.48050  0.63310  0.72670  Biso   1.000  H
  C129     1.0000 0.39110  0.26300  0.32520  Biso   1.000  C
  C130     1.0000 0.39110  0.73700  0.82520  Biso   1.000  C
  H85      1.0000 0.36870  0.23680  0.35000  Biso   1.000  H
  H86      1.0000 0.36870  0.76320  0.85000  Biso   1.000  H
  C131     1.0000 0.40800  0.31830  0.22190  Biso   1.000  C
  C132     1.0000 0.40800  0.68170  0.72190  Biso   1.000  C
  H87      1.0000 0.39780  0.32880  0.17680  Biso   1.000  H
  H88      1.0000 0.39780  0.67120  0.67680  Biso   1.000  H
  C133     1.0000 0.37370  0.28130  0.25760  Biso   1.000  C
  C134     1.0000 0.37370  0.71870  0.75760  Biso   1.000  C
  C135     1.0000 0.31970  0.25830  0.22790  Biso   1.000  C
  C136     1.0000 0.31970  0.74170  0.72790  Biso   1.000  C
  C137     1.0000 0.27980  0.25310  0.26380  Biso   1.000  C
  C138     1.0000 0.27980  0.74690  0.76380  Biso   1.000  C
  H89      1.0000 0.28690  0.26230  0.30950  Biso   1.000  H
  H90      1.0000 0.28690  0.73770  0.80950  Biso   1.000  H
  C139     1.0000 0.30720  0.23960  0.16090  Biso   1.000  C
  C140     1.0000 0.30720  0.76040  0.66090  Biso   1.000  C
  H91      1.0000 0.33270  0.23720  0.13460  Biso   1.000  H
  H92      1.0000 0.33270  0.76280  0.63460  Biso   1.000  H
  C141     1.0000 0.23060  0.23510  0.23510  Biso   1.000  C
  C142     1.0000 0.23060  0.76490  0.73510  Biso   1.000  C
  H93      1.0000 0.20550  0.23280  0.26200  Biso   1.000  H
  H94      1.0000 0.20550  0.76720  0.76200  Biso   1.000  H
  C143     1.0000 0.25540  0.22430  0.13290  Biso   1.000  C
  C144     1.0000 0.25540  0.77570  0.63290  Biso   1.000  C
  H95      1.0000 0.24710  0.21660  0.08730  Biso   1.000  H
  H96      1.0000 0.24710  0.78340  0.58730  Biso   1.000  H
  C145     1.0000 0.95640  0.72620  0.70640  Biso   1.000  C
  C146     1.0000 0.95640  0.27380  0.20640  Biso   1.000  C
  H97      1.0000 0.96820  0.71640  0.75120  Biso   1.000  H
  H98      1.0000 0.96820  0.28360  0.25120  Biso   1.000  H
  C147     1.0000 0.97100  0.72590  0.59990  Biso   1.000  C
  C148     1.0000 0.97100  0.27410  0.09990  Biso   1.000  C
  H99      1.0000 0.99280  0.71850  0.56890  Biso   1.000  H
  H100     1.0000 0.99280  0.28150  0.06890  Biso   1.000  H
  C149     1.0000 0.90440  0.74740  0.68690  Biso   1.000  C
  C150     1.0000 0.90440  0.25260  0.18690  Biso   1.000  C
  H101     1.0000 0.88340  0.75620  0.71860  Biso   1.000  H
  H102     1.0000 0.88340  0.24380  0.21860  Biso   1.000  H
  C151     1.0000 0.91940  0.74350  0.57720  Biso   1.000  C
  C152     1.0000 0.91940  0.25650  0.07720  Biso   1.000  C
  H103     1.0000 0.90770  0.74780  0.53180  Biso   1.000  H
  H104     1.0000 0.90770  0.25220  0.03180  Biso   1.000  H
  C153     1.0000 0.88480  0.75500  0.62120  Biso   1.000  C
  C154     1.0000 0.88480  0.24500  0.12120  Biso   1.000  C
  C155     1.0000 0.82870  0.77420  0.59310  Biso   1.000  C
  C156     1.0000 0.82870  0.22580  0.09310  Biso   1.000  C
  C157     1.0000 0.79930  0.79830  0.63610  Biso   1.000  C
  C158     1.0000 0.79930  0.20170  0.13610  Biso   1.000  C
  H105     1.0000 0.81240  0.80140  0.68120  Biso   1.000  H
  H106     1.0000 0.81240  0.19860  0.18120  Biso   1.000  H
  C159     1.0000 0.81000  0.76900  0.52990  Biso   1.000  C
  C160     1.0000 0.81000  0.23100  0.02990  Biso   1.000  C
  H107     1.0000 0.83110  0.75280  0.49980  Biso   1.000  H
  H108     1.0000 0.83110  0.24720  0.99980  Biso   1.000  H
  C161     1.0000 0.74620  0.81960  0.61160  Biso   1.000  C
  C162     1.0000 0.74620  0.18040  0.11160  Biso   1.000  C
  H109     1.0000 0.72470  0.83750  0.64090  Biso   1.000  H
  H110     1.0000 0.72470  0.16250  0.14090  Biso   1.000  H
  C163     1.0000 0.75790  0.78820  0.50730  Biso   1.000  C
  C164     1.0000 0.75790  0.21180  0.00730  Biso   1.000  C
  H111     1.0000 0.74440  0.78240  0.46250  Biso   1.000  H
  H112     1.0000 0.74440  0.21760  0.96250  Biso   1.000  H
  C165     1.0000 0.72850  0.81380  0.54860  Biso   1.000  C
  C166     1.0000 0.72850  0.18620  0.04860  Biso   1.000  C
  C167     1.0000 0.66930  0.83180  0.51980  Biso   1.000  C
  C168     1.0000 0.66930  0.16820  0.01980  Biso   1.000  C
  C169     1.0000 0.48990  0.56390  0.58670  Biso   1.000  C
  C170     1.0000 0.48990  0.43610  0.08670  Biso   1.000  C
  C171     1.0000 0.43440  0.58790  0.55710  Biso   1.000  C
  C172     1.0000 0.43440  0.41210  0.05710  Biso   1.000  C
  C173     1.0000 0.39480  0.54040  0.57610  Biso   1.000  C
  C174     1.0000 0.39480  0.45960  0.07610  Biso   1.000  C
  H113     1.0000 0.40220  0.49710  0.60860  Biso   1.000  H
  H114     1.0000 0.40220  0.50290  0.10860  Biso   1.000  H
  C175     1.0000 0.42400  0.65500  0.51200  Biso   1.000  C
  C176     1.0000 0.42400  0.34500  0.01200  Biso   1.000  C
  H115     1.0000 0.45070  0.68870  0.50080  Biso   1.000  H
  H116     1.0000 0.45070  0.31130  0.00080  Biso   1.000  H
  C177     1.0000 0.34430  0.55590  0.54780  Biso   1.000  C
  C178     1.0000 0.34430  0.44410  0.04780  Biso   1.000  C
  H117     1.0000 0.31800  0.52110  0.55930  Biso   1.000  H
  H118     1.0000 0.31800  0.47890  0.05930  Biso   1.000  H
  C179     1.0000 0.37250  0.67330  0.48230  Biso   1.000  C
  C180     1.0000 0.37250  0.32670  0.98230  Biso   1.000  C
  H119     1.0000 0.36540  0.71740  0.45040  Biso   1.000  H
  H120     1.0000 0.36540  0.28260  0.95040  Biso   1.000  H
  C181     1.0000 0.33280  0.62420  0.50150  Biso   1.000  C
  C182     1.0000 0.33280  0.37580  0.00150  Biso   1.000  C
  C183     1.0000 0.27930  0.64680  0.47410  Biso   1.000  C
  C184     1.0000 0.27930  0.35320  0.97410  Biso   1.000  C
  C185     1.0000 0.24140  0.58170  0.47510  Biso   1.000  C
  C186     1.0000 0.24140  0.41830  0.97510  Biso   1.000  C
  H121     1.0000 0.25000  0.52560  0.49200  Biso   1.000  H
  H122     1.0000 0.25000  0.47440  0.99200  Biso   1.000  H
  C187     1.0000 0.26330  0.72380  0.44630  Biso   1.000  C
  C188     1.0000 0.26330  0.27620  0.94630  Biso   1.000  C
  H123     1.0000 0.28690  0.76900  0.44400  Biso   1.000  H
  H124     1.0000 0.28690  0.23100  0.94400  Biso   1.000  H
  C189     1.0000 0.18810  0.60460  0.44900  Biso   1.000  C
  C190     1.0000 0.18810  0.39540  0.94900  Biso   1.000  C
  H125     1.0000 0.16250  0.56310  0.45170  Biso   1.000  H
  H126     1.0000 0.16250  0.43690  0.95170  Biso   1.000  H
  C191     1.0000 0.21180  0.73660  0.42070  Biso   1.000  C
  C192     1.0000 0.21180  0.26340  0.92070  Biso   1.000  C
  H127     1.0000 0.20260  0.79070  0.40050  Biso   1.000  H
  H128     1.0000 0.20260  0.20930  0.90050  Biso   1.000  H
  C193     1.0000 0.00230  0.63460  0.36980  Biso   1.000  C
  C194     1.0000 0.00230  0.36540  0.86980  Biso   1.000  C
  H129     1.0000 0.01890  0.58280  0.36120  Biso   1.000  H
  H130     1.0000 0.01890  0.41720  0.86120  Biso   1.000  H
  C195     1.0000 0.00900  0.76900  0.41290  Biso   1.000  C
  C196     1.0000 0.00900  0.23100  0.91290  Biso   1.000  C
  H131     1.0000 0.02880  0.81530  0.43330  Biso   1.000  H
  H132     1.0000 0.02880  0.18470  0.93330  Biso   1.000  H
  C197     1.0000 0.94850  0.63430  0.35800  Biso   1.000  C
  C198     1.0000 0.94850  0.36570  0.85800  Biso   1.000  C
  H133     1.0000 0.92990  0.58610  0.33860  Biso   1.000  H
  H134     1.0000 0.92990  0.41390  0.83860  Biso   1.000  H
  C199     1.0000 0.95540  0.77540  0.40600  Biso   1.000  C
  C200     1.0000 0.95540  0.22460  0.90600  Biso   1.000  C
  H135     1.0000 0.94070  0.82530  0.42160  Biso   1.000  H
  H136     1.0000 0.94070  0.17470  0.92160  Biso   1.000  H
  C201     1.0000 0.92430  0.70880  0.37640  Biso   1.000  C
  C202     1.0000 0.92430  0.29120  0.87640  Biso   1.000  C
  C203     1.0000 0.86810  0.71540  0.36500  Biso   1.000  C
  C204     1.0000 0.86810  0.28460  0.86500  Biso   1.000  C
  C205     1.0000 0.83590  0.64220  0.35650  Biso   1.000  C
  C206     1.0000 0.83590  0.35780  0.85650  Biso   1.000  C
  H137     1.0000 0.85050  0.58630  0.35770  Biso   1.000  H
  H138     1.0000 0.85050  0.41370  0.85770  Biso   1.000  H
  C207     1.0000 0.84520  0.80240  0.35980  Biso   1.000  C
  C208     1.0000 0.84520  0.19760  0.85980  Biso   1.000  C
  H139     1.0000 0.86600  0.85240  0.36590  Biso   1.000  H
  H140     1.0000 0.86600  0.14760  0.86590  Biso   1.000  H
  C209     1.0000 0.78310  0.64940  0.34650  Biso   1.000  C
  C210     1.0000 0.78310  0.35060  0.84650  Biso   1.000  C
  H141     1.0000 0.76260  0.59910  0.34310  Biso   1.000  H
  H142     1.0000 0.76260  0.40090  0.84310  Biso   1.000  H
  C211     1.0000 0.79270  0.81110  0.34610  Biso   1.000  C
  C212     1.0000 0.79270  0.18890  0.84610  Biso   1.000  C
  H143     1.0000 0.77800  0.86690  0.33980  Biso   1.000  H
  H144     1.0000 0.77800  0.13310  0.83980  Biso   1.000  H
  C213     1.0000 0.76030  0.73400  0.34140  Biso   1.000  C
  C214     1.0000 0.76030  0.26600  0.84140  Biso   1.000  C
  C215     1.0000 0.70400  0.74730  0.32920  Biso   1.000  C
  C216     1.0000 0.70400  0.25270  0.82920  Biso   1.000  C
  C217     1.0000 0.51930  0.59520  0.34980  Biso   1.000  C
  C218     1.0000 0.51930  0.40480  0.84980  Biso   1.000  C
  C219     1.0000 0.46610  0.56390  0.32690  Biso   1.000  C
  C220     1.0000 0.46610  0.43610  0.82690  Biso   1.000  C
  C221     1.0000 0.43910  0.52630  0.37290  Biso   1.000  C
  C222     1.0000 0.43910  0.47370  0.87290  Biso   1.000  C
  H145     1.0000 0.45520  0.51540  0.41630  Biso   1.000  H
  H146     1.0000 0.45520  0.48460  0.91630  Biso   1.000  H
  C223     1.0000 0.44260  0.58000  0.26170  Biso   1.000  C
  C224     1.0000 0.44260  0.42000  0.76170  Biso   1.000  C
  H147     1.0000 0.46070  0.60500  0.23090  Biso   1.000  H
  H148     1.0000 0.46070  0.39500  0.73090  Biso   1.000  H
  C225     1.0000 0.38850  0.50570  0.35270  Biso   1.000  C
  C226     1.0000 0.38850  0.49430  0.85270  Biso   1.000  C
  H149     1.0000 0.37010  0.47970  0.38280  Biso   1.000  H
  H150     1.0000 0.37010  0.52030  0.88280  Biso   1.000  H
  C227     1.0000 0.39050  0.55690  0.24430  Biso   1.000  C
  C228     1.0000 0.39050  0.44310  0.74430  Biso   1.000  C
  H151     1.0000 0.37440  0.56590  0.20070  Biso   1.000  H
  H152     1.0000 0.37440  0.43410  0.70070  Biso   1.000  H
  C229     1.0000 0.36300  0.52300  0.28690  Biso   1.000  C
  C230     1.0000 0.36300  0.47700  0.78690  Biso   1.000  C
  C231     1.0000 0.30700  0.50120  0.26760  Biso   1.000  C
  C232     1.0000 0.30700  0.49880  0.76760  Biso   1.000  C
  C233     1.0000 0.27390  0.51150  0.31220  Biso   1.000  C
  C234     1.0000 0.27390  0.48850  0.81220  Biso   1.000  C
  H153     1.0000 0.28580  0.53270  0.35470  Biso   1.000  H
  H154     1.0000 0.28580  0.46730  0.85470  Biso   1.000  H
  C235     1.0000 0.28500  0.47670  0.20400  Biso   1.000  C
  C236     1.0000 0.28500  0.52330  0.70400  Biso   1.000  C
  H155     1.0000 0.30550  0.47050  0.17130  Biso   1.000  H
  H156     1.0000 0.30550  0.52950  0.67130  Biso   1.000  H
  C237     1.0000 0.22320  0.49000  0.29320  Biso   1.000  C
  C238     1.0000 0.22320  0.51000  0.79320  Biso   1.000  C
  H157     1.0000 0.20200  0.49250  0.32530  Biso   1.000  H
  H158     1.0000 0.20200  0.50750  0.82530  Biso   1.000  H
  C239     1.0000 0.23270  0.46140  0.18890  Biso   1.000  C
  C240     1.0000 0.23270  0.53860  0.68890  Biso   1.000  C
  H159     1.0000 0.21840  0.44690  0.14550  Biso   1.000  H
  H160     1.0000 0.21840  0.55310  0.64550  Biso   1.000  H
  C241     1.0000 0.04760  0.08620  0.38020  Biso   1.000  C
  C242     1.0000 0.04760  0.91380  0.88020  Biso   1.000  C
  H161     1.0000 0.07470  0.04740  0.37830  Biso   1.000  H
  H162     1.0000 0.07470  0.95260  0.87830  Biso   1.000  H
  C243     1.0000 0.01740  0.21710  0.40690  Biso   1.000  C
  C244     1.0000 0.01740  0.78290  0.90690  Biso   1.000  C
  H163     1.0000 0.02250  0.27360  0.42460  Biso   1.000  H
  H164     1.0000 0.02250  0.72640  0.92460  Biso   1.000  H
  C245     1.0000 0.99860  0.05830  0.35610  Biso   1.000  C
  C246     1.0000 0.99860  0.94170  0.85610  Biso   1.000  C
  H165     1.0000 0.99350  0.00110  0.33990  Biso   1.000  H
  H166     1.0000 0.99350  0.99890  0.83990  Biso   1.000  H
  C247     1.0000 0.96750  0.19010  0.38240  Biso   1.000  C
  C248     1.0000 0.96750  0.80990  0.88240  Biso   1.000  C
  H167     1.0000 0.94050  0.22870  0.38520  Biso   1.000  H
  H168     1.0000 0.94050  0.77130  0.88520  Biso   1.000  H
  C249     1.0000 0.95680  0.11220  0.35540  Biso   1.000  C
  C250     1.0000 0.95680  0.88780  0.85540  Biso   1.000  C
  C251     1.0000 0.90270  0.08460  0.32700  Biso   1.000  C
  C252     1.0000 0.90270  0.91540  0.82700  Biso   1.000  C
  C253     1.0000 0.89150  0.00370  0.28750  Biso   1.000  C
  C254     1.0000 0.89150  0.99630  0.78750  Biso   1.000  C
  H169     1.0000 0.91860  0.96930  0.27790  Biso   1.000  H
  H170     1.0000 0.91860  0.03070  0.77790  Biso   1.000  H
  C255     1.0000 0.86150  0.13070  0.33740  Biso   1.000  C
  C256     1.0000 0.86150  0.86930  0.83740  Biso   1.000  C
  H171     1.0000 0.86680  0.18300  0.36150  Biso   1.000  H
  H172     1.0000 0.86680  0.81700  0.86150  Biso   1.000  H
  C257     1.0000 0.84180  0.97800  0.26450  Biso   1.000  C
  C258     1.0000 0.84180  0.02200  0.76450  Biso   1.000  C
  H173     1.0000 0.83460  0.92590  0.24070  Biso   1.000  H
  H174     1.0000 0.83460  0.07410  0.74070  Biso   1.000  H
  C259     1.0000 0.81050  0.10440  0.31390  Biso   1.000  C
  C260     1.0000 0.81050  0.89560  0.81390  Biso   1.000  C
  H175     1.0000 0.78330  0.13790  0.32390  Biso   1.000  H
  H176     1.0000 0.78330  0.86210  0.82390  Biso   1.000  H
  C261     1.0000 0.80150  0.03410  0.27840  Biso   1.000  C
  C262     1.0000 0.80150  0.96590  0.77840  Biso   1.000  C
  C263     1.0000 0.74590  0.99730  0.25570  Biso   1.000  C
  C264     1.0000 0.74590  0.00270  0.75570  Biso   1.000  C
  C265     1.0000 0.54120  0.83770  0.29490  Biso   1.000  C
  C266     1.0000 0.54120  0.16230  0.79490  Biso   1.000  C
  C267     1.0000 0.48580  0.82010  0.27850  Biso   1.000  C
  C268     1.0000 0.48580  0.17990  0.77850  Biso   1.000  C
  C269     1.0000 0.45570  0.79320  0.32290  Biso   1.000  C
  C270     1.0000 0.45570  0.20680  0.82290  Biso   1.000  C
  H177     1.0000 0.47080  0.78510  0.36690  Biso   1.000  H
  H178     1.0000 0.47080  0.21490  0.86690  Biso   1.000  H
  C271     1.0000 0.46020  0.83490  0.21390  Biso   1.000  C
  C272     1.0000 0.46020  0.16510  0.71390  Biso   1.000  C
  H179     1.0000 0.47890  0.85740  0.18290  Biso   1.000  H
  H180     1.0000 0.47890  0.14260  0.68290  Biso   1.000  H
  C273     1.0000 0.40360  0.77740  0.30470  Biso   1.000  C
  C274     1.0000 0.40360  0.22260  0.80470  Biso   1.000  C
  H181     1.0000 0.38430  0.75940  0.33650  Biso   1.000  H
  H182     1.0000 0.38430  0.24060  0.83650  Biso   1.000  H
  C275     1.0000 0.41000  0.81810  0.19460  Biso   1.000  C
  C276     1.0000 0.41000  0.18190  0.69460  Biso   1.000  C
  H183     1.0000 0.39530  0.82640  0.15040  Biso   1.000  H
  H184     1.0000 0.39530  0.17360  0.65040  Biso   1.000  H
  C277     1.0000 0.38000  0.78870  0.23900  Biso   1.000  C
  C278     1.0000 0.38000  0.21130  0.73900  Biso   1.000  C
  C279     1.0000 0.32470  0.76430  0.21710  Biso   1.000  C
  C280     1.0000 0.32470  0.23570  0.71710  Biso   1.000  C
  C281     1.0000 0.28890  0.75940  0.25800  Biso   1.000  C
  C282     1.0000 0.28890  0.24060  0.75800  Biso   1.000  C
  H185     1.0000 0.29920  0.77100  0.30290  Biso   1.000  H
  H186     1.0000 0.29920  0.22900  0.80290  Biso   1.000  H
  C283     1.0000 0.30670  0.74150  0.15210  Biso   1.000  C
  C284     1.0000 0.30670  0.25850  0.65210  Biso   1.000  C
  H187     1.0000 0.32860  0.74260  0.12080  Biso   1.000  H
  H188     1.0000 0.32860  0.25740  0.62080  Biso   1.000  H
  C285     1.0000 0.23870  0.73850  0.23630  Biso   1.000  C
  C286     1.0000 0.23870  0.26150  0.73630  Biso   1.000  C
  H189     1.0000 0.21590  0.73840  0.26640  Biso   1.000  H
  H190     1.0000 0.21590  0.26160  0.76640  Biso   1.000  H
  C287     1.0000 0.25680  0.71760  0.13430  Biso   1.000  C
  C288     1.0000 0.25680  0.28240  0.63430  Biso   1.000  C
  H191     1.0000 0.24630  0.69900  0.09070  Biso   1.000  H
  H192     1.0000 0.24630  0.30100  0.59070  Biso   1.000  H
  N1       1.0000 0.00590  0.96370  0.58440  Biso   1.000  N
  N2       1.0000 0.00590  0.03630  0.08440  Biso   1.000  N
  N3       1.0000 0.21490  0.97390  0.23280  Biso   1.000  N
  N4       1.0000 0.21490  0.02610  0.73280  Biso   1.000  N
  N5       1.0000 0.99680  0.21410  0.66240  Biso   1.000  N
  N6       1.0000 0.99680  0.78590  0.16240  Biso   1.000  N
  N7       1.0000 0.20110  0.21500  0.44340  Biso   1.000  N
  N8       1.0000 0.20110  0.78500  0.94340  Biso   1.000  N
  N9       1.0000 0.99680  0.46670  0.60140  Biso   1.000  N
  N10      1.0000 0.99680  0.53330  0.10140  Biso   1.000  N
  N11      1.0000 0.21660  0.22040  0.17020  Biso   1.000  N
  N12      1.0000 0.21660  0.77960  0.67020  Biso   1.000  N
  N13      1.0000 0.99060  0.71920  0.66360  Biso   1.000  N
  N14      1.0000 0.99060  0.28080  0.16360  Biso   1.000  N
  N15      1.0000 0.17520  0.67980  0.42250  Biso   1.000  N
  N16      1.0000 0.17520  0.32020  0.92250  Biso   1.000  N
  N17      1.0000 0.03180  0.70340  0.39270  Biso   1.000  N
  N18      1.0000 0.03180  0.29660  0.89270  Biso   1.000  N
  N19      1.0000 0.20260  0.46650  0.23380  Biso   1.000  N
  N20      1.0000 0.20260  0.53350  0.73380  Biso   1.000  N
  N21      1.0000 0.05830  0.16590  0.40600  Biso   1.000  N
  N22      1.0000 0.05830  0.83410  0.90600  Biso   1.000  N
  N23      1.0000 0.22150  0.71820  0.17360  Biso   1.000  N
  N24      1.0000 0.22150  0.28180  0.67360  Biso   1.000  N
  O1       1.0000 0.66730  0.10350  0.42730  Biso   1.000  O
  O2       1.0000 0.66730  0.89650  0.92730  Biso   1.000  O
  O3       1.0000 0.66230  0.12490  0.53020  Biso   1.000  O
  O4       1.0000 0.66230  0.87510  0.03020  Biso   1.000  O
  O5       1.0000 0.55780  0.14130  0.34070  Biso   1.000  O
  O6       1.0000 0.55780  0.85870  0.84070  Biso   1.000  O
  O7       1.0000 0.54710  0.08230  0.43430  Biso   1.000  O
  O8       1.0000 0.54710  0.91770  0.93430  Biso   1.000  O
  O9       1.0000 0.65170  0.32020  0.50470  Biso   1.000  O
  O10      1.0000 0.65170  0.67980  0.00470  Biso   1.000  O
  O11      1.0000 0.65620  0.38510  0.60410  Biso   1.000  O
  O12      1.0000 0.65620  0.61490  0.10410  Biso   1.000  O
  O13      1.0000 0.55990  0.21930  0.53940  Biso   1.000  O
  O14      1.0000 0.55990  0.78070  0.03940  Biso   1.000  O
  O15      1.0000 0.54310  0.33790  0.59780  Biso   1.000  O
  O16      1.0000 0.54310  0.66210  0.09780  Biso   1.000  O
  O17      1.0000 0.64890  0.57650  0.60310  Biso   1.000  O
  O18      1.0000 0.64890  0.42350  0.10310  Biso   1.000  O
  O19      1.0000 0.65330  0.62440  0.50180  Biso   1.000  O
  O20      1.0000 0.65330  0.37560  0.00180  Biso   1.000  O
  O21      1.0000 0.54430  0.31660  0.40900  Biso   1.000  O
  O22      1.0000 0.54430  0.68340  0.90900  Biso   1.000  O
  O23      1.0000 0.55260  0.39850  0.32120  Biso   1.000  O
  O24      1.0000 0.55260  0.60150  0.82120  Biso   1.000  O
  O25      1.0000 0.64410  0.87390  0.55570  Biso   1.000  O
  O26      1.0000 0.64410  0.12610  0.05570  Biso   1.000  O
  O27      1.0000 0.65480  0.81210  0.46220  Biso   1.000  O
  O28      1.0000 0.65480  0.18790  0.96220  Biso   1.000  O
  O29      1.0000 0.49670  0.50230  0.62960  Biso   1.000  O
  O30      1.0000 0.49670  0.49770  0.12960  Biso   1.000  O
  O31      1.0000 0.52790  0.60220  0.56720  Biso   1.000  O
  O32      1.0000 0.52790  0.39780  0.06720  Biso   1.000  O
  O33      1.0000 0.67780  0.68490  0.35190  Biso   1.000  O
  O34      1.0000 0.67780  0.31510  0.85190  Biso   1.000  O
  O35      1.0000 0.68480  0.81360  0.29900  Biso   1.000  O
  O36      1.0000 0.68480  0.18640  0.79900  Biso   1.000  O
  O37      1.0000 0.53770  0.58940  0.41110  Biso   1.000  O
  O38      1.0000 0.53770  0.41060  0.91110  Biso   1.000  O
  O39      1.0000 0.54480  0.63370  0.31170  Biso   1.000  O
  O40      1.0000 0.54480  0.36630  0.81170  Biso   1.000  O
  O41      1.0000 0.71030  0.03850  0.27480  Biso   1.000  O
  O42      1.0000 0.71030  0.96150  0.77480  Biso   1.000  O
  O43      1.0000 0.73850  0.93110  0.22140  Biso   1.000  O
  O44      1.0000 0.73850  0.06890  0.72140  Biso   1.000  O
  O45      1.0000 0.56660  0.80720  0.35150  Biso   1.000  O
  O46      1.0000 0.56660  0.19280  0.85150  Biso   1.000  O
  O47      1.0000 0.56700  0.86420  0.25240  Biso   1.000  O
  O48      1.0000 0.56700  0.13580  0.75240  Biso   1.000  O
  O49      1.0000 0.64180  0.27720  0.36330  Biso   1.000  O
  O50      1.0000 0.64180  0.72280  0.86330  Biso   1.000  O
  H193     1.0000 0.67670  0.29770  0.37840  Biso   1.000  H
  H194     1.0000 0.67670  0.70230  0.87840  Biso   1.000  H
  H195     1.0000 0.62430  0.32990  0.34290  Biso   1.000  H
  H196     1.0000 0.62430  0.67010  0.84290  Biso   1.000  H
  O51      1.0000 0.60530  0.39030  0.71920  Biso   1.000  O
  O52      1.0000 0.60530  0.60970  0.21920  Biso   1.000  O
  H197     1.0000 0.63630  0.40600  0.74500  Biso   1.000  H
  H198     1.0000 0.63630  0.59400  0.24500  Biso   1.000  H
  H199     1.0000 0.60770  0.33000  0.71220  Biso   1.000  H
  H200     1.0000 0.60770  0.67000  0.21220  Biso   1.000  H
  O53      1.0000 0.59350  0.58600  0.70580  Biso   1.000  O
  O54      1.0000 0.59350  0.41400  0.20580  Biso   1.000  O
  H201     1.0000 0.62460  0.60880  0.71360  Biso   1.000  H
  H202     1.0000 0.62460  0.39120  0.21360  Biso   1.000  H
  H203     1.0000 0.58700  0.56300  0.74310  Biso   1.000  H
  H204     1.0000 0.58700  0.43700  0.24310  Biso   1.000  H
  O55      1.0000 0.56590  0.46150  0.50190  Biso   1.000  O
  O56      1.0000 0.56590  0.53850  0.00190  Biso   1.000  O
  H205     1.0000 0.54330  0.41880  0.49040  Biso   1.000  H
  H206     1.0000 0.54330  0.58120  0.99040  Biso   1.000  H
  H207     1.0000 0.59360  0.44940  0.48420  Biso   1.000  H
  H208     1.0000 0.59360  0.55060  0.98420  Biso   1.000  H
  O57      1.0000 0.63230  0.52790  0.37680  Biso   1.000  O
  O58      1.0000 0.63230  0.47210  0.87680  Biso   1.000  O
  H209     1.0000 0.64220  0.52410  0.33470  Biso   1.000  H
  H210     1.0000 0.64220  0.47590  0.83470  Biso   1.000  H
  H211     1.0000 0.60490  0.48820  0.37540  Biso   1.000  H
  H212     1.0000 0.60490  0.51180  0.87540  Biso   1.000  H
  O59      1.0000 0.55370  0.73860  0.48670  Biso   1.000  O
  O60      1.0000 0.55370  0.26140  0.98670  Biso   1.000  O
  H213     1.0000 0.56000  0.79280  0.49680  Biso   1.000  H
  H214     1.0000 0.56000  0.20720  0.99680  Biso   1.000  H
  H215     1.0000 0.55940  0.70730  0.52210  Biso   1.000  H
  H216     1.0000 0.55940  0.29270  0.02210  Biso   1.000  H
  O61      1.0000 0.63930  0.95750  0.35440  Biso   1.000  O
  O62      1.0000 0.63930  0.04250  0.85440  Biso   1.000  O
  H217     1.0000 0.62340  0.91580  0.37040  Biso   1.000  H
  H218     1.0000 0.62340  0.08420  0.87040  Biso   1.000  H
  H219     1.0000 0.62260  0.00550  0.35590  Biso   1.000  H
  H220     1.0000 0.62260  0.99450  0.85590  Biso   1.000  H
  O63      1.0000 0.63120  0.80410  0.16480  Biso   1.000  O
  O64      1.0000 0.63120  0.19590  0.66480  Biso   1.000  O
  H221     1.0000 0.64170  0.75550  0.18440  Biso   1.000  H
  H222     1.0000 0.64170  0.24450  0.68440  Biso   1.000  H
  H223     1.0000 0.64780  0.81300  0.13260  Biso   1.000  H
  H224     1.0000 0.64780  0.18700  0.63260  Biso   1.000  H
  O65      1.0000 0.59340  0.06120  0.23680  Biso   1.000  O
  O66      1.0000 0.59340  0.93880  0.73680  Biso   1.000  O
  H225     1.0000 0.57340  0.06540  0.19870  Biso   1.000  H
  H226     1.0000 0.57340  0.93460  0.69870  Biso   1.000  H
  H227     1.0000 0.61310  0.10740  0.24230  Biso   1.000  H
  H228     1.0000 0.61310  0.89260  0.74230  Biso   1.000  H
  O67      1.0000 0.64110  0.97960  0.13290  Biso   1.000  O
  O68      1.0000 0.64110  0.02040  0.63290  Biso   1.000  O
  H229     1.0000 0.66560  0.02330  0.13000  Biso   1.000  H
  H230     1.0000 0.66560  0.97670  0.63000  Biso   1.000  H
  H231     1.0000 0.60960  0.00560  0.11560  Biso   1.000  H
  H232     1.0000 0.60960  0.99440  0.61560  Biso   1.000  H
  Cl1      1.0000 0.38000  0.08320  0.04770  Biso   1.000  Cl
  Cl2      1.0000 0.38000  0.91680  0.54770  Biso   1.000  Cl
  O69      1.0000 0.36600  0.00590  0.08100  Biso   1.000  O
  O70      1.0000 0.36600  0.99410  0.58100  Biso   1.000  O
  O71      1.0000 0.33720  0.11100  0.00010  Biso   1.000  O
  O72      1.0000 0.33720  0.88900  0.50010  Biso   1.000  O
  O73      1.0000 0.42210  0.06400  0.01340  Biso   1.000  O
  O74      1.0000 0.42210  0.93600  0.51340  Biso   1.000  O
  O75      1.0000 0.39660  0.15200  0.09490  Biso   1.000  O
  O76      1.0000 0.39660  0.84800  0.59490  Biso   1.000  O
  Cl3      1.0000 0.85080  0.38580  0.34560  Biso   1.000  Cl
  Cl4      1.0000 0.85080  0.61420  0.84560  Biso   1.000  Cl
  O77      1.0000 0.82770  0.32080  0.29820  Biso   1.000  O
  O78      1.0000 0.82770  0.67920  0.79820  Biso   1.000  O
  O79      1.0000 0.81220  0.43690  0.36890  Biso   1.000  O
  O80      1.0000 0.81220  0.56310  0.86890  Biso   1.000  O
  O81      1.0000 0.88570  0.43980  0.31630  Biso   1.000  O
  O82      1.0000 0.88570  0.56020  0.81630  Biso   1.000  O
  O83      1.0000 0.87920  0.34010  0.40180  Biso   1.000  O
  O84      1.0000 0.87920  0.65990  0.90180  Biso   1.000  O
  O85      1.0000 0.54910  0.92370  0.51090  Biso   1.000  O
  O86      1.0000 0.54910  0.07630  0.01090  Biso   1.000  O
  H233     1.0000 0.52770  0.95560  0.48540  Biso   1.000  H
  H234     1.0000 0.52770  0.04440  0.98540  Biso   1.000  H
  H235     1.0000 0.57620  0.95330  0.52430  Biso   1.000  H
  H236     1.0000 0.57620  0.04670  0.02430  Biso   1.000  H
  O87      1.0000 0.59530  0.75540  0.65910  Biso   1.000  O
  O88      1.0000 0.59530  0.24460  0.15910  Biso   1.000  O
  H237     1.0000 0.59830  0.70100  0.65040  Biso   1.000  H
  H238     1.0000 0.59830  0.29900  0.15040  Biso   1.000  H
  H239     1.0000 0.58630  0.76080  0.69690  Biso   1.000  H
  H240     1.0000 0.58630  0.23920  0.19690  Biso   1.000  H
  O89      1.0000 0.68120  0.21770  0.26640  Biso   1.000  O
  O90      1.0000 0.68120  0.78230  0.76640  Biso   1.000  O
  H241     1.0000 0.68290  0.16170  0.26880  Biso   1.000  H
  H242     1.0000 0.68290  0.83830  0.76880  Biso   1.000  H
  H243     1.0000 0.67780  0.23360  0.22600  Biso   1.000  H
  H244     1.0000 0.67780  0.76640  0.72600  Biso   1.000  H
  O91      1.0000 0.51760  0.88700  0.62600  Biso   1.000  O
  O92      1.0000 0.51760  0.11300  0.12600  Biso   1.000  O
  H245     1.0000 0.50880  0.93990  0.61620  Biso   1.000  H
  H246     1.0000 0.50880  0.06010  0.11620  Biso   1.000  H
  H247     1.0000 0.49970  0.85200  0.59880  Biso   1.000  H
  H248     1.0000 0.49970  0.14800  0.09880  Biso   1.000  H
  Gd9      1.0000 0.60270  0.67000  0.40490  Biso   1.000  Gd
  Gd10     1.0000 0.60270  0.33000  0.90490  Biso   1.000  Gd
  Gd11     1.0000 0.63350  0.94870  0.22990  Biso   1.000  Gd
  Gd12     1.0000 0.63350  0.05130  0.72990  Biso   1.000  Gd
  I17      1.0000 0.12630  0.12540  0.01320  Biso   1.000  I
  I18      1.0000 0.12630  0.87460  0.51320  Biso   1.000  I
