data_image0
_cell_length_a       35.954
_cell_length_b       56.323
_cell_length_c       5.171
_cell_angle_alpha    90
_cell_angle_beta     90
_cell_angle_gamma    90

_symmetry_space_group_name_H-M    "P 1"
_symmetry_int_tables_number       1

loop_
  _symmetry_equiv_pos_as_xyz
  'x, y, z'

loop_
  _atom_site_label
  _atom_site_occupancy
  _atom_site_fract_x
  _atom_site_fract_y
  _atom_site_fract_z
  _atom_site_thermal_displace_type
  _atom_site_B_iso_or_equiv
  _atom_site_type_symbol
  Cu1      1.0000 0.26483  0.11987  0.77200  Biso   1.000  Cu
  Cu2      1.0000 0.73517  0.88013  0.77200  Biso   1.000  Cu
  Cu3      1.0000 0.98517  0.36987  0.02200  Biso   1.000  Cu
  Cu4      1.0000 0.51483  0.13013  0.02200  Biso   1.000  Cu
  Cu5      1.0000 0.26483  0.61987  0.27200  Biso   1.000  Cu
  Cu6      1.0000 0.73517  0.38013  0.27200  Biso   1.000  Cu
  Cu7      1.0000 0.98517  0.86987  0.52200  Biso   1.000  Cu
  Cu8      1.0000 0.51483  0.63013  0.52200  Biso   1.000  Cu
  Cu9      1.0000 0.76483  0.11987  0.27200  Biso   1.000  Cu
  Cu10     1.0000 0.23517  0.88013  0.27200  Biso   1.000  Cu
  Cu11     1.0000 0.48517  0.36987  0.52200  Biso   1.000  Cu
  Cu12     1.0000 0.01483  0.13013  0.52200  Biso   1.000  Cu
  Cu13     1.0000 0.76483  0.61987  0.77200  Biso   1.000  Cu
  Cu14     1.0000 0.23517  0.38013  0.77200  Biso   1.000  Cu
  Cu15     1.0000 0.48517  0.86987  0.02200  Biso   1.000  Cu
  Cu16     1.0000 0.01483  0.63013  0.02200  Biso   1.000  Cu
  Cu17     1.0000 0.39029  0.00503  0.48600  Biso   1.000  Cu
  Cu18     1.0000 0.60971  0.99497  0.48600  Biso   1.000  Cu
  Cu19     1.0000 0.85971  0.25503  0.73600  Biso   1.000  Cu
  Cu20     1.0000 0.64029  0.24497  0.73600  Biso   1.000  Cu
  Cu21     1.0000 0.39029  0.50503  0.98600  Biso   1.000  Cu
  Cu22     1.0000 0.60971  0.49497  0.98600  Biso   1.000  Cu
  Cu23     1.0000 0.85971  0.75503  0.23600  Biso   1.000  Cu
  Cu24     1.0000 0.64029  0.74497  0.23600  Biso   1.000  Cu
  Cu25     1.0000 0.89029  0.00503  0.98600  Biso   1.000  Cu
  Cu26     1.0000 0.10971  0.99497  0.98600  Biso   1.000  Cu
  Cu27     1.0000 0.35971  0.25503  0.23600  Biso   1.000  Cu
  Cu28     1.0000 0.14029  0.24497  0.23600  Biso   1.000  Cu
  Cu29     1.0000 0.89029  0.50503  0.48600  Biso   1.000  Cu
  Cu30     1.0000 0.10971  0.49497  0.48600  Biso   1.000  Cu
  Cu31     1.0000 0.35971  0.75503  0.73600  Biso   1.000  Cu
  Cu32     1.0000 0.14029  0.74497  0.73600  Biso   1.000  Cu
  O1       1.0000 0.23080  0.11343  0.06000  Biso   1.000  O
  O2       1.0000 0.76920  0.88657  0.06000  Biso   1.000  O
  O3       1.0000 0.01920  0.36343  0.31000  Biso   1.000  O
  O4       1.0000 0.48080  0.13657  0.31000  Biso   1.000  O
  O5       1.0000 0.23080  0.61343  0.56000  Biso   1.000  O
  O6       1.0000 0.76920  0.38657  0.56000  Biso   1.000  O
  O7       1.0000 0.01920  0.86343  0.81000  Biso   1.000  O
  O8       1.0000 0.48080  0.63657  0.81000  Biso   1.000  O
  O9       1.0000 0.73080  0.11343  0.56000  Biso   1.000  O
  O10      1.0000 0.26920  0.88657  0.56000  Biso   1.000  O
  O11      1.0000 0.51920  0.36343  0.81000  Biso   1.000  O
  O12      1.0000 0.98080  0.13657  0.81000  Biso   1.000  O
  O13      1.0000 0.73080  0.61343  0.06000  Biso   1.000  O
  O14      1.0000 0.26920  0.38657  0.06000  Biso   1.000  O
  O15      1.0000 0.51920  0.86343  0.31000  Biso   1.000  O
  O16      1.0000 0.98080  0.63657  0.31000  Biso   1.000  O
  O17      1.0000 0.22820  0.09255  0.42300  Biso   1.000  O
  O18      1.0000 0.77180  0.90745  0.42300  Biso   1.000  O
  O19      1.0000 0.02180  0.34255  0.67300  Biso   1.000  O
  O20      1.0000 0.47820  0.15745  0.67300  Biso   1.000  O
  O21      1.0000 0.22820  0.59255  0.92300  Biso   1.000  O
  O22      1.0000 0.77180  0.40745  0.92300  Biso   1.000  O
  O23      1.0000 0.02180  0.84255  0.17300  Biso   1.000  O
  O24      1.0000 0.47820  0.65745  0.17300  Biso   1.000  O
  O25      1.0000 0.72820  0.09255  0.92300  Biso   1.000  O
  O26      1.0000 0.27180  0.90745  0.92300  Biso   1.000  O
  O27      1.0000 0.52180  0.34255  0.17300  Biso   1.000  O
  O28      1.0000 0.97820  0.15745  0.17300  Biso   1.000  O
  O29      1.0000 0.72820  0.59255  0.42300  Biso   1.000  O
  O30      1.0000 0.27180  0.40745  0.42300  Biso   1.000  O
  O31      1.0000 0.52180  0.84255  0.67300  Biso   1.000  O
  O32      1.0000 0.97820  0.65745  0.67300  Biso   1.000  O
  O33      1.0000 0.32630  0.02669  0.51000  Biso   1.000  O
  O34      1.0000 0.67370  0.97331  0.51000  Biso   1.000  O
  O35      1.0000 0.92370  0.27669  0.76000  Biso   1.000  O
  O36      1.0000 0.57630  0.22331  0.76000  Biso   1.000  O
  O37      1.0000 0.32630  0.52669  0.01000  Biso   1.000  O
  O38      1.0000 0.67370  0.47331  0.01000  Biso   1.000  O
  O39      1.0000 0.92370  0.77669  0.26000  Biso   1.000  O
  O40      1.0000 0.57630  0.72331  0.26000  Biso   1.000  O
  O41      1.0000 0.82630  0.02669  0.01000  Biso   1.000  O
  O42      1.0000 0.17370  0.97331  0.01000  Biso   1.000  O
  O43      1.0000 0.42370  0.27669  0.26000  Biso   1.000  O
  O44      1.0000 0.07630  0.22331  0.26000  Biso   1.000  O
  O45      1.0000 0.82630  0.52669  0.51000  Biso   1.000  O
  O46      1.0000 0.17370  0.47331  0.51000  Biso   1.000  O
  O47      1.0000 0.42370  0.77669  0.76000  Biso   1.000  O
  O48      1.0000 0.07630  0.72331  0.76000  Biso   1.000  O
  O49      1.0000 0.37010  0.02462  0.21300  Biso   1.000  O
  O50      1.0000 0.62990  0.97538  0.21300  Biso   1.000  O
  O51      1.0000 0.87990  0.27462  0.46300  Biso   1.000  O
  O52      1.0000 0.62010  0.22538  0.46300  Biso   1.000  O
  O53      1.0000 0.37010  0.52462  0.71300  Biso   1.000  O
  O54      1.0000 0.62990  0.47538  0.71300  Biso   1.000  O
  O55      1.0000 0.87990  0.77462  0.96300  Biso   1.000  O
  O56      1.0000 0.62010  0.72538  0.96300  Biso   1.000  O
  O57      1.0000 0.87010  0.02462  0.71300  Biso   1.000  O
  O58      1.0000 0.12990  0.97538  0.71300  Biso   1.000  O
  O59      1.0000 0.37990  0.27462  0.96300  Biso   1.000  O
  O60      1.0000 0.12010  0.22538  0.96300  Biso   1.000  O
  O61      1.0000 0.87010  0.52462  0.21300  Biso   1.000  O
  O62      1.0000 0.12990  0.47538  0.21300  Biso   1.000  O
  O63      1.0000 0.37990  0.77462  0.46300  Biso   1.000  O
  O64      1.0000 0.12010  0.72538  0.46300  Biso   1.000  O
  O65      1.0000 0.29820  0.12663  0.48900  Biso   1.000  O
  O66      1.0000 0.70180  0.87337  0.48900  Biso   1.000  O
  O67      1.0000 0.95180  0.37663  0.73900  Biso   1.000  O
  O68      1.0000 0.54820  0.12337  0.73900  Biso   1.000  O
  O69      1.0000 0.29820  0.62663  0.98900  Biso   1.000  O
  O70      1.0000 0.70180  0.37337  0.98900  Biso   1.000  O
  O71      1.0000 0.95180  0.87663  0.23900  Biso   1.000  O
  O72      1.0000 0.54820  0.62337  0.23900  Biso   1.000  O
  O73      1.0000 0.79820  0.12663  0.98900  Biso   1.000  O
  O74      1.0000 0.20180  0.87337  0.98900  Biso   1.000  O
  O75      1.0000 0.45180  0.37663  0.23900  Biso   1.000  O
  O76      1.0000 0.04820  0.12337  0.23900  Biso   1.000  O
  O77      1.0000 0.79820  0.62663  0.48900  Biso   1.000  O
  O78      1.0000 0.20180  0.37337  0.48900  Biso   1.000  O
  O79      1.0000 0.45180  0.87663  0.73900  Biso   1.000  O
  O80      1.0000 0.04820  0.62337  0.73900  Biso   1.000  O
  O81      1.0000 0.30140  0.14890  0.13200  Biso   1.000  O
  O82      1.0000 0.69860  0.85110  0.13200  Biso   1.000  O
  O83      1.0000 0.94860  0.39890  0.38200  Biso   1.000  O
  O84      1.0000 0.55140  0.10110  0.38200  Biso   1.000  O
  O85      1.0000 0.30140  0.64890  0.63200  Biso   1.000  O
  O86      1.0000 0.69860  0.35110  0.63200  Biso   1.000  O
  O87      1.0000 0.94860  0.89890  0.88200  Biso   1.000  O
  O88      1.0000 0.55140  0.60110  0.88200  Biso   1.000  O
  O89      1.0000 0.80140  0.14890  0.63200  Biso   1.000  O
  O90      1.0000 0.19860  0.85110  0.63200  Biso   1.000  O
  O91      1.0000 0.44860  0.39890  0.88200  Biso   1.000  O
  O92      1.0000 0.05140  0.10110  0.88200  Biso   1.000  O
  O93      1.0000 0.80140  0.64890  0.13200  Biso   1.000  O
  O94      1.0000 0.19860  0.35110  0.13200  Biso   1.000  O
  O95      1.0000 0.44860  0.89890  0.38200  Biso   1.000  O
  O96      1.0000 0.05140  0.60110  0.38200  Biso   1.000  O
  O97      1.0000 0.21130  0.22144  0.13900  Biso   1.000  O
  O98      1.0000 0.78870  0.77856  0.13900  Biso   1.000  O
  O99      1.0000 0.03870  0.47144  0.38900  Biso   1.000  O
  O100     1.0000 0.46130  0.02856  0.38900  Biso   1.000  O
  O101     1.0000 0.21130  0.72144  0.63900  Biso   1.000  O
  O102     1.0000 0.78870  0.27856  0.63900  Biso   1.000  O
  O103     1.0000 0.03870  0.97144  0.88900  Biso   1.000  O
  O104     1.0000 0.46130  0.52856  0.88900  Biso   1.000  O
  O105     1.0000 0.71130  0.22144  0.63900  Biso   1.000  O
  O106     1.0000 0.28870  0.77856  0.63900  Biso   1.000  O
  O107     1.0000 0.53870  0.47144  0.88900  Biso   1.000  O
  O108     1.0000 0.96130  0.02856  0.88900  Biso   1.000  O
  O109     1.0000 0.71130  0.72144  0.13900  Biso   1.000  O
  O110     1.0000 0.28870  0.27856  0.13900  Biso   1.000  O
  O111     1.0000 0.53870  0.97144  0.38900  Biso   1.000  O
  O112     1.0000 0.96130  0.52856  0.38900  Biso   1.000  O
  O113     1.0000 0.16280  0.21762  0.39500  Biso   1.000  O
  O114     1.0000 0.83720  0.78238  0.39500  Biso   1.000  O
  O115     1.0000 0.08720  0.46762  0.64500  Biso   1.000  O
  O116     1.0000 0.41280  0.03238  0.64500  Biso   1.000  O
  O117     1.0000 0.16280  0.71762  0.89500  Biso   1.000  O
  O118     1.0000 0.83720  0.28238  0.89500  Biso   1.000  O
  O119     1.0000 0.08720  0.96762  0.14500  Biso   1.000  O
  O120     1.0000 0.41280  0.53238  0.14500  Biso   1.000  O
  O121     1.0000 0.66280  0.21762  0.89500  Biso   1.000  O
  O122     1.0000 0.33720  0.78238  0.89500  Biso   1.000  O
  O123     1.0000 0.58720  0.46762  0.14500  Biso   1.000  O
  O124     1.0000 0.91280  0.03238  0.14500  Biso   1.000  O
  O125     1.0000 0.66280  0.71762  0.39500  Biso   1.000  O
  O126     1.0000 0.33720  0.28238  0.39500  Biso   1.000  O
  O127     1.0000 0.58720  0.96762  0.64500  Biso   1.000  O
  O128     1.0000 0.91280  0.53238  0.64500  Biso   1.000  O
  O129     1.0000 0.37430  0.12510  0.10500  Biso   1.000  O
  O130     1.0000 0.62570  0.87490  0.10500  Biso   1.000  O
  O131     1.0000 0.87570  0.37510  0.35500  Biso   1.000  O
  O132     1.0000 0.62430  0.12490  0.35500  Biso   1.000  O
  O133     1.0000 0.37430  0.62510  0.60500  Biso   1.000  O
  O134     1.0000 0.62570  0.37490  0.60500  Biso   1.000  O
  O135     1.0000 0.87570  0.87510  0.85500  Biso   1.000  O
  O136     1.0000 0.62430  0.62490  0.85500  Biso   1.000  O
  O137     1.0000 0.87430  0.12510  0.60500  Biso   1.000  O
  O138     1.0000 0.12570  0.87490  0.60500  Biso   1.000  O
  O139     1.0000 0.37570  0.37510  0.85500  Biso   1.000  O
  O140     1.0000 0.12430  0.12490  0.85500  Biso   1.000  O
  O141     1.0000 0.87430  0.62510  0.10500  Biso   1.000  O
  O142     1.0000 0.12570  0.37490  0.10500  Biso   1.000  O
  O143     1.0000 0.37570  0.87510  0.35500  Biso   1.000  O
  O144     1.0000 0.12430  0.62490  0.35500  Biso   1.000  O
  O145     1.0000 0.15340  0.11760  0.36700  Biso   1.000  O
  O146     1.0000 0.84660  0.88240  0.36700  Biso   1.000  O
  O147     1.0000 0.09660  0.36760  0.61700  Biso   1.000  O
  O148     1.0000 0.40340  0.13240  0.61700  Biso   1.000  O
  O149     1.0000 0.15340  0.61760  0.86700  Biso   1.000  O
  O150     1.0000 0.84660  0.38240  0.86700  Biso   1.000  O
  O151     1.0000 0.09660  0.86760  0.11700  Biso   1.000  O
  O152     1.0000 0.40340  0.63240  0.11700  Biso   1.000  O
  O153     1.0000 0.65340  0.11760  0.86700  Biso   1.000  O
  O154     1.0000 0.34660  0.88240  0.86700  Biso   1.000  O
  O155     1.0000 0.59660  0.36760  0.11700  Biso   1.000  O
  O156     1.0000 0.90340  0.13240  0.11700  Biso   1.000  O
  O157     1.0000 0.65340  0.61760  0.36700  Biso   1.000  O
  O158     1.0000 0.34660  0.38240  0.36700  Biso   1.000  O
  O159     1.0000 0.59660  0.86760  0.61700  Biso   1.000  O
  O160     1.0000 0.90340  0.63240  0.61700  Biso   1.000  O
  O161     1.0000 0.22820  0.00060  0.26300  Biso   1.000  O
  O162     1.0000 0.77180  0.99940  0.26300  Biso   1.000  O
  O163     1.0000 0.02180  0.25060  0.51300  Biso   1.000  O
  O164     1.0000 0.47820  0.24940  0.51300  Biso   1.000  O
  O165     1.0000 0.22820  0.50060  0.76300  Biso   1.000  O
  O166     1.0000 0.77180  0.49940  0.76300  Biso   1.000  O
  O167     1.0000 0.02180  0.75060  0.01300  Biso   1.000  O
  O168     1.0000 0.47820  0.74940  0.01300  Biso   1.000  O
  O169     1.0000 0.72820  0.00060  0.76300  Biso   1.000  O
  O170     1.0000 0.27180  0.99940  0.76300  Biso   1.000  O
  O171     1.0000 0.52180  0.25060  0.01300  Biso   1.000  O
  O172     1.0000 0.97820  0.24940  0.01300  Biso   1.000  O
  O173     1.0000 0.72820  0.50060  0.26300  Biso   1.000  O
  O174     1.0000 0.27180  0.49940  0.26300  Biso   1.000  O
  O175     1.0000 0.52180  0.75060  0.51300  Biso   1.000  O
  O176     1.0000 0.97820  0.74940  0.51300  Biso   1.000  O
  N1       1.0000 0.29230  0.09231  0.90900  Biso   1.000  N
  N2       1.0000 0.70770  0.90769  0.90900  Biso   1.000  N
  N3       1.0000 0.95770  0.34231  0.15900  Biso   1.000  N
  N4       1.0000 0.54230  0.15769  0.15900  Biso   1.000  N
  N5       1.0000 0.29230  0.59231  0.40900  Biso   1.000  N
  N6       1.0000 0.70770  0.40769  0.40900  Biso   1.000  N
  N7       1.0000 0.95770  0.84231  0.65900  Biso   1.000  N
  N8       1.0000 0.54230  0.65769  0.65900  Biso   1.000  N
  N9       1.0000 0.79230  0.09231  0.40900  Biso   1.000  N
  N10      1.0000 0.20770  0.90769  0.40900  Biso   1.000  N
  N11      1.0000 0.45770  0.34231  0.65900  Biso   1.000  N
  N12      1.0000 0.04230  0.15769  0.65900  Biso   1.000  N
  N13      1.0000 0.79230  0.59231  0.90900  Biso   1.000  N
  N14      1.0000 0.20770  0.40769  0.90900  Biso   1.000  N
  N15      1.0000 0.45770  0.84231  0.15900  Biso   1.000  N
  N16      1.0000 0.04230  0.65769  0.15900  Biso   1.000  N
  N17      1.0000 0.23840  0.14811  0.65200  Biso   1.000  N
  N18      1.0000 0.76160  0.85189  0.65200  Biso   1.000  N
  N19      1.0000 0.01160  0.39811  0.90200  Biso   1.000  N
  N20      1.0000 0.48840  0.10189  0.90200  Biso   1.000  N
  N21      1.0000 0.23840  0.64811  0.15200  Biso   1.000  N
  N22      1.0000 0.76160  0.35189  0.15200  Biso   1.000  N
  N23      1.0000 0.01160  0.89811  0.40200  Biso   1.000  N
  N24      1.0000 0.48840  0.60189  0.40200  Biso   1.000  N
  N25      1.0000 0.73840  0.14811  0.15200  Biso   1.000  N
  N26      1.0000 0.26160  0.85189  0.15200  Biso   1.000  N
  N27      1.0000 0.51160  0.39811  0.40200  Biso   1.000  N
  N28      1.0000 0.98840  0.10189  0.40200  Biso   1.000  N
  N29      1.0000 0.73840  0.64811  0.65200  Biso   1.000  N
  N30      1.0000 0.26160  0.35189  0.65200  Biso   1.000  N
  N31      1.0000 0.51160  0.89811  0.90200  Biso   1.000  N
  N32      1.0000 0.98840  0.60189  0.90200  Biso   1.000  N
  N33      1.0000 0.41230  0.98281  0.74500  Biso   1.000  N
  N34      1.0000 0.58770  0.01719  0.74500  Biso   1.000  N
  N35      1.0000 0.83770  0.23281  0.99500  Biso   1.000  N
  N36      1.0000 0.66230  0.26719  0.99500  Biso   1.000  N
  N37      1.0000 0.41230  0.48281  0.24500  Biso   1.000  N
  N38      1.0000 0.58770  0.51719  0.24500  Biso   1.000  N
  N39      1.0000 0.83770  0.73281  0.49500  Biso   1.000  N
  N40      1.0000 0.66230  0.76719  0.49500  Biso   1.000  N
  N41      1.0000 0.91230  0.98281  0.24500  Biso   1.000  N
  N42      1.0000 0.08770  0.01719  0.24500  Biso   1.000  N
  N43      1.0000 0.33770  0.23281  0.49500  Biso   1.000  N
  N44      1.0000 0.16230  0.26719  0.49500  Biso   1.000  N
  N45      1.0000 0.91230  0.48281  0.74500  Biso   1.000  N
  N46      1.0000 0.08770  0.51719  0.74500  Biso   1.000  N
  N47      1.0000 0.33770  0.73281  0.99500  Biso   1.000  N
  N48      1.0000 0.16230  0.76719  0.99500  Biso   1.000  N
  N49      1.0000 0.36360  0.97598  0.38100  Biso   1.000  N
  N50      1.0000 0.63640  0.02402  0.38100  Biso   1.000  N
  N51      1.0000 0.88640  0.22598  0.63100  Biso   1.000  N
  N52      1.0000 0.61360  0.27402  0.63100  Biso   1.000  N
  N53      1.0000 0.36360  0.47598  0.88100  Biso   1.000  N
  N54      1.0000 0.63640  0.52402  0.88100  Biso   1.000  N
  N55      1.0000 0.88640  0.72598  0.13100  Biso   1.000  N
  N56      1.0000 0.61360  0.77402  0.13100  Biso   1.000  N
  N57      1.0000 0.86360  0.97598  0.88100  Biso   1.000  N
  N58      1.0000 0.13640  0.02402  0.88100  Biso   1.000  N
  N59      1.0000 0.38640  0.22598  0.13100  Biso   1.000  N
  N60      1.0000 0.11360  0.27402  0.13100  Biso   1.000  N
  N61      1.0000 0.86360  0.47598  0.38100  Biso   1.000  N
  N62      1.0000 0.13640  0.52402  0.38100  Biso   1.000  N
  N63      1.0000 0.38640  0.72598  0.63100  Biso   1.000  N
  N64      1.0000 0.11360  0.77402  0.63100  Biso   1.000  N
  C1       1.0000 0.27580  0.08342  0.12600  Biso   1.000  C
  C2       1.0000 0.72420  0.91658  0.12600  Biso   1.000  C
  C3       1.0000 0.97420  0.33342  0.37600  Biso   1.000  C
  C4       1.0000 0.52580  0.16658  0.37600  Biso   1.000  C
  C5       1.0000 0.27580  0.58342  0.62600  Biso   1.000  C
  C6       1.0000 0.72420  0.41658  0.62600  Biso   1.000  C
  C7       1.0000 0.97420  0.83342  0.87600  Biso   1.000  C
  C8       1.0000 0.52580  0.66658  0.87600  Biso   1.000  C
  C9       1.0000 0.77580  0.08342  0.62600  Biso   1.000  C
  C10      1.0000 0.22420  0.91658  0.62600  Biso   1.000  C
  C11      1.0000 0.47420  0.33342  0.87600  Biso   1.000  C
  C12      1.0000 0.02580  0.16658  0.87600  Biso   1.000  C
  C13      1.0000 0.77580  0.58342  0.12600  Biso   1.000  C
  C14      1.0000 0.22420  0.41658  0.12600  Biso   1.000  C
  C15      1.0000 0.47420  0.83342  0.37600  Biso   1.000  C
  C16      1.0000 0.02580  0.66658  0.37600  Biso   1.000  C
  C17      1.0000 0.29000  0.06393  0.25100  Biso   1.000  C
  C18      1.0000 0.71000  0.93607  0.25100  Biso   1.000  C
  C19      1.0000 0.96000  0.31393  0.50100  Biso   1.000  C
  C20      1.0000 0.54000  0.18607  0.50100  Biso   1.000  C
  C21      1.0000 0.29000  0.56393  0.75100  Biso   1.000  C
  C22      1.0000 0.71000  0.43607  0.75100  Biso   1.000  C
  C23      1.0000 0.96000  0.81393  0.00100  Biso   1.000  C
  C24      1.0000 0.54000  0.68607  0.00100  Biso   1.000  C
  C25      1.0000 0.79000  0.06393  0.75100  Biso   1.000  C
  C26      1.0000 0.21000  0.93607  0.75100  Biso   1.000  C
  C27      1.0000 0.46000  0.31393  0.00100  Biso   1.000  C
  C28      1.0000 0.04000  0.18607  0.00100  Biso   1.000  C
  C29      1.0000 0.79000  0.56393  0.25100  Biso   1.000  C
  C30      1.0000 0.21000  0.43607  0.25100  Biso   1.000  C
  C31      1.0000 0.46000  0.81393  0.50100  Biso   1.000  C
  C32      1.0000 0.04000  0.68607  0.50100  Biso   1.000  C
  C33      1.0000 0.32240  0.05350  0.15600  Biso   1.000  C
  C34      1.0000 0.67760  0.94650  0.15600  Biso   1.000  C
  C35      1.0000 0.92760  0.30350  0.40600  Biso   1.000  C
  C36      1.0000 0.57240  0.19650  0.40600  Biso   1.000  C
  C37      1.0000 0.32240  0.55350  0.65600  Biso   1.000  C
  C38      1.0000 0.67760  0.44650  0.65600  Biso   1.000  C
  C39      1.0000 0.92760  0.80350  0.90600  Biso   1.000  C
  C40      1.0000 0.57240  0.69650  0.90600  Biso   1.000  C
  C41      1.0000 0.82240  0.05350  0.65600  Biso   1.000  C
  C42      1.0000 0.17760  0.94650  0.65600  Biso   1.000  C
  C43      1.0000 0.42760  0.30350  0.90600  Biso   1.000  C
  C44      1.0000 0.07240  0.19650  0.90600  Biso   1.000  C
  C45      1.0000 0.82240  0.55350  0.15600  Biso   1.000  C
  C46      1.0000 0.17760  0.44650  0.15600  Biso   1.000  C
  C47      1.0000 0.42760  0.80350  0.40600  Biso   1.000  C
  C48      1.0000 0.07240  0.69650  0.40600  Biso   1.000  C
  C49      1.0000 0.33910  0.06290  0.93700  Biso   1.000  C
  C50      1.0000 0.66090  0.93710  0.93700  Biso   1.000  C
  C51      1.0000 0.91090  0.31290  0.18700  Biso   1.000  C
  C52      1.0000 0.58910  0.18710  0.18700  Biso   1.000  C
  C53      1.0000 0.33910  0.56290  0.43700  Biso   1.000  C
  C54      1.0000 0.66090  0.43710  0.43700  Biso   1.000  C
  C55      1.0000 0.91090  0.81290  0.68700  Biso   1.000  C
  C56      1.0000 0.58910  0.68710  0.68700  Biso   1.000  C
  C57      1.0000 0.83910  0.06290  0.43700  Biso   1.000  C
  C58      1.0000 0.16090  0.93710  0.43700  Biso   1.000  C
  C59      1.0000 0.41090  0.31290  0.68700  Biso   1.000  C
  C60      1.0000 0.08910  0.18710  0.68700  Biso   1.000  C
  C61      1.0000 0.83910  0.56290  0.93700  Biso   1.000  C
  C62      1.0000 0.16090  0.43710  0.93700  Biso   1.000  C
  C63      1.0000 0.41090  0.81290  0.18700  Biso   1.000  C
  C64      1.0000 0.08910  0.68710  0.18700  Biso   1.000  C
  C65      1.0000 0.32320  0.08240  0.81700  Biso   1.000  C
  C66      1.0000 0.67680  0.91760  0.81700  Biso   1.000  C
  C67      1.0000 0.92680  0.33240  0.06700  Biso   1.000  C
  C68      1.0000 0.57320  0.16760  0.06700  Biso   1.000  C
  C69      1.0000 0.32320  0.58240  0.31700  Biso   1.000  C
  C70      1.0000 0.67680  0.41760  0.31700  Biso   1.000  C
  C71      1.0000 0.92680  0.83240  0.56700  Biso   1.000  C
  C72      1.0000 0.57320  0.66760  0.56700  Biso   1.000  C
  C73      1.0000 0.82320  0.08240  0.31700  Biso   1.000  C
  C74      1.0000 0.17680  0.91760  0.31700  Biso   1.000  C
  C75      1.0000 0.42680  0.33240  0.56700  Biso   1.000  C
  C76      1.0000 0.07320  0.16760  0.56700  Biso   1.000  C
  C77      1.0000 0.82320  0.58240  0.81700  Biso   1.000  C
  C78      1.0000 0.17680  0.41760  0.81700  Biso   1.000  C
  C79      1.0000 0.42680  0.83240  0.06700  Biso   1.000  C
  C80      1.0000 0.07320  0.66760  0.06700  Biso   1.000  C
  C81      1.0000 0.24230  0.09710  0.21300  Biso   1.000  C
  C82      1.0000 0.75770  0.90290  0.21300  Biso   1.000  C
  C83      1.0000 0.00770  0.34710  0.46300  Biso   1.000  C
  C84      1.0000 0.49230  0.15290  0.46300  Biso   1.000  C
  C85      1.0000 0.24230  0.59710  0.71300  Biso   1.000  C
  C86      1.0000 0.75770  0.40290  0.71300  Biso   1.000  C
  C87      1.0000 0.00770  0.84710  0.96300  Biso   1.000  C
  C88      1.0000 0.49230  0.65290  0.96300  Biso   1.000  C
  C89      1.0000 0.74230  0.09710  0.71300  Biso   1.000  C
  C90      1.0000 0.25770  0.90290  0.71300  Biso   1.000  C
  C91      1.0000 0.50770  0.34710  0.96300  Biso   1.000  C
  C92      1.0000 0.99230  0.15290  0.96300  Biso   1.000  C
  C93      1.0000 0.74230  0.59710  0.21300  Biso   1.000  C
  C94      1.0000 0.25770  0.40290  0.21300  Biso   1.000  C
  C95      1.0000 0.50770  0.84710  0.46300  Biso   1.000  C
  C96      1.0000 0.99230  0.65290  0.46300  Biso   1.000  C
  C97      1.0000 0.34010  0.03330  0.30500  Biso   1.000  C
  C98      1.0000 0.65990  0.96670  0.30500  Biso   1.000  C
  C99      1.0000 0.90990  0.28330  0.55500  Biso   1.000  C
  C100     1.0000 0.59010  0.21670  0.55500  Biso   1.000  C
  C101     1.0000 0.34010  0.53330  0.80500  Biso   1.000  C
  C102     1.0000 0.65990  0.46670  0.80500  Biso   1.000  C
  C103     1.0000 0.90990  0.78330  0.05500  Biso   1.000  C
  C104     1.0000 0.59010  0.71670  0.05500  Biso   1.000  C
  C105     1.0000 0.84010  0.03330  0.80500  Biso   1.000  C
  C106     1.0000 0.15990  0.96670  0.80500  Biso   1.000  C
  C107     1.0000 0.40990  0.28330  0.05500  Biso   1.000  C
  C108     1.0000 0.09010  0.21670  0.05500  Biso   1.000  C
  C109     1.0000 0.84010  0.53330  0.30500  Biso   1.000  C
  C110     1.0000 0.15990  0.46670  0.30500  Biso   1.000  C
  C111     1.0000 0.40990  0.78330  0.55500  Biso   1.000  C
  C112     1.0000 0.09010  0.71670  0.55500  Biso   1.000  C
  C113     1.0000 0.25380  0.15750  0.44200  Biso   1.000  C
  C114     1.0000 0.74620  0.84250  0.44200  Biso   1.000  C
  C115     1.0000 0.99620  0.40750  0.69200  Biso   1.000  C
  C116     1.0000 0.50380  0.09250  0.69200  Biso   1.000  C
  C117     1.0000 0.25380  0.65750  0.94200  Biso   1.000  C
  C118     1.0000 0.74620  0.34250  0.94200  Biso   1.000  C
  C119     1.0000 0.99620  0.90750  0.19200  Biso   1.000  C
  C120     1.0000 0.50380  0.59250  0.19200  Biso   1.000  C
  C121     1.0000 0.75380  0.15750  0.94200  Biso   1.000  C
  C122     1.0000 0.24620  0.84250  0.94200  Biso   1.000  C
  C123     1.0000 0.49620  0.40750  0.19200  Biso   1.000  C
  C124     1.0000 0.00380  0.09250  0.19200  Biso   1.000  C
  C125     1.0000 0.75380  0.65750  0.44200  Biso   1.000  C
  C126     1.0000 0.24620  0.34250  0.44200  Biso   1.000  C
  C127     1.0000 0.49620  0.90750  0.69200  Biso   1.000  C
  C128     1.0000 0.00380  0.59250  0.69200  Biso   1.000  C
  C129     1.0000 0.24010  0.17780  0.32500  Biso   1.000  C
  C130     1.0000 0.75990  0.82220  0.32500  Biso   1.000  C
  C131     1.0000 0.00990  0.42780  0.57500  Biso   1.000  C
  C132     1.0000 0.49010  0.07220  0.57500  Biso   1.000  C
  C133     1.0000 0.24010  0.67780  0.82500  Biso   1.000  C
  C134     1.0000 0.75990  0.32220  0.82500  Biso   1.000  C
  C135     1.0000 0.00990  0.92780  0.07500  Biso   1.000  C
  C136     1.0000 0.49010  0.57220  0.07500  Biso   1.000  C
  C137     1.0000 0.74010  0.17780  0.82500  Biso   1.000  C
  C138     1.0000 0.25990  0.82220  0.82500  Biso   1.000  C
  C139     1.0000 0.50990  0.42780  0.07500  Biso   1.000  C
  C140     1.0000 0.99010  0.07220  0.07500  Biso   1.000  C
  C141     1.0000 0.74010  0.67780  0.32500  Biso   1.000  C
  C142     1.0000 0.25990  0.32220  0.32500  Biso   1.000  C
  C143     1.0000 0.50990  0.92780  0.57500  Biso   1.000  C
  C144     1.0000 0.99010  0.57220  0.57500  Biso   1.000  C
  C145     1.0000 0.21040  0.18928  0.43200  Biso   1.000  C
  C146     1.0000 0.78960  0.81072  0.43200  Biso   1.000  C
  C147     1.0000 0.03960  0.43928  0.68200  Biso   1.000  C
  C148     1.0000 0.46040  0.06072  0.68200  Biso   1.000  C
  C149     1.0000 0.21040  0.68928  0.93200  Biso   1.000  C
  C150     1.0000 0.78960  0.31072  0.93200  Biso   1.000  C
  C151     1.0000 0.03960  0.93928  0.18200  Biso   1.000  C
  C152     1.0000 0.46040  0.56072  0.18200  Biso   1.000  C
  C153     1.0000 0.71040  0.18928  0.93200  Biso   1.000  C
  C154     1.0000 0.28960  0.81072  0.93200  Biso   1.000  C
  C155     1.0000 0.53960  0.43928  0.18200  Biso   1.000  C
  C156     1.0000 0.96040  0.06072  0.18200  Biso   1.000  C
  C157     1.0000 0.71040  0.68928  0.43200  Biso   1.000  C
  C158     1.0000 0.28960  0.31072  0.43200  Biso   1.000  C
  C159     1.0000 0.53960  0.93928  0.68200  Biso   1.000  C
  C160     1.0000 0.96040  0.56072  0.68200  Biso   1.000  C
  C161     1.0000 0.19450  0.17990  0.65100  Biso   1.000  C
  C162     1.0000 0.80550  0.82010  0.65100  Biso   1.000  C
  C163     1.0000 0.05550  0.42990  0.90100  Biso   1.000  C
  C164     1.0000 0.44450  0.07010  0.90100  Biso   1.000  C
  C165     1.0000 0.19450  0.67990  0.15100  Biso   1.000  C
  C166     1.0000 0.80550  0.32010  0.15100  Biso   1.000  C
  C167     1.0000 0.05550  0.92990  0.40100  Biso   1.000  C
  C168     1.0000 0.44450  0.57010  0.40100  Biso   1.000  C
  C169     1.0000 0.69450  0.17990  0.15100  Biso   1.000  C
  C170     1.0000 0.30550  0.82010  0.15100  Biso   1.000  C
  C171     1.0000 0.55550  0.42990  0.40100  Biso   1.000  C
  C172     1.0000 0.94450  0.07010  0.40100  Biso   1.000  C
  C173     1.0000 0.69450  0.67990  0.65100  Biso   1.000  C
  C174     1.0000 0.30550  0.32010  0.65100  Biso   1.000  C
  C175     1.0000 0.55550  0.92990  0.90100  Biso   1.000  C
  C176     1.0000 0.94450  0.57010  0.90100  Biso   1.000  C
  C177     1.0000 0.20830  0.15840  0.75600  Biso   1.000  C
  C178     1.0000 0.79170  0.84160  0.75600  Biso   1.000  C
  C179     1.0000 0.04170  0.40840  0.00600  Biso   1.000  C
  C180     1.0000 0.45830  0.09160  0.00600  Biso   1.000  C
  C181     1.0000 0.20830  0.65840  0.25600  Biso   1.000  C
  C182     1.0000 0.79170  0.34160  0.25600  Biso   1.000  C
  C183     1.0000 0.04170  0.90840  0.50600  Biso   1.000  C
  C184     1.0000 0.45830  0.59160  0.50600  Biso   1.000  C
  C185     1.0000 0.70830  0.15840  0.25600  Biso   1.000  C
  C186     1.0000 0.29170  0.84160  0.25600  Biso   1.000  C
  C187     1.0000 0.54170  0.40840  0.50600  Biso   1.000  C
  C188     1.0000 0.95830  0.09160  0.50600  Biso   1.000  C
  C189     1.0000 0.70830  0.65840  0.75600  Biso   1.000  C
  C190     1.0000 0.29170  0.34160  0.75600  Biso   1.000  C
  C191     1.0000 0.54170  0.90840  0.00600  Biso   1.000  C
  C192     1.0000 0.95830  0.59160  0.00600  Biso   1.000  C
  C193     1.0000 0.28740  0.14370  0.34200  Biso   1.000  C
  C194     1.0000 0.71260  0.85630  0.34200  Biso   1.000  C
  C195     1.0000 0.96260  0.39370  0.59200  Biso   1.000  C
  C196     1.0000 0.53740  0.10630  0.59200  Biso   1.000  C
  C197     1.0000 0.28740  0.64370  0.84200  Biso   1.000  C
  C198     1.0000 0.71260  0.35630  0.84200  Biso   1.000  C
  C199     1.0000 0.96260  0.89370  0.09200  Biso   1.000  C
  C200     1.0000 0.53740  0.60630  0.09200  Biso   1.000  C
  C201     1.0000 0.78740  0.14370  0.84200  Biso   1.000  C
  C202     1.0000 0.21260  0.85630  0.84200  Biso   1.000  C
  C203     1.0000 0.46260  0.39370  0.09200  Biso   1.000  C
  C204     1.0000 0.03740  0.10630  0.09200  Biso   1.000  C
  C205     1.0000 0.78740  0.64370  0.34200  Biso   1.000  C
  C206     1.0000 0.21260  0.35630  0.34200  Biso   1.000  C
  C207     1.0000 0.46260  0.89370  0.59200  Biso   1.000  C
  C208     1.0000 0.03740  0.60630  0.59200  Biso   1.000  C
  C209     1.0000 0.19450  0.21140  0.30400  Biso   1.000  C
  C210     1.0000 0.80550  0.78860  0.30400  Biso   1.000  C
  C211     1.0000 0.05550  0.46140  0.55400  Biso   1.000  C
  C212     1.0000 0.44450  0.03860  0.55400  Biso   1.000  C
  C213     1.0000 0.19450  0.71140  0.80400  Biso   1.000  C
  C214     1.0000 0.80550  0.28860  0.80400  Biso   1.000  C
  C215     1.0000 0.05550  0.96140  0.05400  Biso   1.000  C
  C216     1.0000 0.44450  0.53860  0.05400  Biso   1.000  C
  C217     1.0000 0.69450  0.21140  0.80400  Biso   1.000  C
  C218     1.0000 0.30550  0.78860  0.80400  Biso   1.000  C
  C219     1.0000 0.55550  0.46140  0.05400  Biso   1.000  C
  C220     1.0000 0.94450  0.03860  0.05400  Biso   1.000  C
  C221     1.0000 0.69450  0.71140  0.30400  Biso   1.000  C
  C222     1.0000 0.30550  0.28860  0.30400  Biso   1.000  C
  C223     1.0000 0.55550  0.96140  0.55400  Biso   1.000  C
  C224     1.0000 0.94450  0.53860  0.55400  Biso   1.000  C
  C225     1.0000 0.40030  0.96022  0.73100  Biso   1.000  C
  C226     1.0000 0.59970  0.03978  0.73100  Biso   1.000  C
  C227     1.0000 0.84970  0.21022  0.98100  Biso   1.000  C
  C228     1.0000 0.65030  0.28978  0.98100  Biso   1.000  C
  C229     1.0000 0.40030  0.46022  0.23100  Biso   1.000  C
  C230     1.0000 0.59970  0.53978  0.23100  Biso   1.000  C
  C231     1.0000 0.84970  0.71022  0.48100  Biso   1.000  C
  C232     1.0000 0.65030  0.78978  0.48100  Biso   1.000  C
  C233     1.0000 0.90030  0.96022  0.23100  Biso   1.000  C
  C234     1.0000 0.09970  0.03978  0.23100  Biso   1.000  C
  C235     1.0000 0.34970  0.21022  0.48100  Biso   1.000  C
  C236     1.0000 0.15030  0.28978  0.48100  Biso   1.000  C
  C237     1.0000 0.90030  0.46022  0.73100  Biso   1.000  C
  C238     1.0000 0.09970  0.53978  0.73100  Biso   1.000  C
  C239     1.0000 0.34970  0.71022  0.98100  Biso   1.000  C
  C240     1.0000 0.15030  0.78978  0.98100  Biso   1.000  C
  C241     1.0000 0.41340  0.94270  0.88900  Biso   1.000  C
  C242     1.0000 0.58660  0.05730  0.88900  Biso   1.000  C
  C243     1.0000 0.83660  0.19270  0.13900  Biso   1.000  C
  C244     1.0000 0.66340  0.30730  0.13900  Biso   1.000  C
  C245     1.0000 0.41340  0.44270  0.38900  Biso   1.000  C
  C246     1.0000 0.58660  0.55730  0.38900  Biso   1.000  C
  C247     1.0000 0.83660  0.69270  0.63900  Biso   1.000  C
  C248     1.0000 0.66340  0.80730  0.63900  Biso   1.000  C
  C249     1.0000 0.91340  0.94270  0.38900  Biso   1.000  C
  C250     1.0000 0.08660  0.05730  0.38900  Biso   1.000  C
  C251     1.0000 0.33660  0.19270  0.63900  Biso   1.000  C
  C252     1.0000 0.16340  0.30730  0.63900  Biso   1.000  C
  C253     1.0000 0.91340  0.44270  0.88900  Biso   1.000  C
  C254     1.0000 0.08660  0.55730  0.88900  Biso   1.000  C
  C255     1.0000 0.33660  0.69270  0.13900  Biso   1.000  C
  C256     1.0000 0.16340  0.80730  0.13900  Biso   1.000  C
  C257     1.0000 0.43990  0.94810  0.07000  Biso   1.000  C
  C258     1.0000 0.56010  0.05190  0.07000  Biso   1.000  C
  C259     1.0000 0.81010  0.19810  0.32000  Biso   1.000  C
  C260     1.0000 0.68990  0.30190  0.32000  Biso   1.000  C
  C261     1.0000 0.43990  0.44810  0.57000  Biso   1.000  C
  C262     1.0000 0.56010  0.55190  0.57000  Biso   1.000  C
  C263     1.0000 0.81010  0.69810  0.82000  Biso   1.000  C
  C264     1.0000 0.68990  0.80190  0.82000  Biso   1.000  C
  C265     1.0000 0.93990  0.94810  0.57000  Biso   1.000  C
  C266     1.0000 0.06010  0.05190  0.57000  Biso   1.000  C
  C267     1.0000 0.31010  0.19810  0.82000  Biso   1.000  C
  C268     1.0000 0.18990  0.30190  0.82000  Biso   1.000  C
  C269     1.0000 0.93990  0.44810  0.07000  Biso   1.000  C
  C270     1.0000 0.06010  0.55190  0.07000  Biso   1.000  C
  C271     1.0000 0.31010  0.69810  0.32000  Biso   1.000  C
  C272     1.0000 0.18990  0.80190  0.32000  Biso   1.000  C
  C273     1.0000 0.45260  0.97090  0.08700  Biso   1.000  C
  C274     1.0000 0.54740  0.02910  0.08700  Biso   1.000  C
  C275     1.0000 0.79740  0.22090  0.33700  Biso   1.000  C
  C276     1.0000 0.70260  0.27910  0.33700  Biso   1.000  C
  C277     1.0000 0.45260  0.47090  0.58700  Biso   1.000  C
  C278     1.0000 0.54740  0.52910  0.58700  Biso   1.000  C
  C279     1.0000 0.79740  0.72090  0.83700  Biso   1.000  C
  C280     1.0000 0.70260  0.77910  0.83700  Biso   1.000  C
  C281     1.0000 0.95260  0.97090  0.58700  Biso   1.000  C
  C282     1.0000 0.04740  0.02910  0.58700  Biso   1.000  C
  C283     1.0000 0.29740  0.22090  0.83700  Biso   1.000  C
  C284     1.0000 0.20260  0.27910  0.83700  Biso   1.000  C
  C285     1.0000 0.95260  0.47090  0.08700  Biso   1.000  C
  C286     1.0000 0.04740  0.52910  0.08700  Biso   1.000  C
  C287     1.0000 0.29740  0.72090  0.33700  Biso   1.000  C
  C288     1.0000 0.20260  0.77910  0.33700  Biso   1.000  C
  C289     1.0000 0.43840  0.98750  0.92400  Biso   1.000  C
  C290     1.0000 0.56160  0.01250  0.92400  Biso   1.000  C
  C291     1.0000 0.81160  0.23750  0.17400  Biso   1.000  C
  C292     1.0000 0.68840  0.26250  0.17400  Biso   1.000  C
  C293     1.0000 0.43840  0.48750  0.42400  Biso   1.000  C
  C294     1.0000 0.56160  0.51250  0.42400  Biso   1.000  C
  C295     1.0000 0.81160  0.73750  0.67400  Biso   1.000  C
  C296     1.0000 0.68840  0.76250  0.67400  Biso   1.000  C
  C297     1.0000 0.93840  0.98750  0.42400  Biso   1.000  C
  C298     1.0000 0.06160  0.01250  0.42400  Biso   1.000  C
  C299     1.0000 0.31160  0.23750  0.67400  Biso   1.000  C
  C300     1.0000 0.18840  0.26250  0.67400  Biso   1.000  C
  C301     1.0000 0.93840  0.48750  0.92400  Biso   1.000  C
  C302     1.0000 0.06160  0.51250  0.92400  Biso   1.000  C
  C303     1.0000 0.31160  0.73750  0.17400  Biso   1.000  C
  C304     1.0000 0.18840  0.76250  0.17400  Biso   1.000  C
  C305     1.0000 0.37130  0.95640  0.52900  Biso   1.000  C
  C306     1.0000 0.62870  0.04360  0.52900  Biso   1.000  C
  C307     1.0000 0.87870  0.20640  0.77900  Biso   1.000  C
  C308     1.0000 0.62130  0.29360  0.77900  Biso   1.000  C
  C309     1.0000 0.37130  0.45640  0.02900  Biso   1.000  C
  C310     1.0000 0.62870  0.54360  0.02900  Biso   1.000  C
  C311     1.0000 0.87870  0.70640  0.27900  Biso   1.000  C
  C312     1.0000 0.62130  0.79360  0.27900  Biso   1.000  C
  C313     1.0000 0.87130  0.95640  0.02900  Biso   1.000  C
  C314     1.0000 0.12870  0.04360  0.02900  Biso   1.000  C
  C315     1.0000 0.37870  0.20640  0.27900  Biso   1.000  C
  C316     1.0000 0.12130  0.29360  0.27900  Biso   1.000  C
  C317     1.0000 0.87130  0.45640  0.52900  Biso   1.000  C
  C318     1.0000 0.12870  0.54360  0.52900  Biso   1.000  C
  C319     1.0000 0.37870  0.70640  0.77900  Biso   1.000  C
  C320     1.0000 0.12130  0.79360  0.77900  Biso   1.000  C
  C321     1.0000 0.35340  0.93480  0.49000  Biso   1.000  C
  C322     1.0000 0.64660  0.06520  0.49000  Biso   1.000  C
  C323     1.0000 0.89660  0.18480  0.74000  Biso   1.000  C
  C324     1.0000 0.60340  0.31520  0.74000  Biso   1.000  C
  C325     1.0000 0.35340  0.43480  0.99000  Biso   1.000  C
  C326     1.0000 0.64660  0.56520  0.99000  Biso   1.000  C
  C327     1.0000 0.89660  0.68480  0.24000  Biso   1.000  C
  C328     1.0000 0.60340  0.81520  0.24000  Biso   1.000  C
  C329     1.0000 0.85340  0.93480  0.99000  Biso   1.000  C
  C330     1.0000 0.14660  0.06520  0.99000  Biso   1.000  C
  C331     1.0000 0.39660  0.18480  0.24000  Biso   1.000  C
  C332     1.0000 0.10340  0.31520  0.24000  Biso   1.000  C
  C333     1.0000 0.85340  0.43480  0.49000  Biso   1.000  C
  C334     1.0000 0.14660  0.56520  0.49000  Biso   1.000  C
  C335     1.0000 0.39660  0.68480  0.74000  Biso   1.000  C
  C336     1.0000 0.10340  0.81520  0.74000  Biso   1.000  C
  C337     1.0000 0.32620  0.93420  0.29800  Biso   1.000  C
  C338     1.0000 0.67380  0.06580  0.29800  Biso   1.000  C
  C339     1.0000 0.92380  0.18420  0.54800  Biso   1.000  C
  C340     1.0000 0.57620  0.31580  0.54800  Biso   1.000  C
  C341     1.0000 0.32620  0.43420  0.79800  Biso   1.000  C
  C342     1.0000 0.67380  0.56580  0.79800  Biso   1.000  C
  C343     1.0000 0.92380  0.68420  0.04800  Biso   1.000  C
  C344     1.0000 0.57620  0.81580  0.04800  Biso   1.000  C
  C345     1.0000 0.82620  0.93420  0.79800  Biso   1.000  C
  C346     1.0000 0.17380  0.06580  0.79800  Biso   1.000  C
  C347     1.0000 0.42380  0.18420  0.04800  Biso   1.000  C
  C348     1.0000 0.07620  0.31580  0.04800  Biso   1.000  C
  C349     1.0000 0.82620  0.43420  0.29800  Biso   1.000  C
  C350     1.0000 0.17380  0.56580  0.29800  Biso   1.000  C
  C351     1.0000 0.42380  0.68420  0.54800  Biso   1.000  C
  C352     1.0000 0.07620  0.81580  0.54800  Biso   1.000  C
  C353     1.0000 0.31890  0.95280  0.14900  Biso   1.000  C
  C354     1.0000 0.68110  0.04720  0.14900  Biso   1.000  C
  C355     1.0000 0.93110  0.20280  0.39900  Biso   1.000  C
  C356     1.0000 0.56890  0.29720  0.39900  Biso   1.000  C
  C357     1.0000 0.31890  0.45280  0.64900  Biso   1.000  C
  C358     1.0000 0.68110  0.54720  0.64900  Biso   1.000  C
  C359     1.0000 0.93110  0.70280  0.89900  Biso   1.000  C
  C360     1.0000 0.56890  0.79720  0.89900  Biso   1.000  C
  C361     1.0000 0.81890  0.95280  0.64900  Biso   1.000  C
  C362     1.0000 0.18110  0.04720  0.64900  Biso   1.000  C
  C363     1.0000 0.43110  0.20280  0.89900  Biso   1.000  C
  C364     1.0000 0.06890  0.29720  0.89900  Biso   1.000  C
  C365     1.0000 0.81890  0.45280  0.14900  Biso   1.000  C
  C366     1.0000 0.18110  0.54720  0.14900  Biso   1.000  C
  C367     1.0000 0.43110  0.70280  0.39900  Biso   1.000  C
  C368     1.0000 0.06890  0.79720  0.39900  Biso   1.000  C
  C369     1.0000 0.33860  0.97420  0.19300  Biso   1.000  C
  C370     1.0000 0.66140  0.02580  0.19300  Biso   1.000  C
  C371     1.0000 0.91140  0.22420  0.44300  Biso   1.000  C
  C372     1.0000 0.58860  0.27580  0.44300  Biso   1.000  C
  C373     1.0000 0.33860  0.47420  0.69300  Biso   1.000  C
  C374     1.0000 0.66140  0.52580  0.69300  Biso   1.000  C
  C375     1.0000 0.91140  0.72420  0.94300  Biso   1.000  C
  C376     1.0000 0.58860  0.77580  0.94300  Biso   1.000  C
  C377     1.0000 0.83860  0.97420  0.69300  Biso   1.000  C
  C378     1.0000 0.16140  0.02580  0.69300  Biso   1.000  C
  C379     1.0000 0.41140  0.22420  0.94300  Biso   1.000  C
  C380     1.0000 0.08860  0.27580  0.94300  Biso   1.000  C
  C381     1.0000 0.83860  0.47420  0.19300  Biso   1.000  C
  C382     1.0000 0.16140  0.52580  0.19300  Biso   1.000  C
  C383     1.0000 0.41140  0.72420  0.44300  Biso   1.000  C
  C384     1.0000 0.08860  0.77580  0.44300  Biso   1.000  C
  H1       1.0000 0.27820  0.05780  0.40450  Biso   1.000  H
  H2       1.0000 0.72180  0.94220  0.40450  Biso   1.000  H
  H3       1.0000 0.97180  0.30780  0.65450  Biso   1.000  H
  H4       1.0000 0.52820  0.19220  0.65450  Biso   1.000  H
  H5       1.0000 0.27820  0.55780  0.90450  Biso   1.000  H
  H6       1.0000 0.72180  0.44220  0.90450  Biso   1.000  H
  H7       1.0000 0.97180  0.80780  0.15450  Biso   1.000  H
  H8       1.0000 0.52820  0.69220  0.15450  Biso   1.000  H
  H9       1.0000 0.77820  0.05780  0.90450  Biso   1.000  H
  H10      1.0000 0.22180  0.94220  0.90450  Biso   1.000  H
  H11      1.0000 0.47180  0.30780  0.15450  Biso   1.000  H
  H12      1.0000 0.02820  0.19220  0.15450  Biso   1.000  H
  H13      1.0000 0.77820  0.55780  0.40450  Biso   1.000  H
  H14      1.0000 0.22180  0.44220  0.40450  Biso   1.000  H
  H15      1.0000 0.47180  0.80780  0.65450  Biso   1.000  H
  H16      1.0000 0.02820  0.69220  0.65450  Biso   1.000  H
  H17      1.0000 0.36130  0.05610  0.87390  Biso   1.000  H
  H18      1.0000 0.63870  0.94390  0.87390  Biso   1.000  H
  H19      1.0000 0.88870  0.30610  0.12390  Biso   1.000  H
  H20      1.0000 0.61130  0.19390  0.12390  Biso   1.000  H
  H21      1.0000 0.36130  0.55610  0.37390  Biso   1.000  H
  H22      1.0000 0.63870  0.44390  0.37390  Biso   1.000  H
  H23      1.0000 0.88870  0.80610  0.62390  Biso   1.000  H
  H24      1.0000 0.61130  0.69390  0.62390  Biso   1.000  H
  H25      1.0000 0.86130  0.05610  0.37390  Biso   1.000  H
  H26      1.0000 0.13870  0.94390  0.37390  Biso   1.000  H
  H27      1.0000 0.38870  0.30610  0.62390  Biso   1.000  H
  H28      1.0000 0.11130  0.19390  0.62390  Biso   1.000  H
  H29      1.0000 0.86130  0.55610  0.87390  Biso   1.000  H
  H30      1.0000 0.13870  0.44390  0.87390  Biso   1.000  H
  H31      1.0000 0.38870  0.80610  0.12390  Biso   1.000  H
  H32      1.0000 0.11130  0.69390  0.12390  Biso   1.000  H
  H33      1.0000 0.33470  0.08890  0.67150  Biso   1.000  H
  H34      1.0000 0.66530  0.91110  0.67150  Biso   1.000  H
  H35      1.0000 0.91530  0.33890  0.92150  Biso   1.000  H
  H36      1.0000 0.58470  0.16110  0.92150  Biso   1.000  H
  H37      1.0000 0.33470  0.58890  0.17150  Biso   1.000  H
  H38      1.0000 0.66530  0.41110  0.17150  Biso   1.000  H
  H39      1.0000 0.91530  0.83890  0.42150  Biso   1.000  H
  H40      1.0000 0.58470  0.66110  0.42150  Biso   1.000  H
  H41      1.0000 0.83470  0.08890  0.17150  Biso   1.000  H
  H42      1.0000 0.16530  0.91110  0.17150  Biso   1.000  H
  H43      1.0000 0.41530  0.33890  0.42150  Biso   1.000  H
  H44      1.0000 0.08470  0.16110  0.42150  Biso   1.000  H
  H45      1.0000 0.83470  0.58890  0.67150  Biso   1.000  H
  H46      1.0000 0.16530  0.41110  0.67150  Biso   1.000  H
  H47      1.0000 0.41530  0.83890  0.92150  Biso   1.000  H
  H48      1.0000 0.08470  0.66110  0.92150  Biso   1.000  H
  H49      1.0000 0.25150  0.18370  0.17620  Biso   1.000  H
  H50      1.0000 0.74850  0.81630  0.17620  Biso   1.000  H
  H51      1.0000 0.99850  0.43370  0.42620  Biso   1.000  H
  H52      1.0000 0.50150  0.06630  0.42620  Biso   1.000  H
  H53      1.0000 0.25150  0.68370  0.67620  Biso   1.000  H
  H54      1.0000 0.74850  0.31630  0.67620  Biso   1.000  H
  H55      1.0000 0.99850  0.93370  0.92620  Biso   1.000  H
  H56      1.0000 0.50150  0.56630  0.92620  Biso   1.000  H
  H57      1.0000 0.75150  0.18370  0.67620  Biso   1.000  H
  H58      1.0000 0.24850  0.81630  0.67620  Biso   1.000  H
  H59      1.0000 0.49850  0.43370  0.92620  Biso   1.000  H
  H60      1.0000 0.00150  0.06630  0.92620  Biso   1.000  H
  H61      1.0000 0.75150  0.68370  0.17620  Biso   1.000  H
  H62      1.0000 0.24850  0.31630  0.17620  Biso   1.000  H
  H63      1.0000 0.49850  0.93370  0.42620  Biso   1.000  H
  H64      1.0000 0.00150  0.56630  0.42620  Biso   1.000  H
  H65      1.0000 0.17430  0.18790  0.73590  Biso   1.000  H
  H66      1.0000 0.82570  0.81210  0.73590  Biso   1.000  H
  H67      1.0000 0.07570  0.43790  0.98590  Biso   1.000  H
  H68      1.0000 0.42430  0.06210  0.98590  Biso   1.000  H
  H69      1.0000 0.17430  0.68790  0.23590  Biso   1.000  H
  H70      1.0000 0.82570  0.31210  0.23590  Biso   1.000  H
  H71      1.0000 0.07570  0.93790  0.48590  Biso   1.000  H
  H72      1.0000 0.42430  0.56210  0.48590  Biso   1.000  H
  H73      1.0000 0.67430  0.18790  0.23590  Biso   1.000  H
  H74      1.0000 0.32570  0.81210  0.23590  Biso   1.000  H
  H75      1.0000 0.57570  0.43790  0.48590  Biso   1.000  H
  H76      1.0000 0.92430  0.06210  0.48590  Biso   1.000  H
  H77      1.0000 0.67430  0.68790  0.73590  Biso   1.000  H
  H78      1.0000 0.32570  0.31210  0.73590  Biso   1.000  H
  H79      1.0000 0.57570  0.93790  0.98590  Biso   1.000  H
  H80      1.0000 0.92430  0.56210  0.98590  Biso   1.000  H
  H81      1.0000 0.19650  0.15140  0.90390  Biso   1.000  H
  H82      1.0000 0.80350  0.84860  0.90390  Biso   1.000  H
  H83      1.0000 0.05350  0.40140  0.15390  Biso   1.000  H
  H84      1.0000 0.44650  0.09860  0.15390  Biso   1.000  H
  H85      1.0000 0.19650  0.65140  0.40390  Biso   1.000  H
  H86      1.0000 0.80350  0.34860  0.40390  Biso   1.000  H
  H87      1.0000 0.05350  0.90140  0.65390  Biso   1.000  H
  H88      1.0000 0.44650  0.59860  0.65390  Biso   1.000  H
  H89      1.0000 0.69650  0.15140  0.40390  Biso   1.000  H
  H90      1.0000 0.30350  0.84860  0.40390  Biso   1.000  H
  H91      1.0000 0.55350  0.40140  0.65390  Biso   1.000  H
  H92      1.0000 0.94650  0.09860  0.65390  Biso   1.000  H
  H93      1.0000 0.69650  0.65140  0.90390  Biso   1.000  H
  H94      1.0000 0.30350  0.34860  0.90390  Biso   1.000  H
  H95      1.0000 0.55350  0.90140  0.15390  Biso   1.000  H
  H96      1.0000 0.94650  0.59860  0.15390  Biso   1.000  H
  H97      1.0000 0.40410  0.92710  0.87630  Biso   1.000  H
  H98      1.0000 0.59590  0.07290  0.87630  Biso   1.000  H
  H99      1.0000 0.84590  0.17710  0.12630  Biso   1.000  H
  H100     1.0000 0.65410  0.32290  0.12630  Biso   1.000  H
  H101     1.0000 0.40410  0.42710  0.37630  Biso   1.000  H
  H102     1.0000 0.59590  0.57290  0.37630  Biso   1.000  H
  H103     1.0000 0.84590  0.67710  0.62630  Biso   1.000  H
  H104     1.0000 0.65410  0.82290  0.62630  Biso   1.000  H
  H105     1.0000 0.90410  0.92710  0.37630  Biso   1.000  H
  H106     1.0000 0.09590  0.07290  0.37630  Biso   1.000  H
  H107     1.0000 0.34590  0.17710  0.62630  Biso   1.000  H
  H108     1.0000 0.15410  0.32290  0.62630  Biso   1.000  H
  H109     1.0000 0.90410  0.42710  0.87630  Biso   1.000  H
  H110     1.0000 0.09590  0.57290  0.87630  Biso   1.000  H
  H111     1.0000 0.34590  0.67710  0.12630  Biso   1.000  H
  H112     1.0000 0.15410  0.82290  0.12630  Biso   1.000  H
  H113     1.0000 0.44930  0.93620  0.18550  Biso   1.000  H
  H114     1.0000 0.55070  0.06380  0.18550  Biso   1.000  H
  H115     1.0000 0.80070  0.18620  0.43550  Biso   1.000  H
  H116     1.0000 0.69930  0.31380  0.43550  Biso   1.000  H
  H117     1.0000 0.44930  0.43620  0.68550  Biso   1.000  H
  H118     1.0000 0.55070  0.56380  0.68550  Biso   1.000  H
  H119     1.0000 0.80070  0.68620  0.93550  Biso   1.000  H
  H120     1.0000 0.69930  0.81380  0.93550  Biso   1.000  H
  H121     1.0000 0.94930  0.93620  0.68550  Biso   1.000  H
  H122     1.0000 0.05070  0.06380  0.68550  Biso   1.000  H
  H123     1.0000 0.30070  0.18620  0.93550  Biso   1.000  H
  H124     1.0000 0.19930  0.31380  0.93550  Biso   1.000  H
  H125     1.0000 0.94930  0.43620  0.18550  Biso   1.000  H
  H126     1.0000 0.05070  0.56380  0.18550  Biso   1.000  H
  H127     1.0000 0.30070  0.68620  0.43550  Biso   1.000  H
  H128     1.0000 0.19930  0.81380  0.43550  Biso   1.000  H
  H129     1.0000 0.47100  0.97500  0.21440  Biso   1.000  H
  H130     1.0000 0.52900  0.02500  0.21440  Biso   1.000  H
  H131     1.0000 0.77900  0.22500  0.46440  Biso   1.000  H
  H132     1.0000 0.72100  0.27500  0.46440  Biso   1.000  H
  H133     1.0000 0.47100  0.47500  0.71440  Biso   1.000  H
  H134     1.0000 0.52900  0.52500  0.71440  Biso   1.000  H
  H135     1.0000 0.77900  0.72500  0.96440  Biso   1.000  H
  H136     1.0000 0.72100  0.77500  0.96440  Biso   1.000  H
  H137     1.0000 0.97100  0.97500  0.71440  Biso   1.000  H
  H138     1.0000 0.02900  0.02500  0.71440  Biso   1.000  H
  H139     1.0000 0.27900  0.22500  0.96440  Biso   1.000  H
  H140     1.0000 0.22100  0.27500  0.96440  Biso   1.000  H
  H141     1.0000 0.97100  0.47500  0.21440  Biso   1.000  H
  H142     1.0000 0.02900  0.52500  0.21440  Biso   1.000  H
  H143     1.0000 0.27900  0.72500  0.46440  Biso   1.000  H
  H144     1.0000 0.22100  0.77500  0.46440  Biso   1.000  H
  H145     1.0000 0.44710  0.00340  0.94250  Biso   1.000  H
  H146     1.0000 0.55290  0.99660  0.94250  Biso   1.000  H
  H147     1.0000 0.80290  0.25340  0.19250  Biso   1.000  H
  H148     1.0000 0.69710  0.24660  0.19250  Biso   1.000  H
  H149     1.0000 0.44710  0.50340  0.44250  Biso   1.000  H
  H150     1.0000 0.55290  0.49660  0.44250  Biso   1.000  H
  H151     1.0000 0.80290  0.75340  0.69250  Biso   1.000  H
  H152     1.0000 0.69710  0.74660  0.69250  Biso   1.000  H
  H153     1.0000 0.94710  0.00340  0.44250  Biso   1.000  H
  H154     1.0000 0.05290  0.99660  0.44250  Biso   1.000  H
  H155     1.0000 0.30290  0.25340  0.69250  Biso   1.000  H
  H156     1.0000 0.19710  0.24660  0.69250  Biso   1.000  H
  H157     1.0000 0.94710  0.50340  0.94250  Biso   1.000  H
  H158     1.0000 0.05290  0.49660  0.94250  Biso   1.000  H
  H159     1.0000 0.30290  0.75340  0.19250  Biso   1.000  H
  H160     1.0000 0.19710  0.74660  0.19250  Biso   1.000  H
  H161     1.0000 0.36000  0.92110  0.58990  Biso   1.000  H
  H162     1.0000 0.64000  0.07890  0.58990  Biso   1.000  H
  H163     1.0000 0.89000  0.17110  0.83990  Biso   1.000  H
  H164     1.0000 0.61000  0.32890  0.83990  Biso   1.000  H
  H165     1.0000 0.36000  0.42110  0.08990  Biso   1.000  H
  H166     1.0000 0.64000  0.57890  0.08990  Biso   1.000  H
  H167     1.0000 0.89000  0.67110  0.33990  Biso   1.000  H
  H168     1.0000 0.61000  0.82890  0.33990  Biso   1.000  H
  H169     1.0000 0.86000  0.92110  0.08990  Biso   1.000  H
  H170     1.0000 0.14000  0.07890  0.08990  Biso   1.000  H
  H171     1.0000 0.39000  0.17110  0.33990  Biso   1.000  H
  H172     1.0000 0.11000  0.32890  0.33990  Biso   1.000  H
  H173     1.0000 0.86000  0.42110  0.58990  Biso   1.000  H
  H174     1.0000 0.14000  0.57890  0.58990  Biso   1.000  H
  H175     1.0000 0.39000  0.67110  0.83990  Biso   1.000  H
  H176     1.0000 0.11000  0.82890  0.83990  Biso   1.000  H
  H177     1.0000 0.31200  0.92020  0.27960  Biso   1.000  H
  H178     1.0000 0.68800  0.07980  0.27960  Biso   1.000  H
  H179     1.0000 0.93800  0.17020  0.52960  Biso   1.000  H
  H180     1.0000 0.56200  0.32980  0.52960  Biso   1.000  H
  H181     1.0000 0.31200  0.42020  0.77960  Biso   1.000  H
  H182     1.0000 0.68800  0.57980  0.77960  Biso   1.000  H
  H183     1.0000 0.93800  0.67020  0.02960  Biso   1.000  H
  H184     1.0000 0.56200  0.82980  0.02960  Biso   1.000  H
  H185     1.0000 0.81200  0.92020  0.77960  Biso   1.000  H
  H186     1.0000 0.18800  0.07980  0.77960  Biso   1.000  H
  H187     1.0000 0.43800  0.17020  0.02960  Biso   1.000  H
  H188     1.0000 0.06200  0.32980  0.02960  Biso   1.000  H
  H189     1.0000 0.81200  0.42020  0.27960  Biso   1.000  H
  H190     1.0000 0.18800  0.57980  0.27960  Biso   1.000  H
  H191     1.0000 0.43800  0.67020  0.52960  Biso   1.000  H
  H192     1.0000 0.06200  0.82980  0.52960  Biso   1.000  H
  H193     1.0000 0.30130  0.95160  0.01700  Biso   1.000  H
  H194     1.0000 0.69870  0.04840  0.01700  Biso   1.000  H
  H195     1.0000 0.94870  0.20160  0.26700  Biso   1.000  H
  H196     1.0000 0.55130  0.29840  0.26700  Biso   1.000  H
  H197     1.0000 0.30130  0.45160  0.51700  Biso   1.000  H
  H198     1.0000 0.69870  0.54840  0.51700  Biso   1.000  H
  H199     1.0000 0.94870  0.70160  0.76700  Biso   1.000  H
  H200     1.0000 0.55130  0.79840  0.76700  Biso   1.000  H
  H201     1.0000 0.80130  0.95160  0.51700  Biso   1.000  H
  H202     1.0000 0.19870  0.04840  0.51700  Biso   1.000  H
  H203     1.0000 0.44870  0.20160  0.76700  Biso   1.000  H
  H204     1.0000 0.05130  0.29840  0.76700  Biso   1.000  H
  H205     1.0000 0.80130  0.45160  0.01700  Biso   1.000  H
  H206     1.0000 0.19870  0.54840  0.01700  Biso   1.000  H
  H207     1.0000 0.44870  0.70160  0.26700  Biso   1.000  H
  H208     1.0000 0.05130  0.79840  0.26700  Biso   1.000  H
  H209     1.0000 0.33350  0.98760  0.08980  Biso   1.000  H
  H210     1.0000 0.66650  0.01240  0.08980  Biso   1.000  H
  H211     1.0000 0.91650  0.23760  0.33980  Biso   1.000  H
  H212     1.0000 0.58350  0.26240  0.33980  Biso   1.000  H
  H213     1.0000 0.33350  0.48760  0.58980  Biso   1.000  H
  H214     1.0000 0.66650  0.51240  0.58980  Biso   1.000  H
  H215     1.0000 0.91650  0.73760  0.83980  Biso   1.000  H
  H216     1.0000 0.58350  0.76240  0.83980  Biso   1.000  H
  H217     1.0000 0.83350  0.98760  0.58980  Biso   1.000  H
  H218     1.0000 0.16650  0.01240  0.58980  Biso   1.000  H
  H219     1.0000 0.41650  0.23760  0.83980  Biso   1.000  H
  H220     1.0000 0.08350  0.26240  0.83980  Biso   1.000  H
  H221     1.0000 0.83350  0.48760  0.08980  Biso   1.000  H
  H222     1.0000 0.16650  0.51240  0.08980  Biso   1.000  H
  H223     1.0000 0.41650  0.73760  0.33980  Biso   1.000  H
  H224     1.0000 0.08350  0.76240  0.33980  Biso   1.000  H
