data_image0
_cell_length_a       26.7137
_cell_length_b       26.7137
_cell_length_c       13.739
_cell_angle_alpha    90
_cell_angle_beta     90
_cell_angle_gamma    90

_symmetry_space_group_name_H-M    "P 1"
_symmetry_int_tables_number       1

loop_
  _symmetry_equiv_pos_as_xyz
  'x, y, z'

loop_
  _atom_site_label
  _atom_site_occupancy
  _atom_site_fract_x
  _atom_site_fract_y
  _atom_site_fract_z
  _atom_site_thermal_displace_type
  _atom_site_B_iso_or_equiv
  _atom_site_type_symbol
  Cu1      1.0000 0.76456  0.84114  0.45603  Biso   1.000  Cu
  Cu2      1.0000 0.90886  0.01456  0.70603  Biso   1.000  Cu
  Cu3      1.0000 0.73544  0.15886  0.95603  Biso   1.000  Cu
  Cu4      1.0000 0.59114  0.98544  0.20603  Biso   1.000  Cu
  Cu5      1.0000 0.26456  0.34114  0.95603  Biso   1.000  Cu
  Cu6      1.0000 0.40886  0.51456  0.20603  Biso   1.000  Cu
  Cu7      1.0000 0.23544  0.65886  0.45603  Biso   1.000  Cu
  Cu8      1.0000 0.09114  0.48544  0.70603  Biso   1.000  Cu
  Cu9      1.0000 0.23544  0.15886  0.54397  Biso   1.000  Cu
  Cu10     1.0000 0.59114  0.48544  0.79397  Biso   1.000  Cu
  Cu11     1.0000 0.26456  0.84114  0.04397  Biso   1.000  Cu
  Cu12     1.0000 0.90886  0.51456  0.29397  Biso   1.000  Cu
  Cu13     1.0000 0.73544  0.65886  0.04397  Biso   1.000  Cu
  Cu14     1.0000 0.09114  0.98544  0.29397  Biso   1.000  Cu
  Cu15     1.0000 0.76456  0.34114  0.54397  Biso   1.000  Cu
  Cu16     1.0000 0.40886  0.01456  0.79397  Biso   1.000  Cu
  C1       1.0000 0.69448  0.90123  0.35920  Biso   1.000  C
  C2       1.0000 0.84877  0.94448  0.60920  Biso   1.000  C
  C3       1.0000 0.80552  0.09877  0.85920  Biso   1.000  C
  C4       1.0000 0.65123  0.05552  0.10920  Biso   1.000  C
  C5       1.0000 0.19448  0.40123  0.85920  Biso   1.000  C
  C6       1.0000 0.34877  0.44448  0.10920  Biso   1.000  C
  C7       1.0000 0.30552  0.59877  0.35920  Biso   1.000  C
  C8       1.0000 0.15123  0.55552  0.60920  Biso   1.000  C
  C9       1.0000 0.30552  0.09877  0.64080  Biso   1.000  C
  C10      1.0000 0.65123  0.55552  0.89080  Biso   1.000  C
  C11      1.0000 0.19448  0.90123  0.14080  Biso   1.000  C
  C12      1.0000 0.84877  0.44448  0.39080  Biso   1.000  C
  C13      1.0000 0.80552  0.59877  0.14080  Biso   1.000  C
  C14      1.0000 0.15123  0.05552  0.39080  Biso   1.000  C
  C15      1.0000 0.69448  0.40123  0.64080  Biso   1.000  C
  C16      1.0000 0.34877  0.94448  0.89080  Biso   1.000  C
  C17      1.0000 0.66797  0.86078  0.31640  Biso   1.000  C
  C18      1.0000 0.88922  0.91797  0.56640  Biso   1.000  C
  C19      1.0000 0.83203  0.13922  0.81640  Biso   1.000  C
  C20      1.0000 0.61078  0.08203  0.06640  Biso   1.000  C
  C21      1.0000 0.16797  0.36078  0.81640  Biso   1.000  C
  C22      1.0000 0.38922  0.41797  0.06640  Biso   1.000  C
  C23      1.0000 0.33203  0.63922  0.31640  Biso   1.000  C
  C24      1.0000 0.11078  0.58203  0.56640  Biso   1.000  C
  C25      1.0000 0.33203  0.13922  0.68360  Biso   1.000  C
  C26      1.0000 0.61078  0.58203  0.93360  Biso   1.000  C
  C27      1.0000 0.16797  0.86078  0.18360  Biso   1.000  C
  C28      1.0000 0.88922  0.41797  0.43360  Biso   1.000  C
  C29      1.0000 0.83203  0.63922  0.18360  Biso   1.000  C
  C30      1.0000 0.11078  0.08203  0.43360  Biso   1.000  C
  C31      1.0000 0.66797  0.36078  0.68360  Biso   1.000  C
  C32      1.0000 0.38922  0.91797  0.93360  Biso   1.000  C
  C33      1.0000 0.62733  0.88274  0.26610  Biso   1.000  C
  C34      1.0000 0.86726  0.87733  0.51610  Biso   1.000  C
  C35      1.0000 0.87267  0.11726  0.76610  Biso   1.000  C
  C36      1.0000 0.63274  0.12267  0.01610  Biso   1.000  C
  C37      1.0000 0.12733  0.38274  0.76610  Biso   1.000  C
  C38      1.0000 0.36726  0.37733  0.01610  Biso   1.000  C
  C39      1.0000 0.37267  0.61726  0.26610  Biso   1.000  C
  C40      1.0000 0.13274  0.62267  0.51610  Biso   1.000  C
  C41      1.0000 0.37267  0.11726  0.73390  Biso   1.000  C
  C42      1.0000 0.63274  0.62267  0.98390  Biso   1.000  C
  C43      1.0000 0.12733  0.88274  0.23390  Biso   1.000  C
  C44      1.0000 0.86726  0.37733  0.48390  Biso   1.000  C
  C45      1.0000 0.87267  0.61726  0.23390  Biso   1.000  C
  C46      1.0000 0.13274  0.12267  0.48390  Biso   1.000  C
  C47      1.0000 0.62733  0.38274  0.73390  Biso   1.000  C
  C48      1.0000 0.36726  0.87733  0.98390  Biso   1.000  C
  C49      1.0000 0.58809  0.85944  0.20330  Biso   1.000  C
  C50      1.0000 0.89056  0.83809  0.45330  Biso   1.000  C
  C51      1.0000 0.91191  0.14056  0.70330  Biso   1.000  C
  C52      1.0000 0.60944  0.16191  0.95330  Biso   1.000  C
  C53      1.0000 0.08809  0.35944  0.70330  Biso   1.000  C
  C54      1.0000 0.39056  0.33809  0.95330  Biso   1.000  C
  C55      1.0000 0.41191  0.64056  0.20330  Biso   1.000  C
  C56      1.0000 0.10944  0.66191  0.45330  Biso   1.000  C
  C57      1.0000 0.41191  0.14056  0.79670  Biso   1.000  C
  C58      1.0000 0.60944  0.66191  0.04670  Biso   1.000  C
  C59      1.0000 0.08809  0.85944  0.29670  Biso   1.000  C
  C60      1.0000 0.89056  0.33809  0.54670  Biso   1.000  C
  C61      1.0000 0.91191  0.64056  0.29670  Biso   1.000  C
  C62      1.0000 0.10944  0.16191  0.54670  Biso   1.000  C
  C63      1.0000 0.58809  0.35944  0.79670  Biso   1.000  C
  C64      1.0000 0.39056  0.83809  0.04670  Biso   1.000  C
  H1       1.0000 0.55910  0.85200  0.24200  Biso   1.000  H
  H2       1.0000 0.89800  0.80910  0.49200  Biso   1.000  H
  H3       1.0000 0.94090  0.14800  0.74200  Biso   1.000  H
  H4       1.0000 0.60200  0.19090  0.99200  Biso   1.000  H
  H5       1.0000 0.05910  0.35200  0.74200  Biso   1.000  H
  H6       1.0000 0.39800  0.30910  0.99200  Biso   1.000  H
  H7       1.0000 0.44090  0.64800  0.24200  Biso   1.000  H
  H8       1.0000 0.10200  0.69090  0.49200  Biso   1.000  H
  H9       1.0000 0.44090  0.14800  0.75800  Biso   1.000  H
  H10      1.0000 0.60200  0.69090  0.00800  Biso   1.000  H
  H11      1.0000 0.05910  0.85200  0.25800  Biso   1.000  H
  H12      1.0000 0.89800  0.30910  0.50800  Biso   1.000  H
  H13      1.0000 0.94090  0.64800  0.25800  Biso   1.000  H
  H14      1.0000 0.10200  0.19090  0.50800  Biso   1.000  H
  H15      1.0000 0.55910  0.35200  0.75800  Biso   1.000  H
  H16      1.0000 0.39800  0.80910  0.00800  Biso   1.000  H
  H17      1.0000 0.60090  0.82910  0.17540  Biso   1.000  H
  H18      1.0000 0.92090  0.85090  0.42540  Biso   1.000  H
  H19      1.0000 0.89910  0.17090  0.67540  Biso   1.000  H
  H20      1.0000 0.57910  0.14910  0.92540  Biso   1.000  H
  H21      1.0000 0.10090  0.32910  0.67540  Biso   1.000  H
  H22      1.0000 0.42090  0.35090  0.92540  Biso   1.000  H
  H23      1.0000 0.39910  0.67090  0.17540  Biso   1.000  H
  H24      1.0000 0.07910  0.64910  0.42540  Biso   1.000  H
  H25      1.0000 0.39910  0.17090  0.82460  Biso   1.000  H
  H26      1.0000 0.57910  0.64910  0.07460  Biso   1.000  H
  H27      1.0000 0.10090  0.82910  0.32460  Biso   1.000  H
  H28      1.0000 0.92090  0.35090  0.57460  Biso   1.000  H
  H29      1.0000 0.89910  0.67090  0.32460  Biso   1.000  H
  H30      1.0000 0.07910  0.14910  0.57460  Biso   1.000  H
  H31      1.0000 0.60090  0.32910  0.82460  Biso   1.000  H
  H32      1.0000 0.42090  0.85090  0.07460  Biso   1.000  H
  H33      1.0000 0.57910  0.88220  0.15220  Biso   1.000  H
  H34      1.0000 0.86780  0.82910  0.40220  Biso   1.000  H
  H35      1.0000 0.92090  0.11780  0.65220  Biso   1.000  H
  H36      1.0000 0.63220  0.17090  0.90220  Biso   1.000  H
  H37      1.0000 0.07910  0.38220  0.65220  Biso   1.000  H
  H38      1.0000 0.36780  0.32910  0.90220  Biso   1.000  H
  H39      1.0000 0.42090  0.61780  0.15220  Biso   1.000  H
  H40      1.0000 0.13220  0.67090  0.40220  Biso   1.000  H
  H41      1.0000 0.42090  0.11780  0.84780  Biso   1.000  H
  H42      1.0000 0.63220  0.67090  0.09780  Biso   1.000  H
  H43      1.0000 0.07910  0.88220  0.34780  Biso   1.000  H
  H44      1.0000 0.86780  0.32910  0.59780  Biso   1.000  H
  H45      1.0000 0.92090  0.61780  0.34780  Biso   1.000  H
  H46      1.0000 0.13220  0.17090  0.59780  Biso   1.000  H
  H47      1.0000 0.57910  0.38220  0.84780  Biso   1.000  H
  H48      1.0000 0.36780  0.82910  0.09780  Biso   1.000  H
  C65      1.0000 0.67388  0.99329  0.37140  Biso   1.000  C
  C66      1.0000 0.75671  0.92388  0.62140  Biso   1.000  C
  C67      1.0000 0.82612  0.00671  0.87140  Biso   1.000  C
  C68      1.0000 0.74329  0.07612  0.12140  Biso   1.000  C
  C69      1.0000 0.17388  0.49329  0.87140  Biso   1.000  C
  C70      1.0000 0.25671  0.42388  0.12140  Biso   1.000  C
  C71      1.0000 0.32612  0.50671  0.37140  Biso   1.000  C
  C72      1.0000 0.24329  0.57612  0.62140  Biso   1.000  C
  C73      1.0000 0.32612  0.00671  0.62860  Biso   1.000  C
  C74      1.0000 0.74329  0.57612  0.87860  Biso   1.000  C
  C75      1.0000 0.17388  0.99329  0.12860  Biso   1.000  C
  C76      1.0000 0.75671  0.42388  0.37860  Biso   1.000  C
  C77      1.0000 0.82612  0.50671  0.12860  Biso   1.000  C
  C78      1.0000 0.24329  0.07612  0.37860  Biso   1.000  C
  C79      1.0000 0.67388  0.49329  0.62860  Biso   1.000  C
  C80      1.0000 0.25671  0.92388  0.87860  Biso   1.000  C
  C81      1.0000 0.63225  0.01468  0.41340  Biso   1.000  C
  C82      1.0000 0.73532  0.88225  0.66340  Biso   1.000  C
  C83      1.0000 0.86775  0.98532  0.91340  Biso   1.000  C
  C84      1.0000 0.76468  0.11775  0.16340  Biso   1.000  C
  C85      1.0000 0.13225  0.51468  0.91340  Biso   1.000  C
  C86      1.0000 0.23532  0.38225  0.16340  Biso   1.000  C
  C87      1.0000 0.36775  0.48532  0.41340  Biso   1.000  C
  C88      1.0000 0.26468  0.61775  0.66340  Biso   1.000  C
  C89      1.0000 0.36775  0.98532  0.58660  Biso   1.000  C
  C90      1.0000 0.76468  0.61775  0.83660  Biso   1.000  C
  C91      1.0000 0.13225  0.01468  0.08660  Biso   1.000  C
  C92      1.0000 0.73532  0.38225  0.33660  Biso   1.000  C
  C93      1.0000 0.86775  0.48532  0.08660  Biso   1.000  C
  C94      1.0000 0.26468  0.11775  0.33660  Biso   1.000  C
  C95      1.0000 0.63225  0.51468  0.58660  Biso   1.000  C
  C96      1.0000 0.23532  0.88225  0.83660  Biso   1.000  C
  H49      1.0000 0.60280  0.99640  0.41980  Biso   1.000  H
  H50      1.0000 0.75360  0.85280  0.66980  Biso   1.000  H
  H51      1.0000 0.89720  0.00360  0.91980  Biso   1.000  H
  H52      1.0000 0.74640  0.14720  0.16980  Biso   1.000  H
  H53      1.0000 0.10280  0.49640  0.91980  Biso   1.000  H
  H54      1.0000 0.25360  0.35280  0.16980  Biso   1.000  H
  H55      1.0000 0.39720  0.50360  0.41980  Biso   1.000  H
  H56      1.0000 0.24640  0.64720  0.66980  Biso   1.000  H
  H57      1.0000 0.39720  0.00360  0.58020  Biso   1.000  H
  H58      1.0000 0.74640  0.64720  0.83020  Biso   1.000  H
  H59      1.0000 0.10280  0.99640  0.08020  Biso   1.000  H
  H60      1.0000 0.75360  0.35280  0.33020  Biso   1.000  H
  H61      1.0000 0.89720  0.50360  0.08020  Biso   1.000  H
  H62      1.0000 0.24640  0.14720  0.33020  Biso   1.000  H
  H63      1.0000 0.60280  0.49640  0.58020  Biso   1.000  H
  H64      1.0000 0.25360  0.85280  0.83020  Biso   1.000  H
  C97      1.0000 0.63464  0.06359  0.44620  Biso   1.000  C
  C98      1.0000 0.68641  0.88464  0.69620  Biso   1.000  C
  C99      1.0000 0.86536  0.93641  0.94620  Biso   1.000  C
  C100     1.0000 0.81359  0.11536  0.19620  Biso   1.000  C
  C101     1.0000 0.13464  0.56359  0.94620  Biso   1.000  C
  C102     1.0000 0.18641  0.38464  0.19620  Biso   1.000  C
  C103     1.0000 0.36536  0.43641  0.44620  Biso   1.000  C
  C104     1.0000 0.31359  0.61536  0.69620  Biso   1.000  C
  C105     1.0000 0.36536  0.93641  0.55380  Biso   1.000  C
  C106     1.0000 0.81359  0.61536  0.80380  Biso   1.000  C
  C107     1.0000 0.13464  0.06359  0.05380  Biso   1.000  C
  C108     1.0000 0.68641  0.38464  0.30380  Biso   1.000  C
  C109     1.0000 0.86536  0.43641  0.05380  Biso   1.000  C
  C110     1.0000 0.31359  0.11536  0.30380  Biso   1.000  C
  C111     1.0000 0.63464  0.56359  0.55380  Biso   1.000  C
  C112     1.0000 0.18641  0.88464  0.80380  Biso   1.000  C
  H65      1.0000 0.60660  0.07840  0.47410  Biso   1.000  H
  H66      1.0000 0.67160  0.85660  0.72410  Biso   1.000  H
  H67      1.0000 0.89340  0.92160  0.97410  Biso   1.000  H
  H68      1.0000 0.82840  0.14340  0.22410  Biso   1.000  H
  H69      1.0000 0.10660  0.57840  0.97410  Biso   1.000  H
  H70      1.0000 0.17160  0.35660  0.22410  Biso   1.000  H
  H71      1.0000 0.39340  0.42160  0.47410  Biso   1.000  H
  H72      1.0000 0.32840  0.64340  0.72410  Biso   1.000  H
  H73      1.0000 0.39340  0.92160  0.52590  Biso   1.000  H
  H74      1.0000 0.82840  0.64340  0.77590  Biso   1.000  H
  H75      1.0000 0.10660  0.07840  0.02590  Biso   1.000  H
  H76      1.0000 0.67160  0.35660  0.27590  Biso   1.000  H
  H77      1.0000 0.89340  0.42160  0.02590  Biso   1.000  H
  H78      1.0000 0.32840  0.14340  0.27590  Biso   1.000  H
  H79      1.0000 0.60660  0.57840  0.52590  Biso   1.000  H
  H80      1.0000 0.17160  0.85660  0.77590  Biso   1.000  H
  C113     1.0000 0.67797  0.09009  0.43750  Biso   1.000  C
  C114     1.0000 0.65991  0.92797  0.68750  Biso   1.000  C
  C115     1.0000 0.82203  0.90991  0.93750  Biso   1.000  C
  C116     1.0000 0.84009  0.07203  0.18750  Biso   1.000  C
  C117     1.0000 0.17797  0.59009  0.93750  Biso   1.000  C
  C118     1.0000 0.15991  0.42797  0.18750  Biso   1.000  C
  C119     1.0000 0.32203  0.40991  0.43750  Biso   1.000  C
  C120     1.0000 0.34009  0.57203  0.68750  Biso   1.000  C
  C121     1.0000 0.32203  0.90991  0.56250  Biso   1.000  C
  C122     1.0000 0.84009  0.57203  0.81250  Biso   1.000  C
  C123     1.0000 0.17797  0.09009  0.06250  Biso   1.000  C
  C124     1.0000 0.65991  0.42797  0.31250  Biso   1.000  C
  C125     1.0000 0.82203  0.40991  0.06250  Biso   1.000  C
  C126     1.0000 0.34009  0.07203  0.31250  Biso   1.000  C
  C127     1.0000 0.67797  0.59009  0.56250  Biso   1.000  C
  C128     1.0000 0.15991  0.92797  0.81250  Biso   1.000  C
  H81      1.0000 0.67950  0.12280  0.46040  Biso   1.000  H
  H82      1.0000 0.62720  0.92950  0.71040  Biso   1.000  H
  H83      1.0000 0.82050  0.87720  0.96040  Biso   1.000  H
  H84      1.0000 0.87280  0.07050  0.21040  Biso   1.000  H
  H85      1.0000 0.17950  0.62280  0.96040  Biso   1.000  H
  H86      1.0000 0.12720  0.42950  0.21040  Biso   1.000  H
  H87      1.0000 0.32050  0.37720  0.46040  Biso   1.000  H
  H88      1.0000 0.37280  0.57050  0.71040  Biso   1.000  H
  H89      1.0000 0.32050  0.87720  0.53960  Biso   1.000  H
  H90      1.0000 0.87280  0.57050  0.78960  Biso   1.000  H
  H91      1.0000 0.17950  0.12280  0.03960  Biso   1.000  H
  H92      1.0000 0.62720  0.42950  0.28960  Biso   1.000  H
  H93      1.0000 0.82050  0.37720  0.03960  Biso   1.000  H
  H94      1.0000 0.37280  0.07050  0.28960  Biso   1.000  H
  H95      1.0000 0.67950  0.62280  0.53960  Biso   1.000  H
  H96      1.0000 0.12720  0.92950  0.78960  Biso   1.000  H
  C129     1.0000 0.71959  0.06872  0.39500  Biso   1.000  C
  C130     1.0000 0.68128  0.96959  0.64500  Biso   1.000  C
  C131     1.0000 0.78041  0.93128  0.89500  Biso   1.000  C
  C132     1.0000 0.81872  0.03041  0.14500  Biso   1.000  C
  C133     1.0000 0.21959  0.56872  0.89500  Biso   1.000  C
  C134     1.0000 0.18128  0.46959  0.14500  Biso   1.000  C
  C135     1.0000 0.28041  0.43128  0.39500  Biso   1.000  C
  C136     1.0000 0.31872  0.53041  0.64500  Biso   1.000  C
  C137     1.0000 0.28041  0.93128  0.60500  Biso   1.000  C
  C138     1.0000 0.81872  0.53041  0.85500  Biso   1.000  C
  C139     1.0000 0.21959  0.06872  0.10500  Biso   1.000  C
  C140     1.0000 0.68128  0.46959  0.35500  Biso   1.000  C
  C141     1.0000 0.78041  0.43128  0.10500  Biso   1.000  C
  C142     1.0000 0.31872  0.03041  0.35500  Biso   1.000  C
  C143     1.0000 0.71959  0.56872  0.60500  Biso   1.000  C
  C144     1.0000 0.18128  0.96959  0.85500  Biso   1.000  C
  H97      1.0000 0.74900  0.08710  0.38930  Biso   1.000  H
  H98      1.0000 0.66290  0.99900  0.63930  Biso   1.000  H
  H99      1.0000 0.75100  0.91290  0.88930  Biso   1.000  H
  H100     1.0000 0.83710  0.00100  0.13930  Biso   1.000  H
  H101     1.0000 0.24900  0.58710  0.88930  Biso   1.000  H
  H102     1.0000 0.16290  0.49900  0.13930  Biso   1.000  H
  H103     1.0000 0.25100  0.41290  0.38930  Biso   1.000  H
  H104     1.0000 0.33710  0.50100  0.63930  Biso   1.000  H
  H105     1.0000 0.25100  0.91290  0.61070  Biso   1.000  H
  H106     1.0000 0.83710  0.50100  0.86070  Biso   1.000  H
  H107     1.0000 0.24900  0.08710  0.11070  Biso   1.000  H
  H108     1.0000 0.66290  0.49900  0.36070  Biso   1.000  H
  H109     1.0000 0.75100  0.41290  0.11070  Biso   1.000  H
  H110     1.0000 0.33710  0.00100  0.36070  Biso   1.000  H
  H111     1.0000 0.74900  0.58710  0.61070  Biso   1.000  H
  H112     1.0000 0.16290  0.99900  0.86070  Biso   1.000  H
  C145     1.0000 0.71771  0.01988  0.36070  Biso   1.000  C
  C146     1.0000 0.73012  0.96771  0.61070  Biso   1.000  C
  C147     1.0000 0.78229  0.98012  0.86070  Biso   1.000  C
  C148     1.0000 0.76988  0.03229  0.11070  Biso   1.000  C
  C149     1.0000 0.21771  0.51988  0.86070  Biso   1.000  C
  C150     1.0000 0.23012  0.46771  0.11070  Biso   1.000  C
  C151     1.0000 0.28229  0.48012  0.36070  Biso   1.000  C
  C152     1.0000 0.26988  0.53229  0.61070  Biso   1.000  C
  C153     1.0000 0.28229  0.98012  0.63930  Biso   1.000  C
  C154     1.0000 0.76988  0.53229  0.88930  Biso   1.000  C
  C155     1.0000 0.21771  0.01988  0.13930  Biso   1.000  C
  C156     1.0000 0.73012  0.46771  0.38930  Biso   1.000  C
  C157     1.0000 0.78229  0.48012  0.13930  Biso   1.000  C
  C158     1.0000 0.26988  0.03229  0.38930  Biso   1.000  C
  C159     1.0000 0.71771  0.51988  0.63930  Biso   1.000  C
  C160     1.0000 0.23012  0.96771  0.88930  Biso   1.000  C
  H113     1.0000 0.74550  0.00540  0.33120  Biso   1.000  H
  H114     1.0000 0.74460  0.99550  0.58120  Biso   1.000  H
  H115     1.0000 0.75450  0.99460  0.83120  Biso   1.000  H
  H116     1.0000 0.75540  0.00450  0.08120  Biso   1.000  H
  H117     1.0000 0.24550  0.50540  0.83120  Biso   1.000  H
  H118     1.0000 0.24460  0.49550  0.08120  Biso   1.000  H
  H119     1.0000 0.25450  0.49460  0.33120  Biso   1.000  H
  H120     1.0000 0.25540  0.50450  0.58120  Biso   1.000  H
  H121     1.0000 0.25450  0.99460  0.66880  Biso   1.000  H
  H122     1.0000 0.75540  0.50450  0.91880  Biso   1.000  H
  H123     1.0000 0.24550  0.00540  0.16880  Biso   1.000  H
  H124     1.0000 0.74460  0.49550  0.41880  Biso   1.000  H
  H125     1.0000 0.75450  0.49460  0.16880  Biso   1.000  H
  H126     1.0000 0.25540  0.00450  0.41880  Biso   1.000  H
  H127     1.0000 0.74550  0.50540  0.66880  Biso   1.000  H
  H128     1.0000 0.24460  0.99550  0.91880  Biso   1.000  H
  C161     1.0000 0.68260  0.80928  0.32510  Biso   1.000  C
  C162     1.0000 0.94072  0.93260  0.57510  Biso   1.000  C
  C163     1.0000 0.81740  0.19072  0.82510  Biso   1.000  C
  C164     1.0000 0.55928  0.06740  0.07510  Biso   1.000  C
  C165     1.0000 0.18260  0.30928  0.82510  Biso   1.000  C
  C166     1.0000 0.44072  0.43260  0.07510  Biso   1.000  C
  C167     1.0000 0.31740  0.69072  0.32510  Biso   1.000  C
  C168     1.0000 0.05928  0.56740  0.57510  Biso   1.000  C
  C169     1.0000 0.31740  0.19072  0.67490  Biso   1.000  C
  C170     1.0000 0.55928  0.56740  0.92490  Biso   1.000  C
  C171     1.0000 0.18260  0.80928  0.17490  Biso   1.000  C
  C172     1.0000 0.94072  0.43260  0.42490  Biso   1.000  C
  C173     1.0000 0.81740  0.69072  0.17490  Biso   1.000  C
  C174     1.0000 0.05928  0.06740  0.42490  Biso   1.000  C
  C175     1.0000 0.68260  0.30928  0.67490  Biso   1.000  C
  C176     1.0000 0.44072  0.93260  0.92490  Biso   1.000  C
  C177     1.0000 0.65529  0.76846  0.27240  Biso   1.000  C
  C178     1.0000 0.98154  0.90529  0.52240  Biso   1.000  C
  C179     1.0000 0.84471  0.23154  0.77240  Biso   1.000  C
  C180     1.0000 0.51846  0.09471  0.02240  Biso   1.000  C
  C181     1.0000 0.15529  0.26846  0.77240  Biso   1.000  C
  C182     1.0000 0.48154  0.40529  0.02240  Biso   1.000  C
  C183     1.0000 0.34471  0.73154  0.27240  Biso   1.000  C
  C184     1.0000 0.01846  0.59471  0.52240  Biso   1.000  C
  C185     1.0000 0.34471  0.23154  0.72760  Biso   1.000  C
  C186     1.0000 0.51846  0.59471  0.97760  Biso   1.000  C
  C187     1.0000 0.15529  0.76846  0.22760  Biso   1.000  C
  C188     1.0000 0.98154  0.40529  0.47760  Biso   1.000  C
  C189     1.0000 0.84471  0.73154  0.22760  Biso   1.000  C
  C190     1.0000 0.01846  0.09471  0.47760  Biso   1.000  C
  C191     1.0000 0.65529  0.26846  0.72760  Biso   1.000  C
  C192     1.0000 0.48154  0.90529  0.97760  Biso   1.000  C
  H129     1.0000 0.67920  0.74280  0.25410  Biso   1.000  H
  H130     1.0000 0.00720  0.92920  0.50410  Biso   1.000  H
  H131     1.0000 0.82080  0.25720  0.75410  Biso   1.000  H
  H132     1.0000 0.49280  0.07080  0.00410  Biso   1.000  H
  H133     1.0000 0.17920  0.24280  0.75410  Biso   1.000  H
  H134     1.0000 0.50720  0.42920  0.00410  Biso   1.000  H
  H135     1.0000 0.32080  0.75720  0.25410  Biso   1.000  H
  H136     1.0000 0.99280  0.57080  0.50410  Biso   1.000  H
  H137     1.0000 0.32080  0.25720  0.74590  Biso   1.000  H
  H138     1.0000 0.49280  0.57080  0.99590  Biso   1.000  H
  H139     1.0000 0.17920  0.74280  0.24590  Biso   1.000  H
  H140     1.0000 0.00720  0.42920  0.49590  Biso   1.000  H
  H141     1.0000 0.82080  0.75720  0.24590  Biso   1.000  H
  H142     1.0000 0.99280  0.07080  0.49590  Biso   1.000  H
  H143     1.0000 0.67920  0.24280  0.74590  Biso   1.000  H
  H144     1.0000 0.50720  0.92920  0.99590  Biso   1.000  H
  H145     1.0000 0.64130  0.78220  0.21290  Biso   1.000  H
  H146     1.0000 0.96780  0.89130  0.46290  Biso   1.000  H
  H147     1.0000 0.85870  0.21780  0.71290  Biso   1.000  H
  H148     1.0000 0.53220  0.10870  0.96290  Biso   1.000  H
  H149     1.0000 0.14130  0.28220  0.71290  Biso   1.000  H
  H150     1.0000 0.46780  0.39130  0.96290  Biso   1.000  H
  H151     1.0000 0.35870  0.71780  0.21290  Biso   1.000  H
  H152     1.0000 0.03220  0.60870  0.46290  Biso   1.000  H
  H153     1.0000 0.35870  0.21780  0.78710  Biso   1.000  H
  H154     1.0000 0.53220  0.60870  0.03710  Biso   1.000  H
  H155     1.0000 0.14130  0.78220  0.28710  Biso   1.000  H
  H156     1.0000 0.96780  0.39130  0.53710  Biso   1.000  H
  H157     1.0000 0.85870  0.71780  0.28710  Biso   1.000  H
  H158     1.0000 0.03220  0.10870  0.53710  Biso   1.000  H
  H159     1.0000 0.64130  0.28220  0.78710  Biso   1.000  H
  H160     1.0000 0.46780  0.89130  0.03710  Biso   1.000  H
  C193     1.0000 0.61356  0.74429  0.33010  Biso   1.000  C
  C194     1.0000 0.00571  0.86356  0.58010  Biso   1.000  C
  C195     1.0000 0.88644  0.25571  0.83010  Biso   1.000  C
  C196     1.0000 0.49429  0.13644  0.08010  Biso   1.000  C
  C197     1.0000 0.11356  0.24429  0.83010  Biso   1.000  C
  C198     1.0000 0.50571  0.36356  0.08010  Biso   1.000  C
  C199     1.0000 0.38644  0.75571  0.33010  Biso   1.000  C
  C200     1.0000 0.99429  0.63644  0.58010  Biso   1.000  C
  C201     1.0000 0.38644  0.25571  0.66990  Biso   1.000  C
  C202     1.0000 0.49429  0.63644  0.91990  Biso   1.000  C
  C203     1.0000 0.11356  0.74429  0.16990  Biso   1.000  C
  C204     1.0000 0.00571  0.36356  0.41990  Biso   1.000  C
  C205     1.0000 0.88644  0.75571  0.16990  Biso   1.000  C
  C206     1.0000 0.99429  0.13644  0.41990  Biso   1.000  C
  C207     1.0000 0.61356  0.24429  0.66990  Biso   1.000  C
  C208     1.0000 0.50571  0.86356  0.91990  Biso   1.000  C
  C209     1.0000 0.61504  0.73972  0.42950  Biso   1.000  C
  C210     1.0000 0.01028  0.86504  0.67950  Biso   1.000  C
  C211     1.0000 0.88496  0.26028  0.92950  Biso   1.000  C
  C212     1.0000 0.48972  0.13496  0.17950  Biso   1.000  C
  C213     1.0000 0.11504  0.23972  0.92950  Biso   1.000  C
  C214     1.0000 0.51028  0.36504  0.17950  Biso   1.000  C
  C215     1.0000 0.38496  0.76028  0.42950  Biso   1.000  C
  C216     1.0000 0.98972  0.63496  0.67950  Biso   1.000  C
  C217     1.0000 0.38496  0.26028  0.57050  Biso   1.000  C
  C218     1.0000 0.48972  0.63496  0.82050  Biso   1.000  C
  C219     1.0000 0.11504  0.73972  0.07050  Biso   1.000  C
  C220     1.0000 0.01028  0.36504  0.32050  Biso   1.000  C
  C221     1.0000 0.88496  0.76028  0.07050  Biso   1.000  C
  C222     1.0000 0.98972  0.13496  0.32050  Biso   1.000  C
  C223     1.0000 0.61504  0.23972  0.57050  Biso   1.000  C
  C224     1.0000 0.51028  0.86504  0.82050  Biso   1.000  C
  H161     1.0000 0.64160  0.75330  0.46440  Biso   1.000  H
  H162     1.0000 0.99670  0.89160  0.71440  Biso   1.000  H
  H163     1.0000 0.85840  0.24670  0.96440  Biso   1.000  H
  H164     1.0000 0.50330  0.10840  0.21440  Biso   1.000  H
  H165     1.0000 0.14160  0.25330  0.96440  Biso   1.000  H
  H166     1.0000 0.49670  0.39160  0.21440  Biso   1.000  H
  H167     1.0000 0.35840  0.74670  0.46440  Biso   1.000  H
  H168     1.0000 0.00330  0.60840  0.71440  Biso   1.000  H
  H169     1.0000 0.35840  0.24670  0.53560  Biso   1.000  H
  H170     1.0000 0.50330  0.60840  0.78560  Biso   1.000  H
  H171     1.0000 0.14160  0.75330  0.03560  Biso   1.000  H
  H172     1.0000 0.99670  0.39160  0.28560  Biso   1.000  H
  H173     1.0000 0.85840  0.74670  0.03560  Biso   1.000  H
  H174     1.0000 0.00330  0.10840  0.28560  Biso   1.000  H
  H175     1.0000 0.64160  0.25330  0.53560  Biso   1.000  H
  H176     1.0000 0.49670  0.89160  0.78560  Biso   1.000  H
  C225     1.0000 0.57660  0.71460  0.47800  Biso   1.000  C
  C226     1.0000 0.03540  0.82660  0.72800  Biso   1.000  C
  C227     1.0000 0.92340  0.28540  0.97800  Biso   1.000  C
  C228     1.0000 0.46460  0.17340  0.22800  Biso   1.000  C
  C229     1.0000 0.07660  0.21460  0.97800  Biso   1.000  C
  C230     1.0000 0.53540  0.32660  0.22800  Biso   1.000  C
  C231     1.0000 0.42340  0.78540  0.47800  Biso   1.000  C
  C232     1.0000 0.96460  0.67340  0.72800  Biso   1.000  C
  C233     1.0000 0.42340  0.28540  0.52200  Biso   1.000  C
  C234     1.0000 0.46460  0.67340  0.77200  Biso   1.000  C
  C235     1.0000 0.07660  0.71460  0.02200  Biso   1.000  C
  C236     1.0000 0.03540  0.32660  0.27200  Biso   1.000  C
  C237     1.0000 0.92340  0.78540  0.02200  Biso   1.000  C
  C238     1.0000 0.96460  0.17340  0.27200  Biso   1.000  C
  C239     1.0000 0.57660  0.21460  0.52200  Biso   1.000  C
  C240     1.0000 0.53540  0.82660  0.77200  Biso   1.000  C
  H177     1.0000 0.57790  0.71180  0.54540  Biso   1.000  H
  H178     1.0000 0.03820  0.82790  0.79540  Biso   1.000  H
  H179     1.0000 0.92210  0.28820  0.04540  Biso   1.000  H
  H180     1.0000 0.46180  0.17210  0.29540  Biso   1.000  H
  H181     1.0000 0.07790  0.21180  0.04540  Biso   1.000  H
  H182     1.0000 0.53820  0.32790  0.29540  Biso   1.000  H
  H183     1.0000 0.42210  0.78820  0.54540  Biso   1.000  H
  H184     1.0000 0.96180  0.67210  0.79540  Biso   1.000  H
  H185     1.0000 0.42210  0.28820  0.45460  Biso   1.000  H
  H186     1.0000 0.46180  0.67210  0.70460  Biso   1.000  H
  H187     1.0000 0.07790  0.71180  0.95460  Biso   1.000  H
  H188     1.0000 0.03820  0.32790  0.20460  Biso   1.000  H
  H189     1.0000 0.92210  0.78820  0.95460  Biso   1.000  H
  H190     1.0000 0.96180  0.17210  0.20460  Biso   1.000  H
  H191     1.0000 0.57790  0.21180  0.45460  Biso   1.000  H
  H192     1.0000 0.53820  0.82790  0.70460  Biso   1.000  H
  C241     1.0000 0.53830  0.69460  0.43060  Biso   1.000  C
  C242     1.0000 0.05540  0.78830  0.68060  Biso   1.000  C
  C243     1.0000 0.96170  0.30540  0.93060  Biso   1.000  C
  C244     1.0000 0.44460  0.21170  0.18060  Biso   1.000  C
  C245     1.0000 0.03830  0.19460  0.93060  Biso   1.000  C
  C246     1.0000 0.55540  0.28830  0.18060  Biso   1.000  C
  C247     1.0000 0.46170  0.80540  0.43060  Biso   1.000  C
  C248     1.0000 0.94460  0.71170  0.68060  Biso   1.000  C
  C249     1.0000 0.46170  0.30540  0.56940  Biso   1.000  C
  C250     1.0000 0.44460  0.71170  0.81940  Biso   1.000  C
  C251     1.0000 0.03830  0.69460  0.06940  Biso   1.000  C
  C252     1.0000 0.05540  0.28830  0.31940  Biso   1.000  C
  C253     1.0000 0.96170  0.80540  0.06940  Biso   1.000  C
  C254     1.0000 0.94460  0.21170  0.31940  Biso   1.000  C
  C255     1.0000 0.53830  0.19460  0.56940  Biso   1.000  C
  C256     1.0000 0.55540  0.78830  0.81940  Biso   1.000  C
  H193     1.0000 0.51340  0.67760  0.46460  Biso   1.000  H
  H194     1.0000 0.07240  0.76340  0.71460  Biso   1.000  H
  H195     1.0000 0.98660  0.32240  0.96460  Biso   1.000  H
  H196     1.0000 0.42760  0.23660  0.21460  Biso   1.000  H
  H197     1.0000 0.01340  0.17760  0.96460  Biso   1.000  H
  H198     1.0000 0.57240  0.26340  0.21460  Biso   1.000  H
  H199     1.0000 0.48660  0.82240  0.46460  Biso   1.000  H
  H200     1.0000 0.92760  0.73660  0.71460  Biso   1.000  H
  H201     1.0000 0.48660  0.32240  0.53540  Biso   1.000  H
  H202     1.0000 0.42760  0.73660  0.78540  Biso   1.000  H
  H203     1.0000 0.01340  0.67760  0.03540  Biso   1.000  H
  H204     1.0000 0.07240  0.26340  0.28540  Biso   1.000  H
  H205     1.0000 0.98660  0.82240  0.03540  Biso   1.000  H
  H206     1.0000 0.92760  0.23660  0.28540  Biso   1.000  H
  H207     1.0000 0.51340  0.17760  0.53540  Biso   1.000  H
  H208     1.0000 0.57240  0.76340  0.78540  Biso   1.000  H
  C257     1.0000 0.53540  0.69890  0.33210  Biso   1.000  C
  C258     1.0000 0.05110  0.78540  0.58210  Biso   1.000  C
  C259     1.0000 0.96460  0.30110  0.83210  Biso   1.000  C
  C260     1.0000 0.44890  0.21460  0.08210  Biso   1.000  C
  C261     1.0000 0.03540  0.19890  0.83210  Biso   1.000  C
  C262     1.0000 0.55110  0.28540  0.08210  Biso   1.000  C
  C263     1.0000 0.46460  0.80110  0.33210  Biso   1.000  C
  C264     1.0000 0.94890  0.71460  0.58210  Biso   1.000  C
  C265     1.0000 0.46460  0.30110  0.66790  Biso   1.000  C
  C266     1.0000 0.44890  0.71460  0.91790  Biso   1.000  C
  C267     1.0000 0.03540  0.69890  0.16790  Biso   1.000  C
  C268     1.0000 0.05110  0.28540  0.41790  Biso   1.000  C
  C269     1.0000 0.96460  0.80110  0.16790  Biso   1.000  C
  C270     1.0000 0.94890  0.21460  0.41790  Biso   1.000  C
  C271     1.0000 0.53540  0.19890  0.66790  Biso   1.000  C
  C272     1.0000 0.55110  0.78540  0.91790  Biso   1.000  C
  H209     1.0000 0.50830  0.68540  0.29880  Biso   1.000  H
  H210     1.0000 0.06460  0.75830  0.54880  Biso   1.000  H
  H211     1.0000 0.99170  0.31460  0.79880  Biso   1.000  H
  H212     1.0000 0.43540  0.24170  0.04880  Biso   1.000  H
  H213     1.0000 0.00830  0.18540  0.79880  Biso   1.000  H
  H214     1.0000 0.56460  0.25830  0.04880  Biso   1.000  H
  H215     1.0000 0.49170  0.81460  0.29880  Biso   1.000  H
  H216     1.0000 0.93540  0.74170  0.54880  Biso   1.000  H
  H217     1.0000 0.49170  0.31460  0.70120  Biso   1.000  H
  H218     1.0000 0.43540  0.74170  0.95120  Biso   1.000  H
  H219     1.0000 0.00830  0.68540  0.20120  Biso   1.000  H
  H220     1.0000 0.06460  0.25830  0.45120  Biso   1.000  H
  H221     1.0000 0.99170  0.81460  0.20120  Biso   1.000  H
  H222     1.0000 0.93540  0.24170  0.45120  Biso   1.000  H
  H223     1.0000 0.50830  0.18540  0.70120  Biso   1.000  H
  H224     1.0000 0.56460  0.75830  0.95120  Biso   1.000  H
  C273     1.0000 0.57309  0.72348  0.28110  Biso   1.000  C
  C274     1.0000 0.02652  0.82309  0.53110  Biso   1.000  C
  C275     1.0000 0.92691  0.27652  0.78110  Biso   1.000  C
  C276     1.0000 0.47348  0.17691  0.03110  Biso   1.000  C
  C277     1.0000 0.07309  0.22348  0.78110  Biso   1.000  C
  C278     1.0000 0.52652  0.32309  0.03110  Biso   1.000  C
  C279     1.0000 0.42691  0.77652  0.28110  Biso   1.000  C
  C280     1.0000 0.97348  0.67691  0.53110  Biso   1.000  C
  C281     1.0000 0.42691  0.27652  0.71890  Biso   1.000  C
  C282     1.0000 0.47348  0.67691  0.96890  Biso   1.000  C
  C283     1.0000 0.07309  0.72348  0.21890  Biso   1.000  C
  C284     1.0000 0.02652  0.32309  0.46890  Biso   1.000  C
  C285     1.0000 0.92691  0.77652  0.21890  Biso   1.000  C
  C286     1.0000 0.97348  0.17691  0.46890  Biso   1.000  C
  C287     1.0000 0.57309  0.22348  0.71890  Biso   1.000  C
  C288     1.0000 0.52652  0.82309  0.96890  Biso   1.000  C
  H225     1.0000 0.57120  0.72600  0.21370  Biso   1.000  H
  H226     1.0000 0.02400  0.82120  0.46370  Biso   1.000  H
  H227     1.0000 0.92880  0.27400  0.71370  Biso   1.000  H
  H228     1.0000 0.47600  0.17880  0.96370  Biso   1.000  H
  H229     1.0000 0.07120  0.22600  0.71370  Biso   1.000  H
  H230     1.0000 0.52400  0.32120  0.96370  Biso   1.000  H
  H231     1.0000 0.42880  0.77400  0.21370  Biso   1.000  H
  H232     1.0000 0.97600  0.67880  0.46370  Biso   1.000  H
  H233     1.0000 0.42880  0.27400  0.78630  Biso   1.000  H
  H234     1.0000 0.47600  0.67880  0.03630  Biso   1.000  H
  H235     1.0000 0.07120  0.72600  0.28630  Biso   1.000  H
  H236     1.0000 0.02400  0.32120  0.53630  Biso   1.000  H
  H237     1.0000 0.92880  0.77400  0.28630  Biso   1.000  H
  H238     1.0000 0.97600  0.17880  0.53630  Biso   1.000  H
  H239     1.0000 0.57120  0.22600  0.78630  Biso   1.000  H
  H240     1.0000 0.52400  0.82120  0.03630  Biso   1.000  H
  C289     1.0000 0.77021  0.74106  0.45040  Biso   1.000  C
  C290     1.0000 0.00894  0.02021  0.70040  Biso   1.000  C
  C291     1.0000 0.72979  0.25894  0.95040  Biso   1.000  C
  C292     1.0000 0.49106  0.97979  0.20040  Biso   1.000  C
  C293     1.0000 0.27021  0.24106  0.95040  Biso   1.000  C
  C294     1.0000 0.50894  0.52021  0.20040  Biso   1.000  C
  C295     1.0000 0.22979  0.75894  0.45040  Biso   1.000  C
  C296     1.0000 0.99106  0.47979  0.70040  Biso   1.000  C
  C297     1.0000 0.22979  0.25894  0.54960  Biso   1.000  C
  C298     1.0000 0.49106  0.47979  0.79960  Biso   1.000  C
  C299     1.0000 0.27021  0.74106  0.04960  Biso   1.000  C
  C300     1.0000 0.00894  0.52021  0.29960  Biso   1.000  C
  C301     1.0000 0.72979  0.75894  0.04960  Biso   1.000  C
  C302     1.0000 0.99106  0.97979  0.29960  Biso   1.000  C
  C303     1.0000 0.77021  0.24106  0.54960  Biso   1.000  C
  C304     1.0000 0.50894  0.02021  0.79960  Biso   1.000  C
  C305     1.0000 0.78906  0.68918  0.46170  Biso   1.000  C
  C306     1.0000 0.06082  0.03906  0.71170  Biso   1.000  C
  C307     1.0000 0.71094  0.31082  0.96170  Biso   1.000  C
  C308     1.0000 0.43918  0.96094  0.21170  Biso   1.000  C
  C309     1.0000 0.28906  0.18918  0.96170  Biso   1.000  C
  C310     1.0000 0.56082  0.53906  0.21170  Biso   1.000  C
  C311     1.0000 0.21094  0.81082  0.46170  Biso   1.000  C
  C312     1.0000 0.93918  0.46094  0.71170  Biso   1.000  C
  C313     1.0000 0.21094  0.31082  0.53830  Biso   1.000  C
  C314     1.0000 0.43918  0.46094  0.78830  Biso   1.000  C
  C315     1.0000 0.28906  0.68918  0.03830  Biso   1.000  C
  C316     1.0000 0.06082  0.53906  0.28830  Biso   1.000  C
  C317     1.0000 0.71094  0.81082  0.03830  Biso   1.000  C
  C318     1.0000 0.93918  0.96094  0.28830  Biso   1.000  C
  C319     1.0000 0.78906  0.18918  0.53830  Biso   1.000  C
  C320     1.0000 0.56082  0.03906  0.78830  Biso   1.000  C
  C321     1.0000 0.77169  0.64975  0.40290  Biso   1.000  C
  C322     1.0000 0.10025  0.02169  0.65290  Biso   1.000  C
  C323     1.0000 0.72831  0.35025  0.90290  Biso   1.000  C
  C324     1.0000 0.39975  0.97831  0.15290  Biso   1.000  C
  C325     1.0000 0.27169  0.14975  0.90290  Biso   1.000  C
  C326     1.0000 0.60025  0.52169  0.15290  Biso   1.000  C
  C327     1.0000 0.22831  0.85025  0.40290  Biso   1.000  C
  C328     1.0000 0.89975  0.47831  0.65290  Biso   1.000  C
  C329     1.0000 0.22831  0.35025  0.59710  Biso   1.000  C
  C330     1.0000 0.39975  0.47831  0.84710  Biso   1.000  C
  C331     1.0000 0.27169  0.64975  0.09710  Biso   1.000  C
  C332     1.0000 0.10025  0.52169  0.34710  Biso   1.000  C
  C333     1.0000 0.72831  0.85025  0.09710  Biso   1.000  C
  C334     1.0000 0.89975  0.97831  0.34710  Biso   1.000  C
  C335     1.0000 0.77169  0.14975  0.59710  Biso   1.000  C
  C336     1.0000 0.60025  0.02169  0.84710  Biso   1.000  C
  C337     1.0000 0.79329  0.60237  0.41150  Biso   1.000  C
  C338     1.0000 0.14763  0.04329  0.66150  Biso   1.000  C
  C339     1.0000 0.70671  0.39763  0.91150  Biso   1.000  C
  C340     1.0000 0.35237  0.95671  0.16150  Biso   1.000  C
  C341     1.0000 0.29329  0.10237  0.91150  Biso   1.000  C
  C342     1.0000 0.64763  0.54329  0.16150  Biso   1.000  C
  C343     1.0000 0.20671  0.89763  0.41150  Biso   1.000  C
  C344     1.0000 0.85237  0.45671  0.66150  Biso   1.000  C
  C345     1.0000 0.20671  0.39763  0.58850  Biso   1.000  C
  C346     1.0000 0.35237  0.45671  0.83850  Biso   1.000  C
  C347     1.0000 0.29329  0.60237  0.08850  Biso   1.000  C
  C348     1.0000 0.14763  0.54329  0.33850  Biso   1.000  C
  C349     1.0000 0.70671  0.89763  0.08850  Biso   1.000  C
  C350     1.0000 0.85237  0.95671  0.33850  Biso   1.000  C
  C351     1.0000 0.79329  0.10237  0.58850  Biso   1.000  C
  C352     1.0000 0.64763  0.04329  0.83850  Biso   1.000  C
  H241     1.0000 0.78270  0.57660  0.37100  Biso   1.000  H
  H242     1.0000 0.17340  0.03270  0.62100  Biso   1.000  H
  H243     1.0000 0.71730  0.42340  0.87100  Biso   1.000  H
  H244     1.0000 0.32660  0.96730  0.12100  Biso   1.000  H
  H245     1.0000 0.28270  0.07660  0.87100  Biso   1.000  H
  H246     1.0000 0.67340  0.53270  0.12100  Biso   1.000  H
  H247     1.0000 0.21730  0.92340  0.37100  Biso   1.000  H
  H248     1.0000 0.82660  0.46730  0.62100  Biso   1.000  H
  H249     1.0000 0.21730  0.42340  0.62900  Biso   1.000  H
  H250     1.0000 0.32660  0.46730  0.87900  Biso   1.000  H
  H251     1.0000 0.28270  0.57660  0.12900  Biso   1.000  H
  H252     1.0000 0.17340  0.53270  0.37900  Biso   1.000  H
  H253     1.0000 0.71730  0.92340  0.12900  Biso   1.000  H
  H254     1.0000 0.82660  0.96730  0.37900  Biso   1.000  H
  H255     1.0000 0.78270  0.07660  0.62900  Biso   1.000  H
  H256     1.0000 0.67340  0.03270  0.87900  Biso   1.000  H
  C353     1.0000 0.83009  0.59353  0.47940  Biso   1.000  C
  C354     1.0000 0.15647  0.08009  0.72940  Biso   1.000  C
  C355     1.0000 0.66991  0.40647  0.97940  Biso   1.000  C
  C356     1.0000 0.34353  0.91991  0.22940  Biso   1.000  C
  C357     1.0000 0.33009  0.09353  0.97940  Biso   1.000  C
  C358     1.0000 0.65647  0.58009  0.22940  Biso   1.000  C
  C359     1.0000 0.16991  0.90647  0.47940  Biso   1.000  C
  C360     1.0000 0.84353  0.41991  0.72940  Biso   1.000  C
  C361     1.0000 0.16991  0.40647  0.52060  Biso   1.000  C
  C362     1.0000 0.34353  0.41991  0.77060  Biso   1.000  C
  C363     1.0000 0.33009  0.59353  0.02060  Biso   1.000  C
  C364     1.0000 0.15647  0.58009  0.27060  Biso   1.000  C
  C365     1.0000 0.66991  0.90647  0.02060  Biso   1.000  C
  C366     1.0000 0.84353  0.91991  0.27060  Biso   1.000  C
  C367     1.0000 0.83009  0.09353  0.52060  Biso   1.000  C
  C368     1.0000 0.65647  0.08009  0.77060  Biso   1.000  C
  H257     1.0000 0.84390  0.56170  0.48490  Biso   1.000  H
  H258     1.0000 0.18830  0.09390  0.73490  Biso   1.000  H
  H259     1.0000 0.65610  0.43830  0.98490  Biso   1.000  H
  H260     1.0000 0.31170  0.90610  0.23490  Biso   1.000  H
  H261     1.0000 0.34390  0.06170  0.98490  Biso   1.000  H
  H262     1.0000 0.68830  0.59390  0.23490  Biso   1.000  H
  H263     1.0000 0.15610  0.93830  0.48490  Biso   1.000  H
  H264     1.0000 0.81170  0.40610  0.73490  Biso   1.000  H
  H265     1.0000 0.15610  0.43830  0.51510  Biso   1.000  H
  H266     1.0000 0.31170  0.40610  0.76510  Biso   1.000  H
  H267     1.0000 0.34390  0.56170  0.01510  Biso   1.000  H
  H268     1.0000 0.18830  0.59390  0.26510  Biso   1.000  H
  H269     1.0000 0.65610  0.93830  0.01510  Biso   1.000  H
  H270     1.0000 0.81170  0.90610  0.26510  Biso   1.000  H
  H271     1.0000 0.84390  0.06170  0.51510  Biso   1.000  H
  H272     1.0000 0.68830  0.09390  0.76510  Biso   1.000  H
  C369     1.0000 0.84668  0.63152  0.53950  Biso   1.000  C
  C370     1.0000 0.11848  0.09668  0.78950  Biso   1.000  C
  C371     1.0000 0.65332  0.36848  0.03950  Biso   1.000  C
  C372     1.0000 0.38152  0.90332  0.28950  Biso   1.000  C
  C373     1.0000 0.34668  0.13152  0.03950  Biso   1.000  C
  C374     1.0000 0.61848  0.59668  0.28950  Biso   1.000  C
  C375     1.0000 0.15332  0.86848  0.53950  Biso   1.000  C
  C376     1.0000 0.88152  0.40332  0.78950  Biso   1.000  C
  C377     1.0000 0.15332  0.36848  0.46050  Biso   1.000  C
  C378     1.0000 0.38152  0.40332  0.71050  Biso   1.000  C
  C379     1.0000 0.34668  0.63152  0.96050  Biso   1.000  C
  C380     1.0000 0.11848  0.59668  0.21050  Biso   1.000  C
  C381     1.0000 0.65332  0.86848  0.96050  Biso   1.000  C
  C382     1.0000 0.88152  0.90332  0.21050  Biso   1.000  C
  C383     1.0000 0.84668  0.13152  0.46050  Biso   1.000  C
  C384     1.0000 0.61848  0.09668  0.71050  Biso   1.000  C
  H273     1.0000 0.87130  0.62520  0.58580  Biso   1.000  H
  H274     1.0000 0.12480  0.12130  0.83580  Biso   1.000  H
  H275     1.0000 0.62870  0.37480  0.08580  Biso   1.000  H
  H276     1.0000 0.37520  0.87870  0.33580  Biso   1.000  H
  H277     1.0000 0.37130  0.12520  0.08580  Biso   1.000  H
  H278     1.0000 0.62480  0.62130  0.33580  Biso   1.000  H
  H279     1.0000 0.12870  0.87480  0.58580  Biso   1.000  H
  H280     1.0000 0.87520  0.37870  0.83580  Biso   1.000  H
  H281     1.0000 0.12870  0.37480  0.41420  Biso   1.000  H
  H282     1.0000 0.37520  0.37870  0.66420  Biso   1.000  H
  H283     1.0000 0.37130  0.62520  0.91420  Biso   1.000  H
  H284     1.0000 0.12480  0.62130  0.16420  Biso   1.000  H
  H285     1.0000 0.62870  0.87480  0.91420  Biso   1.000  H
  H286     1.0000 0.87520  0.87870  0.16420  Biso   1.000  H
  H287     1.0000 0.87130  0.12520  0.41420  Biso   1.000  H
  H288     1.0000 0.62480  0.12130  0.66420  Biso   1.000  H
  C385     1.0000 0.82645  0.67916  0.53040  Biso   1.000  C
  C386     1.0000 0.07084  0.07645  0.78040  Biso   1.000  C
  C387     1.0000 0.67355  0.32084  0.03040  Biso   1.000  C
  C388     1.0000 0.42916  0.92355  0.28040  Biso   1.000  C
  C389     1.0000 0.32645  0.17916  0.03040  Biso   1.000  C
  C390     1.0000 0.57084  0.57645  0.28040  Biso   1.000  C
  C391     1.0000 0.17355  0.82084  0.53040  Biso   1.000  C
  C392     1.0000 0.92916  0.42355  0.78040  Biso   1.000  C
  C393     1.0000 0.17355  0.32084  0.46960  Biso   1.000  C
  C394     1.0000 0.42916  0.42355  0.71960  Biso   1.000  C
  C395     1.0000 0.32645  0.67916  0.96960  Biso   1.000  C
  C396     1.0000 0.07084  0.57645  0.21960  Biso   1.000  C
  C397     1.0000 0.67355  0.82084  0.96960  Biso   1.000  C
  C398     1.0000 0.92916  0.92355  0.21960  Biso   1.000  C
  C399     1.0000 0.82645  0.17916  0.46960  Biso   1.000  C
  C400     1.0000 0.57084  0.07645  0.71960  Biso   1.000  C
  H289     1.0000 0.83790  0.70480  0.57060  Biso   1.000  H
  H290     1.0000 0.04520  0.08790  0.82060  Biso   1.000  H
  H291     1.0000 0.66210  0.29520  0.07060  Biso   1.000  H
  H292     1.0000 0.45480  0.91210  0.32060  Biso   1.000  H
  H293     1.0000 0.33790  0.20480  0.07060  Biso   1.000  H
  H294     1.0000 0.54520  0.58790  0.32060  Biso   1.000  H
  H295     1.0000 0.16210  0.79520  0.57060  Biso   1.000  H
  H296     1.0000 0.95480  0.41210  0.82060  Biso   1.000  H
  H297     1.0000 0.16210  0.29520  0.42940  Biso   1.000  H
  H298     1.0000 0.45480  0.41210  0.67940  Biso   1.000  H
  H299     1.0000 0.33790  0.70480  0.92940  Biso   1.000  H
  H300     1.0000 0.04520  0.58790  0.17940  Biso   1.000  H
  H301     1.0000 0.66210  0.79520  0.92940  Biso   1.000  H
  H302     1.0000 0.95480  0.91210  0.17940  Biso   1.000  H
  H303     1.0000 0.83790  0.20480  0.42940  Biso   1.000  H
  H304     1.0000 0.54520  0.08790  0.67940  Biso   1.000  H
  H305     1.0000 0.72600  0.68250  0.33700  Biso   1.000  H
  H306     1.0000 0.06750  0.97600  0.58700  Biso   1.000  H
  H307     1.0000 0.77400  0.31750  0.83700  Biso   1.000  H
  H308     1.0000 0.43250  0.02400  0.08700  Biso   1.000  H
  H309     1.0000 0.22600  0.18250  0.83700  Biso   1.000  H
  H310     1.0000 0.56750  0.47600  0.08700  Biso   1.000  H
  H311     1.0000 0.27400  0.81750  0.33700  Biso   1.000  H
  H312     1.0000 0.93250  0.52400  0.58700  Biso   1.000  H
  H313     1.0000 0.27400  0.31750  0.66300  Biso   1.000  H
  H314     1.0000 0.43250  0.52400  0.91300  Biso   1.000  H
  H315     1.0000 0.22600  0.68250  0.16300  Biso   1.000  H
  H316     1.0000 0.06750  0.47600  0.41300  Biso   1.000  H
  H317     1.0000 0.77400  0.81750  0.16300  Biso   1.000  H
  H318     1.0000 0.93250  0.02400  0.41300  Biso   1.000  H
  H319     1.0000 0.72600  0.18250  0.66300  Biso   1.000  H
  H320     1.0000 0.56750  0.97600  0.91300  Biso   1.000  H
  N1       1.0000 0.66970  0.94360  0.33269  Biso   1.000  N
  N2       1.0000 0.80640  0.91970  0.58269  Biso   1.000  N
  N3       1.0000 0.83030  0.05640  0.83269  Biso   1.000  N
  N4       1.0000 0.69360  0.08030  0.08269  Biso   1.000  N
  N5       1.0000 0.16970  0.44360  0.83269  Biso   1.000  N
  N6       1.0000 0.30640  0.41970  0.08269  Biso   1.000  N
  N7       1.0000 0.33030  0.55640  0.33269  Biso   1.000  N
  N8       1.0000 0.19360  0.58030  0.58269  Biso   1.000  N
  N9       1.0000 0.33030  0.05640  0.66731  Biso   1.000  N
  N10      1.0000 0.69360  0.58030  0.91731  Biso   1.000  N
  N11      1.0000 0.16970  0.94360  0.16731  Biso   1.000  N
  N12      1.0000 0.80640  0.41970  0.41731  Biso   1.000  N
  N13      1.0000 0.83030  0.55640  0.16731  Biso   1.000  N
  N14      1.0000 0.19360  0.08030  0.41731  Biso   1.000  N
  N15      1.0000 0.66970  0.44360  0.66731  Biso   1.000  N
  N16      1.0000 0.30640  0.91970  0.91731  Biso   1.000  N
  N17      1.0000 0.62805  0.93215  0.27641  Biso   1.000  N
  N18      1.0000 0.81785  0.87805  0.52641  Biso   1.000  N
  N19      1.0000 0.87195  0.06785  0.77641  Biso   1.000  N
  N20      1.0000 0.68215  0.12195  0.02641  Biso   1.000  N
  N21      1.0000 0.12805  0.43215  0.77641  Biso   1.000  N
  N22      1.0000 0.31785  0.37805  0.02641  Biso   1.000  N
  N23      1.0000 0.37195  0.56785  0.27641  Biso   1.000  N
  N24      1.0000 0.18215  0.62195  0.52641  Biso   1.000  N
  N25      1.0000 0.37195  0.06785  0.72359  Biso   1.000  N
  N26      1.0000 0.68215  0.62195  0.97359  Biso   1.000  N
  N27      1.0000 0.12805  0.93215  0.22359  Biso   1.000  N
  N28      1.0000 0.81785  0.37805  0.47359  Biso   1.000  N
  N29      1.0000 0.87195  0.56785  0.22359  Biso   1.000  N
  N30      1.0000 0.18215  0.12195  0.47359  Biso   1.000  N
  N31      1.0000 0.62805  0.43215  0.72359  Biso   1.000  N
  N32      1.0000 0.31785  0.87805  0.97359  Biso   1.000  N
  N33      1.0000 0.72067  0.79848  0.38074  Biso   1.000  N
  N34      1.0000 0.95152  0.97067  0.63074  Biso   1.000  N
  N35      1.0000 0.77933  0.20152  0.88074  Biso   1.000  N
  N36      1.0000 0.54848  0.02933  0.13074  Biso   1.000  N
  N37      1.0000 0.22067  0.29848  0.88074  Biso   1.000  N
  N38      1.0000 0.45152  0.47067  0.13074  Biso   1.000  N
  N39      1.0000 0.27933  0.70152  0.38074  Biso   1.000  N
  N40      1.0000 0.04848  0.52933  0.63074  Biso   1.000  N
  N41      1.0000 0.27933  0.20152  0.61926  Biso   1.000  N
  N42      1.0000 0.54848  0.52933  0.86926  Biso   1.000  N
  N43      1.0000 0.22067  0.79848  0.11926  Biso   1.000  N
  N44      1.0000 0.95152  0.47067  0.36926  Biso   1.000  N
  N45      1.0000 0.77933  0.70152  0.11926  Biso   1.000  N
  N46      1.0000 0.04848  0.02933  0.36926  Biso   1.000  N
  N47      1.0000 0.72067  0.29848  0.61926  Biso   1.000  N
  N48      1.0000 0.45152  0.97067  0.86926  Biso   1.000  N
  N49      1.0000 0.73363  0.74764  0.38770  Biso   1.000  N
  N50      1.0000 0.00236  0.98363  0.63770  Biso   1.000  N
  N51      1.0000 0.76637  0.25236  0.88770  Biso   1.000  N
  N52      1.0000 0.49764  0.01637  0.13770  Biso   1.000  N
  N53      1.0000 0.23363  0.24764  0.88770  Biso   1.000  N
  N54      1.0000 0.50236  0.48363  0.13770  Biso   1.000  N
  N55      1.0000 0.26637  0.75236  0.38770  Biso   1.000  N
  N56      1.0000 0.99764  0.51637  0.63770  Biso   1.000  N
  N57      1.0000 0.26637  0.25236  0.61230  Biso   1.000  N
  N58      1.0000 0.49764  0.51637  0.86230  Biso   1.000  N
  N59      1.0000 0.23363  0.74764  0.11230  Biso   1.000  N
  N60      1.0000 0.00236  0.48363  0.36230  Biso   1.000  N
  N61      1.0000 0.76637  0.75236  0.11230  Biso   1.000  N
  N62      1.0000 0.99764  0.01637  0.36230  Biso   1.000  N
  N63      1.0000 0.73363  0.24764  0.61230  Biso   1.000  N
  N64      1.0000 0.50236  0.98363  0.86230  Biso   1.000  N
  O1       1.0000 0.73395  0.90224  0.41227  Biso   1.000  O
  O2       1.0000 0.84776  0.98395  0.66227  Biso   1.000  O
  O3       1.0000 0.76605  0.09776  0.91227  Biso   1.000  O
  O4       1.0000 0.65224  0.01605  0.16227  Biso   1.000  O
  O5       1.0000 0.23395  0.40224  0.91227  Biso   1.000  O
  O6       1.0000 0.34776  0.48395  0.16227  Biso   1.000  O
  O7       1.0000 0.26605  0.59776  0.41227  Biso   1.000  O
  O8       1.0000 0.15224  0.51605  0.66227  Biso   1.000  O
  O9       1.0000 0.26605  0.09776  0.58773  Biso   1.000  O
  O10      1.0000 0.65224  0.51605  0.83773  Biso   1.000  O
  O11      1.0000 0.23395  0.90224  0.08773  Biso   1.000  O
  O12      1.0000 0.84776  0.48395  0.33773  Biso   1.000  O
  O13      1.0000 0.76605  0.59776  0.08773  Biso   1.000  O
  O14      1.0000 0.15224  0.01605  0.33773  Biso   1.000  O
  O15      1.0000 0.73395  0.40224  0.58773  Biso   1.000  O
  O16      1.0000 0.34776  0.98395  0.83773  Biso   1.000  O
  O17      1.0000 0.79083  0.77707  0.49837  Biso   1.000  O
  O18      1.0000 0.97293  0.04083  0.74837  Biso   1.000  O
  O19      1.0000 0.70917  0.22293  0.99837  Biso   1.000  O
  O20      1.0000 0.52707  0.95917  0.24837  Biso   1.000  O
  O21      1.0000 0.29083  0.27707  0.99837  Biso   1.000  O
  O22      1.0000 0.47293  0.54083  0.24837  Biso   1.000  O
  O23      1.0000 0.20917  0.72293  0.49837  Biso   1.000  O
  O24      1.0000 0.02707  0.45917  0.74837  Biso   1.000  O
  O25      1.0000 0.20917  0.22293  0.50163  Biso   1.000  O
  O26      1.0000 0.52707  0.45917  0.75163  Biso   1.000  O
  O27      1.0000 0.29083  0.77707  0.00163  Biso   1.000  O
  O28      1.0000 0.97293  0.54083  0.25163  Biso   1.000  O
  O29      1.0000 0.70917  0.72293  0.00163  Biso   1.000  O
  O30      1.0000 0.02707  0.95917  0.25163  Biso   1.000  O
  O31      1.0000 0.79083  0.27707  0.50163  Biso   1.000  O
  O32      1.0000 0.47293  0.04083  0.75163  Biso   1.000  O
  O33      1.0000 0.73488  0.65559  0.33700  Biso   1.000  O
  O34      1.0000 0.09441  0.98488  0.58700  Biso   1.000  O
  O35      1.0000 0.76512  0.34441  0.83700  Biso   1.000  O
  O36      1.0000 0.40559  0.01512  0.08700  Biso   1.000  O
  O37      1.0000 0.23488  0.15559  0.83700  Biso   1.000  O
  O38      1.0000 0.59441  0.48488  0.08700  Biso   1.000  O
  O39      1.0000 0.26512  0.84441  0.33700  Biso   1.000  O
  O40      1.0000 0.90559  0.51512  0.58700  Biso   1.000  O
  O41      1.0000 0.26512  0.34441  0.66300  Biso   1.000  O
  O42      1.0000 0.40559  0.51512  0.91300  Biso   1.000  O
  O43      1.0000 0.23488  0.65559  0.16300  Biso   1.000  O
  O44      1.0000 0.09441  0.48488  0.41300  Biso   1.000  O
  O45      1.0000 0.76512  0.84441  0.16300  Biso   1.000  O
  O46      1.0000 0.90559  0.01512  0.41300  Biso   1.000  O
  O47      1.0000 0.73488  0.15559  0.66300  Biso   1.000  O
  O48      1.0000 0.59441  0.98488  0.91300  Biso   1.000  O
