data_image0
_cell_length_a       75.35
_cell_length_b       5.0492
_cell_length_c       16.1043
_cell_angle_alpha    90
_cell_angle_beta     94.164
_cell_angle_gamma    90

_symmetry_space_group_name_H-M    "P 1"
_symmetry_int_tables_number       1

loop_
  _symmetry_equiv_pos_as_xyz
  'x, y, z'

loop_
  _atom_site_label
  _atom_site_occupancy
  _atom_site_fract_x
  _atom_site_fract_y
  _atom_site_fract_z
  _atom_site_thermal_displace_type
  _atom_site_B_iso_or_equiv
  _atom_site_type_symbol
  Cu1      1.0000 0.24200  0.46820  0.97191  Biso   1.000  Cu
  Cu2      1.0000 0.75800  0.46820  0.52809  Biso   1.000  Cu
  Cu3      1.0000 0.74200  0.96820  0.97191  Biso   1.000  Cu
  Cu4      1.0000 0.25800  0.96820  0.52809  Biso   1.000  Cu
  Cu5      1.0000 0.75800  0.53180  0.02809  Biso   1.000  Cu
  Cu6      1.0000 0.24200  0.53180  0.47191  Biso   1.000  Cu
  Cu7      1.0000 0.25800  0.03180  0.02809  Biso   1.000  Cu
  Cu8      1.0000 0.74200  0.03180  0.47191  Biso   1.000  Cu
  O1       1.0000 0.23267  0.47794  0.08203  Biso   1.000  O
  O2       1.0000 0.76733  0.47794  0.41797  Biso   1.000  O
  O3       1.0000 0.73267  0.97794  0.08203  Biso   1.000  O
  O4       1.0000 0.26733  0.97794  0.41797  Biso   1.000  O
  O5       1.0000 0.76733  0.52206  0.91797  Biso   1.000  O
  O6       1.0000 0.23267  0.52206  0.58203  Biso   1.000  O
  O7       1.0000 0.26733  0.02206  0.91797  Biso   1.000  O
  O8       1.0000 0.73267  0.02206  0.58203  Biso   1.000  O
  O9       1.0000 0.24629  0.11420  0.13036  Biso   1.000  O
  O10      1.0000 0.75371  0.11420  0.36964  Biso   1.000  O
  O11      1.0000 0.74629  0.61420  0.13036  Biso   1.000  O
  O12      1.0000 0.25371  0.61420  0.36964  Biso   1.000  O
  O13      1.0000 0.75371  0.88580  0.86964  Biso   1.000  O
  O14      1.0000 0.24629  0.88580  0.63036  Biso   1.000  O
  O15      1.0000 0.25371  0.38580  0.86964  Biso   1.000  O
  O16      1.0000 0.74629  0.38580  0.63036  Biso   1.000  O
  C1       1.0000 0.23660  0.30819  0.13598  Biso   1.000  C
  C2       1.0000 0.76340  0.30819  0.36402  Biso   1.000  C
  C3       1.0000 0.73660  0.80819  0.13598  Biso   1.000  C
  C4       1.0000 0.26340  0.80819  0.36402  Biso   1.000  C
  C5       1.0000 0.76340  0.69181  0.86402  Biso   1.000  C
  C6       1.0000 0.23660  0.69181  0.63598  Biso   1.000  C
  C7       1.0000 0.26340  0.19181  0.86402  Biso   1.000  C
  C8       1.0000 0.73660  0.19181  0.63598  Biso   1.000  C
  C9       1.0000 0.22771  0.34371  0.21728  Biso   1.000  C
  C10      1.0000 0.77229  0.34371  0.28272  Biso   1.000  C
  C11      1.0000 0.72771  0.84371  0.21728  Biso   1.000  C
  C12      1.0000 0.27229  0.84371  0.28272  Biso   1.000  C
  C13      1.0000 0.77229  0.65629  0.78272  Biso   1.000  C
  C14      1.0000 0.22771  0.65629  0.71728  Biso   1.000  C
  C15      1.0000 0.27229  0.15629  0.78272  Biso   1.000  C
  C16      1.0000 0.72771  0.15629  0.71728  Biso   1.000  C
  H1       1.0000 0.23609  0.42723  0.25772  Biso   1.000  H
  H2       1.0000 0.76391  0.42723  0.24228  Biso   1.000  H
  H3       1.0000 0.73609  0.92723  0.25772  Biso   1.000  H
  H4       1.0000 0.26391  0.92723  0.24228  Biso   1.000  H
  H5       1.0000 0.76391  0.57277  0.74228  Biso   1.000  H
  H6       1.0000 0.23609  0.57277  0.75772  Biso   1.000  H
  H7       1.0000 0.26391  0.07277  0.74228  Biso   1.000  H
  H8       1.0000 0.73609  0.07277  0.75772  Biso   1.000  H
  H9       1.0000 0.22488  0.17042  0.23867  Biso   1.000  H
  H10      1.0000 0.77512  0.17042  0.26133  Biso   1.000  H
  H11      1.0000 0.72488  0.67042  0.23867  Biso   1.000  H
  H12      1.0000 0.27512  0.67042  0.26133  Biso   1.000  H
  H13      1.0000 0.77512  0.82958  0.76133  Biso   1.000  H
  H14      1.0000 0.22488  0.82958  0.73867  Biso   1.000  H
  H15      1.0000 0.27512  0.32958  0.76133  Biso   1.000  H
  H16      1.0000 0.72488  0.32958  0.73867  Biso   1.000  H
  C17      1.0000 0.21069  0.51054  0.20863  Biso   1.000  C
  C18      1.0000 0.78931  0.51054  0.29137  Biso   1.000  C
  C19      1.0000 0.71069  0.01054  0.20863  Biso   1.000  C
  C20      1.0000 0.28931  0.01054  0.29137  Biso   1.000  C
  C21      1.0000 0.78931  0.48946  0.79137  Biso   1.000  C
  C22      1.0000 0.21069  0.48946  0.70863  Biso   1.000  C
  C23      1.0000 0.28931  0.98946  0.79137  Biso   1.000  C
  C24      1.0000 0.71069  0.98946  0.70863  Biso   1.000  C
  H17      1.0000 0.21335  0.67733  0.18217  Biso   1.000  H
  H18      1.0000 0.78665  0.67733  0.31783  Biso   1.000  H
  H19      1.0000 0.71335  0.17733  0.18217  Biso   1.000  H
  H20      1.0000 0.28665  0.17733  0.31783  Biso   1.000  H
  H21      1.0000 0.78665  0.32267  0.81783  Biso   1.000  H
  H22      1.0000 0.21335  0.32267  0.68217  Biso   1.000  H
  H23      1.0000 0.28665  0.82267  0.81783  Biso   1.000  H
  H24      1.0000 0.71335  0.82267  0.68217  Biso   1.000  H
  H25      1.0000 0.20702  0.55035  0.26374  Biso   1.000  H
  H26      1.0000 0.79298  0.55035  0.23626  Biso   1.000  H
  H27      1.0000 0.70702  0.05035  0.26374  Biso   1.000  H
  H28      1.0000 0.29298  0.05035  0.23626  Biso   1.000  H
  H29      1.0000 0.79298  0.44965  0.73626  Biso   1.000  H
  H30      1.0000 0.20702  0.44965  0.76374  Biso   1.000  H
  H31      1.0000 0.29298  0.94965  0.73626  Biso   1.000  H
  H32      1.0000 0.70702  0.94965  0.76374  Biso   1.000  H
  C25      1.0000 0.19529  0.37900  0.15859  Biso   1.000  C
  C26      1.0000 0.80471  0.37900  0.34141  Biso   1.000  C
  C27      1.0000 0.69529  0.87900  0.15859  Biso   1.000  C
  C28      1.0000 0.30471  0.87900  0.34141  Biso   1.000  C
  C29      1.0000 0.80471  0.62100  0.84141  Biso   1.000  C
  C30      1.0000 0.19529  0.62100  0.65859  Biso   1.000  C
  C31      1.0000 0.30471  0.12100  0.84141  Biso   1.000  C
  C32      1.0000 0.69529  0.12100  0.65859  Biso   1.000  C
  H33      1.0000 0.19920  0.33048  0.10451  Biso   1.000  H
  H34      1.0000 0.80080  0.33048  0.39549  Biso   1.000  H
  H35      1.0000 0.69920  0.83048  0.10451  Biso   1.000  H
  H36      1.0000 0.30080  0.83048  0.39549  Biso   1.000  H
  H37      1.0000 0.80080  0.66952  0.89549  Biso   1.000  H
  H38      1.0000 0.19920  0.66952  0.60451  Biso   1.000  H
  H39      1.0000 0.30080  0.16952  0.89549  Biso   1.000  H
  H40      1.0000 0.69920  0.16952  0.60451  Biso   1.000  H
  H41      1.0000 0.19228  0.21668  0.18668  Biso   1.000  H
  H42      1.0000 0.80772  0.21668  0.31332  Biso   1.000  H
  H43      1.0000 0.69228  0.71668  0.18668  Biso   1.000  H
  H44      1.0000 0.30772  0.71668  0.31332  Biso   1.000  H
  H45      1.0000 0.80772  0.78332  0.81332  Biso   1.000  H
  H46      1.0000 0.19228  0.78332  0.68668  Biso   1.000  H
  H47      1.0000 0.30772  0.28332  0.81332  Biso   1.000  H
  H48      1.0000 0.69228  0.28332  0.68668  Biso   1.000  H
  C33      1.0000 0.17934  0.53926  0.14607  Biso   1.000  C
  C34      1.0000 0.82066  0.53926  0.35393  Biso   1.000  C
  C35      1.0000 0.67934  0.03926  0.14607  Biso   1.000  C
  C36      1.0000 0.32066  0.03926  0.35393  Biso   1.000  C
  C37      1.0000 0.82066  0.46074  0.85393  Biso   1.000  C
  C38      1.0000 0.17934  0.46074  0.64607  Biso   1.000  C
  C39      1.0000 0.32066  0.96074  0.85393  Biso   1.000  C
  C40      1.0000 0.67934  0.96074  0.64607  Biso   1.000  C
  H49      1.0000 0.18219  0.69715  0.11545  Biso   1.000  H
  H50      1.0000 0.81781  0.69715  0.38455  Biso   1.000  H
  H51      1.0000 0.68219  0.19715  0.11545  Biso   1.000  H
  H52      1.0000 0.31781  0.19715  0.38455  Biso   1.000  H
  H53      1.0000 0.81781  0.30285  0.88455  Biso   1.000  H
  H54      1.0000 0.18219  0.30285  0.61545  Biso   1.000  H
  H55      1.0000 0.31781  0.80285  0.88455  Biso   1.000  H
  H56      1.0000 0.68219  0.80285  0.61545  Biso   1.000  H
  H57      1.0000 0.17586  0.59583  0.20004  Biso   1.000  H
  H58      1.0000 0.82414  0.59583  0.29996  Biso   1.000  H
  H59      1.0000 0.67586  0.09583  0.20004  Biso   1.000  H
  H60      1.0000 0.32414  0.09583  0.29996  Biso   1.000  H
  H61      1.0000 0.82414  0.40417  0.79996  Biso   1.000  H
  H62      1.0000 0.17586  0.40417  0.70004  Biso   1.000  H
  H63      1.0000 0.32414  0.90417  0.79996  Biso   1.000  H
  H64      1.0000 0.67586  0.90417  0.70004  Biso   1.000  H
  C41      1.0000 0.16337  0.40424  0.09973  Biso   1.000  C
  C42      1.0000 0.83663  0.40424  0.40027  Biso   1.000  C
  C43      1.0000 0.66337  0.90424  0.09973  Biso   1.000  C
  C44      1.0000 0.33663  0.90424  0.40027  Biso   1.000  C
  C45      1.0000 0.83663  0.59576  0.90027  Biso   1.000  C
  C46      1.0000 0.16337  0.59576  0.59973  Biso   1.000  C
  C47      1.0000 0.33663  0.09576  0.90027  Biso   1.000  C
  C48      1.0000 0.66337  0.09576  0.59973  Biso   1.000  C
  H65      1.0000 0.16692  0.34998  0.04552  Biso   1.000  H
  H66      1.0000 0.83308  0.34998  0.45448  Biso   1.000  H
  H67      1.0000 0.66692  0.84998  0.04552  Biso   1.000  H
  H68      1.0000 0.33308  0.84998  0.45448  Biso   1.000  H
  H69      1.0000 0.83308  0.65002  0.95448  Biso   1.000  H
  H70      1.0000 0.16692  0.65002  0.54552  Biso   1.000  H
  H71      1.0000 0.33308  0.15002  0.95448  Biso   1.000  H
  H72      1.0000 0.66692  0.15002  0.54552  Biso   1.000  H
  H73      1.0000 0.16073  0.24501  0.12993  Biso   1.000  H
  H74      1.0000 0.83927  0.24501  0.37007  Biso   1.000  H
  H75      1.0000 0.66073  0.74501  0.12993  Biso   1.000  H
  H76      1.0000 0.33927  0.74501  0.37007  Biso   1.000  H
  H77      1.0000 0.83927  0.75499  0.87007  Biso   1.000  H
  H78      1.0000 0.16073  0.75499  0.62993  Biso   1.000  H
  H79      1.0000 0.33927  0.25499  0.87007  Biso   1.000  H
  H80      1.0000 0.66073  0.25499  0.62993  Biso   1.000  H
  C49      1.0000 0.14654  0.56142  0.08638  Biso   1.000  C
  C50      1.0000 0.85346  0.56142  0.41362  Biso   1.000  C
  C51      1.0000 0.64654  0.06142  0.08638  Biso   1.000  C
  C52      1.0000 0.35346  0.06142  0.41362  Biso   1.000  C
  C53      1.0000 0.85346  0.43858  0.91362  Biso   1.000  C
  C54      1.0000 0.14654  0.43858  0.58638  Biso   1.000  C
  C55      1.0000 0.35346  0.93858  0.91362  Biso   1.000  C
  C56      1.0000 0.64654  0.93858  0.58638  Biso   1.000  C
  H81      1.0000 0.14890  0.71568  0.05305  Biso   1.000  H
  H82      1.0000 0.85110  0.71568  0.44695  Biso   1.000  H
  H83      1.0000 0.64890  0.21568  0.05305  Biso   1.000  H
  H84      1.0000 0.35110  0.21568  0.44695  Biso   1.000  H
  H85      1.0000 0.85110  0.28432  0.94695  Biso   1.000  H
  H86      1.0000 0.14890  0.28432  0.55305  Biso   1.000  H
  H87      1.0000 0.35110  0.78432  0.94695  Biso   1.000  H
  H88      1.0000 0.64890  0.78432  0.55305  Biso   1.000  H
  H89      1.0000 0.14323  0.62406  0.14009  Biso   1.000  H
  H90      1.0000 0.85677  0.62406  0.35991  Biso   1.000  H
  H91      1.0000 0.64323  0.12406  0.14009  Biso   1.000  H
  H92      1.0000 0.35677  0.12406  0.35991  Biso   1.000  H
  H93      1.0000 0.85677  0.37594  0.85991  Biso   1.000  H
  H94      1.0000 0.14323  0.37594  0.64009  Biso   1.000  H
  H95      1.0000 0.35677  0.87594  0.85991  Biso   1.000  H
  H96      1.0000 0.64323  0.87594  0.64009  Biso   1.000  H
  C57      1.0000 0.13115  0.41351  0.04491  Biso   1.000  C
  C58      1.0000 0.86885  0.41351  0.45509  Biso   1.000  C
  C59      1.0000 0.63115  0.91351  0.04491  Biso   1.000  C
  C60      1.0000 0.36885  0.91351  0.45509  Biso   1.000  C
  C61      1.0000 0.86885  0.58649  0.95509  Biso   1.000  C
  C62      1.0000 0.13115  0.58649  0.54491  Biso   1.000  C
  C63      1.0000 0.36885  0.08649  0.95509  Biso   1.000  C
  C64      1.0000 0.63115  0.08649  0.54491  Biso   1.000  C
  H97      1.0000 0.12926  0.25237  0.07583  Biso   1.000  H
  H98      1.0000 0.87074  0.25237  0.42417  Biso   1.000  H
  H99      1.0000 0.62926  0.75237  0.07583  Biso   1.000  H
  H100     1.0000 0.37074  0.75237  0.42417  Biso   1.000  H
  H101     1.0000 0.87074  0.74763  0.92417  Biso   1.000  H
  H102     1.0000 0.12926  0.74763  0.57583  Biso   1.000  H
  H103     1.0000 0.37074  0.24763  0.92417  Biso   1.000  H
  H104     1.0000 0.62926  0.24763  0.57583  Biso   1.000  H
  H105     1.0000 0.13397  0.36374  0.98925  Biso   1.000  H
  H106     1.0000 0.86603  0.36374  0.51075  Biso   1.000  H
  H107     1.0000 0.63397  0.86374  0.98925  Biso   1.000  H
  H108     1.0000 0.36603  0.86374  0.51075  Biso   1.000  H
  H109     1.0000 0.86603  0.63626  0.01075  Biso   1.000  H
  H110     1.0000 0.13397  0.63626  0.48925  Biso   1.000  H
  H111     1.0000 0.36603  0.13626  0.01075  Biso   1.000  H
  H112     1.0000 0.63397  0.13626  0.48925  Biso   1.000  H
  C65      1.0000 0.11416  0.56968  0.03875  Biso   1.000  C
  C66      1.0000 0.88584  0.56968  0.46125  Biso   1.000  C
  C67      1.0000 0.61416  0.06968  0.03875  Biso   1.000  C
  C68      1.0000 0.38584  0.06968  0.46125  Biso   1.000  C
  C69      1.0000 0.88584  0.43032  0.96125  Biso   1.000  C
  C70      1.0000 0.11416  0.43032  0.53875  Biso   1.000  C
  C71      1.0000 0.38584  0.93032  0.96125  Biso   1.000  C
  C72      1.0000 0.61416  0.93032  0.53875  Biso   1.000  C
  H113     1.0000 0.11089  0.61431  0.09430  Biso   1.000  H
  H114     1.0000 0.88911  0.61431  0.40570  Biso   1.000  H
  H115     1.0000 0.61089  0.11431  0.09430  Biso   1.000  H
  H116     1.0000 0.38911  0.11431  0.40570  Biso   1.000  H
  H117     1.0000 0.88911  0.38569  0.90570  Biso   1.000  H
  H118     1.0000 0.11089  0.38569  0.59430  Biso   1.000  H
  H119     1.0000 0.38911  0.88569  0.90570  Biso   1.000  H
  H120     1.0000 0.61089  0.88569  0.59430  Biso   1.000  H
  H121     1.0000 0.11597  0.73420  0.00931  Biso   1.000  H
  H122     1.0000 0.88403  0.73420  0.49069  Biso   1.000  H
  H123     1.0000 0.61597  0.23420  0.00931  Biso   1.000  H
  H124     1.0000 0.38403  0.23420  0.49069  Biso   1.000  H
  H125     1.0000 0.88403  0.26580  0.99069  Biso   1.000  H
  H126     1.0000 0.11597  0.26580  0.50931  Biso   1.000  H
  H127     1.0000 0.38403  0.76580  0.99069  Biso   1.000  H
  H128     1.0000 0.61597  0.76580  0.50931  Biso   1.000  H
  C73      1.0000 0.09913  0.41779  0.99384  Biso   1.000  C
  C74      1.0000 0.90087  0.41779  0.50616  Biso   1.000  C
  C75      1.0000 0.59913  0.91779  0.99384  Biso   1.000  C
  C76      1.0000 0.40087  0.91779  0.50616  Biso   1.000  C
  C77      1.0000 0.90087  0.58221  0.00616  Biso   1.000  C
  C78      1.0000 0.09913  0.58221  0.49384  Biso   1.000  C
  C79      1.0000 0.40087  0.08221  0.00616  Biso   1.000  C
  C80      1.0000 0.59913  0.08221  0.49384  Biso   1.000  C
  H129     1.0000 0.09755  0.25244  0.02182  Biso   1.000  H
  H130     1.0000 0.90245  0.25244  0.47818  Biso   1.000  H
  H131     1.0000 0.59755  0.75244  0.02182  Biso   1.000  H
  H132     1.0000 0.40245  0.75244  0.47818  Biso   1.000  H
  H133     1.0000 0.90245  0.74756  0.97818  Biso   1.000  H
  H134     1.0000 0.09755  0.74756  0.52182  Biso   1.000  H
  H135     1.0000 0.40245  0.24756  0.97818  Biso   1.000  H
  H136     1.0000 0.59755  0.24756  0.52182  Biso   1.000  H
  H137     1.0000 0.10195  0.38418  0.93764  Biso   1.000  H
  H138     1.0000 0.89805  0.38418  0.56236  Biso   1.000  H
  H139     1.0000 0.60195  0.88418  0.93764  Biso   1.000  H
  H140     1.0000 0.39805  0.88418  0.56236  Biso   1.000  H
  H141     1.0000 0.89805  0.61582  0.06236  Biso   1.000  H
  H142     1.0000 0.10195  0.61582  0.43764  Biso   1.000  H
  H143     1.0000 0.39805  0.11582  0.06236  Biso   1.000  H
  H144     1.0000 0.60195  0.11582  0.43764  Biso   1.000  H
  C81      1.0000 0.08197  0.57990  0.99343  Biso   1.000  C
  C82      1.0000 0.91803  0.57990  0.50657  Biso   1.000  C
  C83      1.0000 0.58197  0.07990  0.99343  Biso   1.000  C
  C84      1.0000 0.41803  0.07990  0.50657  Biso   1.000  C
  C85      1.0000 0.91803  0.42010  0.00657  Biso   1.000  C
  C86      1.0000 0.08197  0.42010  0.49343  Biso   1.000  C
  C87      1.0000 0.41803  0.92010  0.00657  Biso   1.000  C
  C88      1.0000 0.58197  0.92010  0.49343  Biso   1.000  C
  H145     1.0000 0.08377  0.76767  0.96174  Biso   1.000  H
  H146     1.0000 0.91623  0.76767  0.53826  Biso   1.000  H
  H147     1.0000 0.58377  0.26767  0.96174  Biso   1.000  H
  H148     1.0000 0.41623  0.26767  0.53826  Biso   1.000  H
  H149     1.0000 0.91623  0.23233  0.03826  Biso   1.000  H
  H150     1.0000 0.08377  0.23233  0.46174  Biso   1.000  H
  H151     1.0000 0.41623  0.73233  0.03826  Biso   1.000  H
  H152     1.0000 0.58377  0.73233  0.46174  Biso   1.000  H
  H153     1.0000 0.07879  0.61762  0.05732  Biso   1.000  H
  H154     1.0000 0.92121  0.61762  0.44268  Biso   1.000  H
  H155     1.0000 0.57879  0.11762  0.05732  Biso   1.000  H
  H156     1.0000 0.42121  0.11762  0.44268  Biso   1.000  H
  H157     1.0000 0.92121  0.38238  0.94268  Biso   1.000  H
  H158     1.0000 0.07879  0.38238  0.55732  Biso   1.000  H
  H159     1.0000 0.42121  0.88238  0.94268  Biso   1.000  H
  H160     1.0000 0.57879  0.88238  0.55732  Biso   1.000  H
  C89      1.0000 0.06674  0.42529  0.94779  Biso   1.000  C
  C90      1.0000 0.93326  0.42529  0.55221  Biso   1.000  C
  C91      1.0000 0.56674  0.92529  0.94779  Biso   1.000  C
  C92      1.0000 0.43326  0.92529  0.55221  Biso   1.000  C
  C93      1.0000 0.93326  0.57471  0.05221  Biso   1.000  C
  C94      1.0000 0.06674  0.57471  0.44779  Biso   1.000  C
  C95      1.0000 0.43326  0.07471  0.05221  Biso   1.000  C
  C96      1.0000 0.56674  0.07471  0.44779  Biso   1.000  C
  H161     1.0000 0.07017  0.38060  0.88470  Biso   1.000  H
  H162     1.0000 0.92983  0.38060  0.61530  Biso   1.000  H
  H163     1.0000 0.57017  0.88060  0.88470  Biso   1.000  H
  H164     1.0000 0.42983  0.88060  0.61530  Biso   1.000  H
  H165     1.0000 0.92983  0.61940  0.11530  Biso   1.000  H
  H166     1.0000 0.07017  0.61940  0.38470  Biso   1.000  H
  H167     1.0000 0.42983  0.11940  0.11530  Biso   1.000  H
  H168     1.0000 0.57017  0.11940  0.38470  Biso   1.000  H
  H169     1.0000 0.06427  0.24454  0.98210  Biso   1.000  H
  H170     1.0000 0.93573  0.24454  0.51790  Biso   1.000  H
  H171     1.0000 0.56427  0.74454  0.98210  Biso   1.000  H
  H172     1.0000 0.43573  0.74454  0.51790  Biso   1.000  H
  H173     1.0000 0.93573  0.75546  0.01790  Biso   1.000  H
  H174     1.0000 0.06427  0.75546  0.48210  Biso   1.000  H
  H175     1.0000 0.43573  0.25546  0.01790  Biso   1.000  H
  H176     1.0000 0.56427  0.25546  0.48210  Biso   1.000  H
  C97      1.0000 0.04970  0.59114  0.94475  Biso   1.000  C
  C98      1.0000 0.95030  0.59114  0.55525  Biso   1.000  C
  C99      1.0000 0.54970  0.09114  0.94475  Biso   1.000  C
  C100     1.0000 0.45030  0.09114  0.55525  Biso   1.000  C
  C101     1.0000 0.95030  0.40886  0.05525  Biso   1.000  C
  C102     1.0000 0.04970  0.40886  0.44475  Biso   1.000  C
  C103     1.0000 0.45030  0.90886  0.05525  Biso   1.000  C
  C104     1.0000 0.54970  0.90886  0.44475  Biso   1.000  C
  H177     1.0000 0.04661  0.64143  0.00792  Biso   1.000  H
  H178     1.0000 0.95339  0.64143  0.49208  Biso   1.000  H
  H179     1.0000 0.54661  0.14143  0.00792  Biso   1.000  H
  H180     1.0000 0.45339  0.14143  0.49208  Biso   1.000  H
  H181     1.0000 0.95339  0.35857  0.99208  Biso   1.000  H
  H182     1.0000 0.04661  0.35857  0.50792  Biso   1.000  H
  H183     1.0000 0.45339  0.85857  0.99208  Biso   1.000  H
  H184     1.0000 0.54661  0.85857  0.50792  Biso   1.000  H
  H185     1.0000 0.05145  0.76887  0.90781  Biso   1.000  H
  H186     1.0000 0.94855  0.76887  0.59219  Biso   1.000  H
  H187     1.0000 0.55145  0.26887  0.90781  Biso   1.000  H
  H188     1.0000 0.44855  0.26887  0.59219  Biso   1.000  H
  H189     1.0000 0.94855  0.23113  0.09219  Biso   1.000  H
  H190     1.0000 0.05145  0.23113  0.40781  Biso   1.000  H
  H191     1.0000 0.44855  0.73113  0.09219  Biso   1.000  H
  H192     1.0000 0.55145  0.73113  0.40781  Biso   1.000  H
  C105     1.0000 0.03433  0.43284  0.90171  Biso   1.000  C
  C106     1.0000 0.96567  0.43284  0.59829  Biso   1.000  C
  C107     1.0000 0.53433  0.93284  0.90171  Biso   1.000  C
  C108     1.0000 0.46567  0.93284  0.59829  Biso   1.000  C
  C109     1.0000 0.96567  0.56716  0.09829  Biso   1.000  C
  C110     1.0000 0.03433  0.56716  0.40171  Biso   1.000  C
  C111     1.0000 0.46567  0.06716  0.09829  Biso   1.000  C
  C112     1.0000 0.53433  0.06716  0.40171  Biso   1.000  C
  H193     1.0000 0.03661  0.40754  0.83648  Biso   1.000  H
  H194     1.0000 0.96339  0.40754  0.66352  Biso   1.000  H
  H195     1.0000 0.53661  0.90754  0.83648  Biso   1.000  H
  H196     1.0000 0.46339  0.90754  0.66352  Biso   1.000  H
  H197     1.0000 0.96339  0.59246  0.16352  Biso   1.000  H
  H198     1.0000 0.03661  0.59246  0.33648  Biso   1.000  H
  H199     1.0000 0.46339  0.09246  0.16352  Biso   1.000  H
  H200     1.0000 0.53661  0.09246  0.33648  Biso   1.000  H
  H201     1.0000 0.03324  0.24263  0.93300  Biso   1.000  H
  H202     1.0000 0.96676  0.24263  0.56700  Biso   1.000  H
  H203     1.0000 0.53324  0.74263  0.93300  Biso   1.000  H
  H204     1.0000 0.46676  0.74263  0.56700  Biso   1.000  H
  H205     1.0000 0.96676  0.75737  0.06700  Biso   1.000  H
  H206     1.0000 0.03324  0.75737  0.43300  Biso   1.000  H
  H207     1.0000 0.46676  0.25737  0.06700  Biso   1.000  H
  H208     1.0000 0.53324  0.25737  0.43300  Biso   1.000  H
  H209     1.0000 0.02187  0.53846  0.90836  Biso   1.000  H
  H210     1.0000 0.97813  0.53846  0.59164  Biso   1.000  H
  H211     1.0000 0.52187  0.03846  0.90836  Biso   1.000  H
  H212     1.0000 0.47813  0.03846  0.59164  Biso   1.000  H
  H213     1.0000 0.97813  0.46154  0.09164  Biso   1.000  H
  H214     1.0000 0.02187  0.46154  0.40836  Biso   1.000  H
  H215     1.0000 0.47813  0.96154  0.09164  Biso   1.000  H
  H216     1.0000 0.52187  0.96154  0.40836  Biso   1.000  H
  O17      1.0000 0.22145  0.25121  0.93525  Biso   1.000  O
  O18      1.0000 0.77855  0.25121  0.56475  Biso   1.000  O
  O19      1.0000 0.72145  0.75121  0.93525  Biso   1.000  O
  O20      1.0000 0.27855  0.75121  0.56475  Biso   1.000  O
  O21      1.0000 0.77855  0.74879  0.06475  Biso   1.000  O
  O22      1.0000 0.22145  0.74879  0.43525  Biso   1.000  O
  O23      1.0000 0.27855  0.24879  0.06475  Biso   1.000  O
  O24      1.0000 0.72145  0.24879  0.43525  Biso   1.000  O
  O25      1.0000 0.23471  0.88216  0.97917  Biso   1.000  O
  O26      1.0000 0.76529  0.88216  0.52083  Biso   1.000  O
  O27      1.0000 0.73471  0.38216  0.97917  Biso   1.000  O
  O28      1.0000 0.26529  0.38216  0.52083  Biso   1.000  O
  O29      1.0000 0.76529  0.11784  0.02083  Biso   1.000  O
  O30      1.0000 0.23471  0.11784  0.47917  Biso   1.000  O
  O31      1.0000 0.26529  0.61784  0.02083  Biso   1.000  O
  O32      1.0000 0.73471  0.61784  0.47917  Biso   1.000  O
  C113     1.0000 0.22091  0.01126  0.95172  Biso   1.000  C
  C114     1.0000 0.77909  0.01126  0.54828  Biso   1.000  C
  C115     1.0000 0.72091  0.51126  0.95172  Biso   1.000  C
  C116     1.0000 0.27909  0.51126  0.54828  Biso   1.000  C
  C117     1.0000 0.77909  0.98874  0.04828  Biso   1.000  C
  C118     1.0000 0.22091  0.98874  0.45172  Biso   1.000  C
  C119     1.0000 0.27909  0.48874  0.04828  Biso   1.000  C
  C120     1.0000 0.72091  0.48874  0.45172  Biso   1.000  C
  C121     1.0000 0.20414  0.86013  0.93673  Biso   1.000  C
  C122     1.0000 0.79586  0.86013  0.56327  Biso   1.000  C
  C123     1.0000 0.70414  0.36013  0.93673  Biso   1.000  C
  C124     1.0000 0.29586  0.36013  0.56327  Biso   1.000  C
  C125     1.0000 0.79586  0.13987  0.06327  Biso   1.000  C
  C126     1.0000 0.20414  0.13987  0.43673  Biso   1.000  C
  C127     1.0000 0.29586  0.63987  0.06327  Biso   1.000  C
  C128     1.0000 0.70414  0.63987  0.43673  Biso   1.000  C
  H217     1.0000 0.20055  0.79725  0.98988  Biso   1.000  H
  H218     1.0000 0.79945  0.79725  0.51012  Biso   1.000  H
  H219     1.0000 0.70055  0.29725  0.98988  Biso   1.000  H
  H220     1.0000 0.29945  0.29725  0.51012  Biso   1.000  H
  H221     1.0000 0.79945  0.20275  0.01012  Biso   1.000  H
  H222     1.0000 0.20055  0.20275  0.48988  Biso   1.000  H
  H223     1.0000 0.29945  0.70275  0.01012  Biso   1.000  H
  H224     1.0000 0.70055  0.70275  0.48988  Biso   1.000  H
  H225     1.0000 0.20656  0.70556  0.90354  Biso   1.000  H
  H226     1.0000 0.79344  0.70556  0.59646  Biso   1.000  H
  H227     1.0000 0.70656  0.20556  0.90354  Biso   1.000  H
  H228     1.0000 0.29344  0.20556  0.59646  Biso   1.000  H
  H229     1.0000 0.79344  0.29444  0.09646  Biso   1.000  H
  H230     1.0000 0.20656  0.29444  0.40354  Biso   1.000  H
  H231     1.0000 0.29344  0.79444  0.09646  Biso   1.000  H
  H232     1.0000 0.70656  0.79444  0.40354  Biso   1.000  H
  C129     1.0000 0.18889  0.00547  0.89424  Biso   1.000  C
  C130     1.0000 0.81111  0.00547  0.60576  Biso   1.000  C
  C131     1.0000 0.68889  0.50547  0.89424  Biso   1.000  C
  C132     1.0000 0.31111  0.50547  0.60576  Biso   1.000  C
  C133     1.0000 0.81111  0.99453  0.10576  Biso   1.000  C
  C134     1.0000 0.18889  0.99453  0.39424  Biso   1.000  C
  C135     1.0000 0.31111  0.49453  0.10576  Biso   1.000  C
  C136     1.0000 0.68889  0.49453  0.39424  Biso   1.000  C
  H233     1.0000 0.18703  0.16795  0.92464  Biso   1.000  H
  H234     1.0000 0.81297  0.16795  0.57536  Biso   1.000  H
  H235     1.0000 0.68703  0.66795  0.92464  Biso   1.000  H
  H236     1.0000 0.31297  0.66795  0.57536  Biso   1.000  H
  H237     1.0000 0.81297  0.83205  0.07536  Biso   1.000  H
  H238     1.0000 0.18703  0.83205  0.42464  Biso   1.000  H
  H239     1.0000 0.31297  0.33205  0.07536  Biso   1.000  H
  H240     1.0000 0.68703  0.33205  0.42464  Biso   1.000  H
  H241     1.0000 0.19192  0.05372  0.83883  Biso   1.000  H
  H242     1.0000 0.80808  0.05372  0.66117  Biso   1.000  H
  H243     1.0000 0.69192  0.55372  0.83883  Biso   1.000  H
  H244     1.0000 0.30808  0.55372  0.66117  Biso   1.000  H
  H245     1.0000 0.80808  0.94628  0.16117  Biso   1.000  H
  H246     1.0000 0.19192  0.94628  0.33883  Biso   1.000  H
  H247     1.0000 0.30808  0.44628  0.16117  Biso   1.000  H
  H248     1.0000 0.69192  0.44628  0.33883  Biso   1.000  H
  C137     1.0000 0.17188  0.85277  0.88733  Biso   1.000  C
  C138     1.0000 0.82812  0.85277  0.61267  Biso   1.000  C
  C139     1.0000 0.67188  0.35277  0.88733  Biso   1.000  C
  C140     1.0000 0.32812  0.35277  0.61267  Biso   1.000  C
  C141     1.0000 0.82812  0.14723  0.11267  Biso   1.000  C
  C142     1.0000 0.17188  0.14723  0.38733  Biso   1.000  C
  C143     1.0000 0.32812  0.64723  0.11267  Biso   1.000  C
  C144     1.0000 0.67188  0.64723  0.38733  Biso   1.000  C
  H249     1.0000 0.16875  0.80859  0.94302  Biso   1.000  H
  H250     1.0000 0.83125  0.80859  0.55698  Biso   1.000  H
  H251     1.0000 0.66875  0.30859  0.94302  Biso   1.000  H
  H252     1.0000 0.33125  0.30859  0.55698  Biso   1.000  H
  H253     1.0000 0.83125  0.19141  0.05698  Biso   1.000  H
  H254     1.0000 0.16875  0.19141  0.44302  Biso   1.000  H
  H255     1.0000 0.33125  0.69141  0.05698  Biso   1.000  H
  H256     1.0000 0.66875  0.69141  0.44302  Biso   1.000  H
  H257     1.0000 0.17393  0.68774  0.85866  Biso   1.000  H
  H258     1.0000 0.82607  0.68774  0.64134  Biso   1.000  H
  H259     1.0000 0.67393  0.18774  0.85866  Biso   1.000  H
  H260     1.0000 0.32607  0.18774  0.64134  Biso   1.000  H
  H261     1.0000 0.82607  0.31226  0.14134  Biso   1.000  H
  H262     1.0000 0.17393  0.31226  0.35866  Biso   1.000  H
  H263     1.0000 0.32607  0.81226  0.14134  Biso   1.000  H
  H264     1.0000 0.67393  0.81226  0.35866  Biso   1.000  H
  C145     1.0000 0.15632  0.99116  0.84249  Biso   1.000  C
  C146     1.0000 0.84368  0.99116  0.65751  Biso   1.000  C
  C147     1.0000 0.65632  0.49116  0.84249  Biso   1.000  C
  C148     1.0000 0.34368  0.49116  0.65751  Biso   1.000  C
  C149     1.0000 0.84368  0.00884  0.15751  Biso   1.000  C
  C150     1.0000 0.15632  0.00884  0.34249  Biso   1.000  C
  C151     1.0000 0.34368  0.50884  0.15751  Biso   1.000  C
  C152     1.0000 0.65632  0.50884  0.34249  Biso   1.000  C
  H265     1.0000 0.15458  0.15831  0.87033  Biso   1.000  H
  H266     1.0000 0.84542  0.15831  0.62967  Biso   1.000  H
  H267     1.0000 0.65458  0.65831  0.87033  Biso   1.000  H
  H268     1.0000 0.34542  0.65831  0.62967  Biso   1.000  H
  H269     1.0000 0.84542  0.84169  0.12967  Biso   1.000  H
  H270     1.0000 0.15458  0.84169  0.37033  Biso   1.000  H
  H271     1.0000 0.34542  0.34169  0.12967  Biso   1.000  H
  H272     1.0000 0.65458  0.34169  0.37033  Biso   1.000  H
  H273     1.0000 0.15947  0.03147  0.78644  Biso   1.000  H
  H274     1.0000 0.84053  0.03147  0.71356  Biso   1.000  H
  H275     1.0000 0.65947  0.53147  0.78644  Biso   1.000  H
  H276     1.0000 0.34053  0.53147  0.71356  Biso   1.000  H
  H277     1.0000 0.84053  0.96853  0.21356  Biso   1.000  H
  H278     1.0000 0.15947  0.96853  0.28644  Biso   1.000  H
  H279     1.0000 0.34053  0.46853  0.21356  Biso   1.000  H
  H280     1.0000 0.65947  0.46853  0.28644  Biso   1.000  H
  C153     1.0000 0.13923  0.84629  0.83657  Biso   1.000  C
  C154     1.0000 0.86077  0.84629  0.66343  Biso   1.000  C
  C155     1.0000 0.63923  0.34629  0.83657  Biso   1.000  C
  C156     1.0000 0.36077  0.34629  0.66343  Biso   1.000  C
  C157     1.0000 0.86077  0.15371  0.16343  Biso   1.000  C
  C158     1.0000 0.13923  0.15371  0.33657  Biso   1.000  C
  C159     1.0000 0.36077  0.65371  0.16343  Biso   1.000  C
  C160     1.0000 0.63923  0.65371  0.33657  Biso   1.000  C
  H281     1.0000 0.13643  0.79994  0.89255  Biso   1.000  H
  H282     1.0000 0.86357  0.79994  0.60745  Biso   1.000  H
  H283     1.0000 0.63643  0.29994  0.89255  Biso   1.000  H
  H284     1.0000 0.36357  0.29994  0.60745  Biso   1.000  H
  H285     1.0000 0.86357  0.20006  0.10745  Biso   1.000  H
  H286     1.0000 0.13643  0.20006  0.39255  Biso   1.000  H
  H287     1.0000 0.36357  0.70006  0.10745  Biso   1.000  H
  H288     1.0000 0.63643  0.70006  0.39255  Biso   1.000  H
  H289     1.0000 0.14097  0.68208  0.80705  Biso   1.000  H
  H290     1.0000 0.85903  0.68208  0.69295  Biso   1.000  H
  H291     1.0000 0.64097  0.18208  0.80705  Biso   1.000  H
  H292     1.0000 0.35903  0.18208  0.69295  Biso   1.000  H
  H293     1.0000 0.85903  0.31792  0.19295  Biso   1.000  H
  H294     1.0000 0.14097  0.31792  0.30705  Biso   1.000  H
  H295     1.0000 0.35903  0.81792  0.19295  Biso   1.000  H
  H296     1.0000 0.64097  0.81792  0.30705  Biso   1.000  H
  C161     1.0000 0.12350  0.98264  0.79513  Biso   1.000  C
  C162     1.0000 0.87650  0.98264  0.70487  Biso   1.000  C
  C163     1.0000 0.62350  0.48264  0.79513  Biso   1.000  C
  C164     1.0000 0.37650  0.48264  0.70487  Biso   1.000  C
  C165     1.0000 0.87650  0.01736  0.20487  Biso   1.000  C
  C166     1.0000 0.12350  0.01736  0.29513  Biso   1.000  C
  C167     1.0000 0.37650  0.51736  0.20487  Biso   1.000  C
  C168     1.0000 0.62350  0.51736  0.29513  Biso   1.000  C
  H297     1.0000 0.12633  0.03325  0.73953  Biso   1.000  H
  H298     1.0000 0.87367  0.03325  0.76047  Biso   1.000  H
  H299     1.0000 0.62633  0.53325  0.73953  Biso   1.000  H
  H300     1.0000 0.37367  0.53325  0.76047  Biso   1.000  H
  H301     1.0000 0.87367  0.96675  0.26047  Biso   1.000  H
  H302     1.0000 0.12633  0.96675  0.23953  Biso   1.000  H
  H303     1.0000 0.37367  0.46675  0.26047  Biso   1.000  H
  H304     1.0000 0.62633  0.46675  0.23953  Biso   1.000  H
  H305     1.0000 0.12151  0.14513  0.82548  Biso   1.000  H
  H306     1.0000 0.87849  0.14513  0.67452  Biso   1.000  H
  H307     1.0000 0.62151  0.64513  0.82548  Biso   1.000  H
  H308     1.0000 0.37849  0.64513  0.67452  Biso   1.000  H
  H309     1.0000 0.87849  0.85487  0.17452  Biso   1.000  H
  H310     1.0000 0.12151  0.85487  0.32548  Biso   1.000  H
  H311     1.0000 0.37849  0.35487  0.17452  Biso   1.000  H
  H312     1.0000 0.62151  0.35487  0.32548  Biso   1.000  H
  C169     1.0000 0.10674  0.83227  0.78819  Biso   1.000  C
  C170     1.0000 0.89326  0.83227  0.71181  Biso   1.000  C
  C171     1.0000 0.60674  0.33227  0.78819  Biso   1.000  C
  C172     1.0000 0.39326  0.33227  0.71181  Biso   1.000  C
  C173     1.0000 0.89326  0.16773  0.21181  Biso   1.000  C
  C174     1.0000 0.10674  0.16773  0.28819  Biso   1.000  C
  C175     1.0000 0.39326  0.66773  0.21181  Biso   1.000  C
  C176     1.0000 0.60674  0.66773  0.28819  Biso   1.000  C
  H313     1.0000 0.10878  0.66938  0.75858  Biso   1.000  H
  H314     1.0000 0.89122  0.66938  0.74142  Biso   1.000  H
  H315     1.0000 0.60878  0.16938  0.75858  Biso   1.000  H
  H316     1.0000 0.39122  0.16938  0.74142  Biso   1.000  H
  H317     1.0000 0.89122  0.33062  0.24142  Biso   1.000  H
  H318     1.0000 0.10878  0.33062  0.25858  Biso   1.000  H
  H319     1.0000 0.39122  0.83062  0.24142  Biso   1.000  H
  H320     1.0000 0.60878  0.83062  0.25858  Biso   1.000  H
  H321     1.0000 0.10383  0.78372  0.84405  Biso   1.000  H
  H322     1.0000 0.89617  0.78372  0.65595  Biso   1.000  H
  H323     1.0000 0.60383  0.28372  0.84405  Biso   1.000  H
  H324     1.0000 0.39617  0.28372  0.65595  Biso   1.000  H
  H325     1.0000 0.89617  0.21628  0.15595  Biso   1.000  H
  H326     1.0000 0.10383  0.21628  0.34405  Biso   1.000  H
  H327     1.0000 0.39617  0.71628  0.15595  Biso   1.000  H
  H328     1.0000 0.60383  0.71628  0.34405  Biso   1.000  H
  C177     1.0000 0.09072  0.96546  0.74594  Biso   1.000  C
  C178     1.0000 0.90928  0.96546  0.75406  Biso   1.000  C
  C179     1.0000 0.59072  0.46546  0.74594  Biso   1.000  C
  C180     1.0000 0.40928  0.46546  0.75406  Biso   1.000  C
  C181     1.0000 0.90928  0.03454  0.25406  Biso   1.000  C
  C182     1.0000 0.09072  0.03454  0.24594  Biso   1.000  C
  C183     1.0000 0.40928  0.53454  0.25406  Biso   1.000  C
  C184     1.0000 0.59072  0.53454  0.24594  Biso   1.000  C
  H329     1.0000 0.09371  0.01551  0.69056  Biso   1.000  H
  H330     1.0000 0.90629  0.01551  0.80944  Biso   1.000  H
  H331     1.0000 0.59371  0.51551  0.69056  Biso   1.000  H
  H332     1.0000 0.40629  0.51551  0.80944  Biso   1.000  H
  H333     1.0000 0.90629  0.98449  0.30944  Biso   1.000  H
  H334     1.0000 0.09371  0.98449  0.19056  Biso   1.000  H
  H335     1.0000 0.40629  0.48449  0.30944  Biso   1.000  H
  H336     1.0000 0.59371  0.48449  0.19056  Biso   1.000  H
  H337     1.0000 0.08868  0.12768  0.77601  Biso   1.000  H
  H338     1.0000 0.91132  0.12768  0.72399  Biso   1.000  H
  H339     1.0000 0.58868  0.62768  0.77601  Biso   1.000  H
  H340     1.0000 0.41132  0.62768  0.72399  Biso   1.000  H
  H341     1.0000 0.91132  0.87232  0.22399  Biso   1.000  H
  H342     1.0000 0.08868  0.87232  0.27601  Biso   1.000  H
  H343     1.0000 0.41132  0.37232  0.22399  Biso   1.000  H
  H344     1.0000 0.58868  0.37232  0.27601  Biso   1.000  H
  C185     1.0000 0.07342  0.81673  0.73736  Biso   1.000  C
  C186     1.0000 0.92658  0.81673  0.76264  Biso   1.000  C
  C187     1.0000 0.57342  0.31673  0.73736  Biso   1.000  C
  C188     1.0000 0.42658  0.31673  0.76264  Biso   1.000  C
  C189     1.0000 0.92658  0.18327  0.26264  Biso   1.000  C
  C190     1.0000 0.07342  0.18327  0.23736  Biso   1.000  C
  C191     1.0000 0.42658  0.68327  0.26264  Biso   1.000  C
  C192     1.0000 0.57342  0.68327  0.23736  Biso   1.000  C
  H345     1.0000 0.06860  0.80320  0.79077  Biso   1.000  H
  H346     1.0000 0.93140  0.80320  0.70923  Biso   1.000  H
  H347     1.0000 0.56860  0.30320  0.79077  Biso   1.000  H
  H348     1.0000 0.43140  0.30320  0.70923  Biso   1.000  H
  H349     1.0000 0.93140  0.19680  0.20923  Biso   1.000  H
  H350     1.0000 0.06860  0.19680  0.29077  Biso   1.000  H
  H351     1.0000 0.43140  0.69680  0.20923  Biso   1.000  H
  H352     1.0000 0.56860  0.69680  0.29077  Biso   1.000  H
  H353     1.0000 0.07544  0.64202  0.71628  Biso   1.000  H
  H354     1.0000 0.92456  0.64202  0.78372  Biso   1.000  H
  H355     1.0000 0.57544  0.14202  0.71628  Biso   1.000  H
  H356     1.0000 0.42456  0.14202  0.78372  Biso   1.000  H
  H357     1.0000 0.92456  0.35798  0.28372  Biso   1.000  H
  H358     1.0000 0.07544  0.35798  0.21628  Biso   1.000  H
  H359     1.0000 0.42456  0.85798  0.28372  Biso   1.000  H
  H360     1.0000 0.57544  0.85798  0.21628  Biso   1.000  H
  C193     1.0000 0.06022  0.96310  0.67695  Biso   1.000  C
  C194     1.0000 0.93978  0.96310  0.82305  Biso   1.000  C
  C195     1.0000 0.56022  0.46310  0.67695  Biso   1.000  C
  C196     1.0000 0.43978  0.46310  0.82305  Biso   1.000  C
  C197     1.0000 0.93978  0.03690  0.32305  Biso   1.000  C
  C198     1.0000 0.06022  0.03690  0.17695  Biso   1.000  C
  C199     1.0000 0.43978  0.53690  0.32305  Biso   1.000  C
  C200     1.0000 0.56022  0.53690  0.17695  Biso   1.000  C
  H361     1.0000 0.06567  0.97756  0.61624  Biso   1.000  H
  H362     1.0000 0.93433  0.97756  0.88376  Biso   1.000  H
  H363     1.0000 0.56567  0.47756  0.61624  Biso   1.000  H
  H364     1.0000 0.43433  0.47756  0.88376  Biso   1.000  H
  H365     1.0000 0.93433  0.02244  0.38376  Biso   1.000  H
  H366     1.0000 0.06567  0.02244  0.11624  Biso   1.000  H
  H367     1.0000 0.43433  0.52244  0.38376  Biso   1.000  H
  H368     1.0000 0.56567  0.52244  0.11624  Biso   1.000  H
  H369     1.0000 0.05792  0.16142  0.70070  Biso   1.000  H
  H370     1.0000 0.94208  0.16142  0.79930  Biso   1.000  H
  H371     1.0000 0.55792  0.66142  0.70070  Biso   1.000  H
  H372     1.0000 0.44208  0.66142  0.79930  Biso   1.000  H
  H373     1.0000 0.94208  0.83858  0.29930  Biso   1.000  H
  H374     1.0000 0.05792  0.83858  0.20070  Biso   1.000  H
  H375     1.0000 0.44208  0.33858  0.29930  Biso   1.000  H
  H376     1.0000 0.55792  0.33858  0.20070  Biso   1.000  H
  C201     1.0000 0.04261  0.81077  0.66844  Biso   1.000  C
  C202     1.0000 0.95739  0.81077  0.83156  Biso   1.000  C
  C203     1.0000 0.54261  0.31077  0.66844  Biso   1.000  C
  C204     1.0000 0.45739  0.31077  0.83156  Biso   1.000  C
  C205     1.0000 0.95739  0.18923  0.33156  Biso   1.000  C
  C206     1.0000 0.04261  0.18923  0.16844  Biso   1.000  C
  C207     1.0000 0.45739  0.68923  0.33156  Biso   1.000  C
  C208     1.0000 0.54261  0.68923  0.16844  Biso   1.000  C
  H377     1.0000 0.04502  0.60996  0.64710  Biso   1.000  H
  H378     1.0000 0.95498  0.60996  0.85290  Biso   1.000  H
  H379     1.0000 0.54502  0.10996  0.64710  Biso   1.000  H
  H380     1.0000 0.45498  0.10996  0.85290  Biso   1.000  H
  H381     1.0000 0.95498  0.39004  0.35290  Biso   1.000  H
  H382     1.0000 0.04502  0.39004  0.14710  Biso   1.000  H
  H383     1.0000 0.45498  0.89004  0.35290  Biso   1.000  H
  H384     1.0000 0.54502  0.89004  0.14710  Biso   1.000  H
  H385     1.0000 0.03667  0.80937  0.72818  Biso   1.000  H
  H386     1.0000 0.96333  0.80937  0.77182  Biso   1.000  H
  H387     1.0000 0.53667  0.30937  0.72818  Biso   1.000  H
  H388     1.0000 0.46333  0.30937  0.77182  Biso   1.000  H
  H389     1.0000 0.96333  0.19063  0.27182  Biso   1.000  H
  H390     1.0000 0.03667  0.19063  0.22818  Biso   1.000  H
  H391     1.0000 0.46333  0.69063  0.27182  Biso   1.000  H
  H392     1.0000 0.53667  0.69063  0.22818  Biso   1.000  H
  C209     1.0000 0.02961  0.95203  0.60576  Biso   1.000  C
  C210     1.0000 0.97039  0.95203  0.89424  Biso   1.000  C
  C211     1.0000 0.52961  0.45203  0.60576  Biso   1.000  C
  C212     1.0000 0.47039  0.45203  0.89424  Biso   1.000  C
  C213     1.0000 0.97039  0.04797  0.39424  Biso   1.000  C
  C214     1.0000 0.02961  0.04797  0.10576  Biso   1.000  C
  C215     1.0000 0.47039  0.54797  0.39424  Biso   1.000  C
  C216     1.0000 0.52961  0.54797  0.10576  Biso   1.000  C
  H393     1.0000 0.02765  0.15499  0.62626  Biso   1.000  H
  H394     1.0000 0.97235  0.15499  0.87374  Biso   1.000  H
  H395     1.0000 0.52765  0.65499  0.62626  Biso   1.000  H
  H396     1.0000 0.47235  0.65499  0.87374  Biso   1.000  H
  H397     1.0000 0.97235  0.84501  0.37374  Biso   1.000  H
  H398     1.0000 0.02765  0.84501  0.12626  Biso   1.000  H
  H399     1.0000 0.47235  0.34501  0.37374  Biso   1.000  H
  H400     1.0000 0.52765  0.34501  0.12626  Biso   1.000  H
  H401     1.0000 0.03481  0.94738  0.54435  Biso   1.000  H
  H402     1.0000 0.96519  0.94738  0.95565  Biso   1.000  H
  H403     1.0000 0.53481  0.44738  0.54435  Biso   1.000  H
  H404     1.0000 0.46519  0.44738  0.95565  Biso   1.000  H
  H405     1.0000 0.96519  0.05262  0.45565  Biso   1.000  H
  H406     1.0000 0.03481  0.05262  0.04435  Biso   1.000  H
  H407     1.0000 0.46519  0.55262  0.45565  Biso   1.000  H
  H408     1.0000 0.53481  0.55262  0.04435  Biso   1.000  H
  C217     1.0000 0.01180  0.80497  0.59945  Biso   1.000  C
  C218     1.0000 0.98820  0.80497  0.90055  Biso   1.000  C
  C219     1.0000 0.51180  0.30497  0.59945  Biso   1.000  C
  C220     1.0000 0.48820  0.30497  0.90055  Biso   1.000  C
  C221     1.0000 0.98820  0.19503  0.40055  Biso   1.000  C
  C222     1.0000 0.01180  0.19503  0.09945  Biso   1.000  C
  C223     1.0000 0.48820  0.69503  0.40055  Biso   1.000  C
  C224     1.0000 0.51180  0.69503  0.09945  Biso   1.000  C
  H409     1.0000 0.01392  0.60017  0.58121  Biso   1.000  H
  H410     1.0000 0.98608  0.60017  0.91879  Biso   1.000  H
  H411     1.0000 0.51392  0.10017  0.58121  Biso   1.000  H
  H412     1.0000 0.48608  0.10017  0.91879  Biso   1.000  H
  H413     1.0000 0.98608  0.39983  0.41879  Biso   1.000  H
  H414     1.0000 0.01392  0.39983  0.08121  Biso   1.000  H
  H415     1.0000 0.48608  0.89983  0.41879  Biso   1.000  H
  H416     1.0000 0.51392  0.89983  0.08121  Biso   1.000  H
  H417     1.0000 0.00585  0.81525  0.65910  Biso   1.000  H
  H418     1.0000 0.99415  0.81525  0.84090  Biso   1.000  H
  H419     1.0000 0.50585  0.31525  0.65910  Biso   1.000  H
  H420     1.0000 0.49415  0.31525  0.84090  Biso   1.000  H
  H421     1.0000 0.99415  0.18475  0.34090  Biso   1.000  H
  H422     1.0000 0.00585  0.18475  0.15910  Biso   1.000  H
  H423     1.0000 0.49415  0.68475  0.34090  Biso   1.000  H
  H424     1.0000 0.50585  0.68475  0.15910  Biso   1.000  H
  H425     1.0000 0.00268  0.90164  0.55329  Biso   1.000  H
  H426     1.0000 0.99732  0.90164  0.94671  Biso   1.000  H
  H427     1.0000 0.50268  0.40164  0.55329  Biso   1.000  H
  H428     1.0000 0.49732  0.40164  0.94671  Biso   1.000  H
  H429     1.0000 0.99732  0.09836  0.44671  Biso   1.000  H
  H430     1.0000 0.00268  0.09836  0.05329  Biso   1.000  H
  H431     1.0000 0.49732  0.59836  0.44671  Biso   1.000  H
  H432     1.0000 0.50268  0.59836  0.05329  Biso   1.000  H
