data_image0
_cell_length_a       69.882
_cell_length_b       5.0541
_cell_length_c       16.1692
_cell_angle_alpha    90
_cell_angle_beta     92.92
_cell_angle_gamma    90

_symmetry_space_group_name_H-M    "P 1"
_symmetry_int_tables_number       1

loop_
  _symmetry_equiv_pos_as_xyz
  'x, y, z'

loop_
  _atom_site_label
  _atom_site_occupancy
  _atom_site_fract_x
  _atom_site_fract_y
  _atom_site_fract_z
  _atom_site_thermal_displace_type
  _atom_site_B_iso_or_equiv
  _atom_site_type_symbol
  Cu1      1.0000 0.24200  0.46820  0.97191  Biso   1.000  Cu
  Cu2      1.0000 0.75800  0.46820  0.52809  Biso   1.000  Cu
  Cu3      1.0000 0.74200  0.96820  0.97191  Biso   1.000  Cu
  Cu4      1.0000 0.25800  0.96820  0.52809  Biso   1.000  Cu
  Cu5      1.0000 0.75800  0.53180  0.02809  Biso   1.000  Cu
  Cu6      1.0000 0.24200  0.53180  0.47191  Biso   1.000  Cu
  Cu7      1.0000 0.25800  0.03180  0.02809  Biso   1.000  Cu
  Cu8      1.0000 0.74200  0.03180  0.47191  Biso   1.000  Cu
  O1       1.0000 0.23183  0.47673  0.08232  Biso   1.000  O
  O2       1.0000 0.76817  0.47673  0.41768  Biso   1.000  O
  O3       1.0000 0.73183  0.97673  0.08232  Biso   1.000  O
  O4       1.0000 0.26817  0.97673  0.41768  Biso   1.000  O
  O5       1.0000 0.76817  0.52327  0.91768  Biso   1.000  O
  O6       1.0000 0.23183  0.52327  0.58232  Biso   1.000  O
  O7       1.0000 0.26817  0.02327  0.91768  Biso   1.000  O
  O8       1.0000 0.73183  0.02327  0.58232  Biso   1.000  O
  O9       1.0000 0.24672  0.11542  0.12945  Biso   1.000  O
  O10      1.0000 0.75328  0.11542  0.37055  Biso   1.000  O
  O11      1.0000 0.74672  0.61542  0.12945  Biso   1.000  O
  O12      1.0000 0.25328  0.61542  0.37055  Biso   1.000  O
  O13      1.0000 0.75328  0.88458  0.87055  Biso   1.000  O
  O14      1.0000 0.24672  0.88458  0.62945  Biso   1.000  O
  O15      1.0000 0.25328  0.38458  0.87055  Biso   1.000  O
  O16      1.0000 0.74672  0.38458  0.62945  Biso   1.000  O
  C1       1.0000 0.23613  0.30781  0.13577  Biso   1.000  C
  C2       1.0000 0.76387  0.30781  0.36423  Biso   1.000  C
  C3       1.0000 0.73613  0.80781  0.13577  Biso   1.000  C
  C4       1.0000 0.26387  0.80781  0.36423  Biso   1.000  C
  C5       1.0000 0.76387  0.69219  0.86423  Biso   1.000  C
  C6       1.0000 0.23613  0.69219  0.63577  Biso   1.000  C
  C7       1.0000 0.26387  0.19219  0.86423  Biso   1.000  C
  C8       1.0000 0.73613  0.19219  0.63577  Biso   1.000  C
  C9       1.0000 0.22645  0.34211  0.21744  Biso   1.000  C
  C10      1.0000 0.77355  0.34211  0.28256  Biso   1.000  C
  C11      1.0000 0.72645  0.84211  0.21744  Biso   1.000  C
  C12      1.0000 0.27355  0.84211  0.28256  Biso   1.000  C
  C13      1.0000 0.77355  0.65789  0.78256  Biso   1.000  C
  C14      1.0000 0.22645  0.65789  0.71744  Biso   1.000  C
  C15      1.0000 0.27355  0.15789  0.78256  Biso   1.000  C
  C16      1.0000 0.72645  0.15789  0.71744  Biso   1.000  C
  H1       1.0000 0.23539  0.42683  0.25700  Biso   1.000  H
  H2       1.0000 0.76461  0.42683  0.24300  Biso   1.000  H
  H3       1.0000 0.73539  0.92683  0.25700  Biso   1.000  H
  H4       1.0000 0.26461  0.92683  0.24300  Biso   1.000  H
  H5       1.0000 0.76461  0.57317  0.74300  Biso   1.000  H
  H6       1.0000 0.23539  0.57317  0.75700  Biso   1.000  H
  H7       1.0000 0.26461  0.07317  0.74300  Biso   1.000  H
  H8       1.0000 0.73539  0.07317  0.75700  Biso   1.000  H
  H9       1.0000 0.22351  0.16862  0.23902  Biso   1.000  H
  H10      1.0000 0.77649  0.16862  0.26098  Biso   1.000  H
  H11      1.0000 0.72351  0.66862  0.23902  Biso   1.000  H
  H12      1.0000 0.27649  0.66862  0.26098  Biso   1.000  H
  H13      1.0000 0.77649  0.83138  0.76098  Biso   1.000  H
  H14      1.0000 0.22351  0.83138  0.73902  Biso   1.000  H
  H15      1.0000 0.27649  0.33138  0.76098  Biso   1.000  H
  H16      1.0000 0.72351  0.33138  0.73902  Biso   1.000  H
  C17      1.0000 0.20801  0.50628  0.21016  Biso   1.000  C
  C18      1.0000 0.79199  0.50628  0.28984  Biso   1.000  C
  C19      1.0000 0.70801  0.00628  0.21016  Biso   1.000  C
  C20      1.0000 0.29199  0.00628  0.28984  Biso   1.000  C
  C21      1.0000 0.79199  0.49372  0.78984  Biso   1.000  C
  C22      1.0000 0.20801  0.49372  0.71016  Biso   1.000  C
  C23      1.0000 0.29199  0.99372  0.78984  Biso   1.000  C
  C24      1.0000 0.70801  0.99372  0.71016  Biso   1.000  C
  H17      1.0000 0.21078  0.67325  0.18354  Biso   1.000  H
  H18      1.0000 0.78922  0.67325  0.31646  Biso   1.000  H
  H19      1.0000 0.71078  0.17325  0.18354  Biso   1.000  H
  H20      1.0000 0.28922  0.17325  0.31646  Biso   1.000  H
  H21      1.0000 0.78922  0.32675  0.81646  Biso   1.000  H
  H22      1.0000 0.21078  0.32675  0.68354  Biso   1.000  H
  H23      1.0000 0.28922  0.82675  0.81646  Biso   1.000  H
  H24      1.0000 0.71078  0.82675  0.68354  Biso   1.000  H
  H25      1.0000 0.20398  0.54560  0.26532  Biso   1.000  H
  H26      1.0000 0.79602  0.54560  0.23468  Biso   1.000  H
  H27      1.0000 0.70398  0.04560  0.26532  Biso   1.000  H
  H28      1.0000 0.29602  0.04560  0.23468  Biso   1.000  H
  H29      1.0000 0.79602  0.45440  0.73468  Biso   1.000  H
  H30      1.0000 0.20398  0.45440  0.76532  Biso   1.000  H
  H31      1.0000 0.29602  0.95440  0.73468  Biso   1.000  H
  H32      1.0000 0.70398  0.95440  0.76532  Biso   1.000  H
  C25      1.0000 0.19157  0.37255  0.16162  Biso   1.000  C
  C26      1.0000 0.80843  0.37255  0.33838  Biso   1.000  C
  C27      1.0000 0.69157  0.87255  0.16162  Biso   1.000  C
  C28      1.0000 0.30843  0.87255  0.33838  Biso   1.000  C
  C29      1.0000 0.80843  0.62745  0.83838  Biso   1.000  C
  C30      1.0000 0.19157  0.62745  0.66162  Biso   1.000  C
  C31      1.0000 0.30843  0.12745  0.83838  Biso   1.000  C
  C32      1.0000 0.69157  0.12745  0.66162  Biso   1.000  C
  H33      1.0000 0.19587  0.32457  0.10747  Biso   1.000  H
  H34      1.0000 0.80413  0.32457  0.39253  Biso   1.000  H
  H35      1.0000 0.69587  0.82457  0.10747  Biso   1.000  H
  H36      1.0000 0.30413  0.82457  0.39253  Biso   1.000  H
  H37      1.0000 0.80413  0.67543  0.89253  Biso   1.000  H
  H38      1.0000 0.19587  0.67543  0.60747  Biso   1.000  H
  H39      1.0000 0.30413  0.17543  0.89253  Biso   1.000  H
  H40      1.0000 0.69587  0.17543  0.60747  Biso   1.000  H
  H41      1.0000 0.18842  0.21000  0.18990  Biso   1.000  H
  H42      1.0000 0.81158  0.21000  0.31010  Biso   1.000  H
  H43      1.0000 0.68842  0.71000  0.18990  Biso   1.000  H
  H44      1.0000 0.31158  0.71000  0.31010  Biso   1.000  H
  H45      1.0000 0.81158  0.79000  0.81010  Biso   1.000  H
  H46      1.0000 0.18842  0.79000  0.68990  Biso   1.000  H
  H47      1.0000 0.31158  0.29000  0.81010  Biso   1.000  H
  H48      1.0000 0.68842  0.29000  0.68990  Biso   1.000  H
  C33      1.0000 0.17429  0.53030  0.15041  Biso   1.000  C
  C34      1.0000 0.82571  0.53030  0.34959  Biso   1.000  C
  C35      1.0000 0.67429  0.03030  0.15041  Biso   1.000  C
  C36      1.0000 0.32571  0.03030  0.34959  Biso   1.000  C
  C37      1.0000 0.82571  0.46970  0.84959  Biso   1.000  C
  C38      1.0000 0.17429  0.46970  0.65041  Biso   1.000  C
  C39      1.0000 0.32571  0.96970  0.84959  Biso   1.000  C
  C40      1.0000 0.67429  0.96970  0.65041  Biso   1.000  C
  H49      1.0000 0.17728  0.68840  0.11963  Biso   1.000  H
  H50      1.0000 0.82272  0.68840  0.38037  Biso   1.000  H
  H51      1.0000 0.67728  0.18840  0.11963  Biso   1.000  H
  H52      1.0000 0.32272  0.18840  0.38037  Biso   1.000  H
  H53      1.0000 0.82272  0.31160  0.88037  Biso   1.000  H
  H54      1.0000 0.17728  0.31160  0.61963  Biso   1.000  H
  H55      1.0000 0.32272  0.81160  0.88037  Biso   1.000  H
  H56      1.0000 0.67728  0.81160  0.61963  Biso   1.000  H
  H57      1.0000 0.17045  0.58639  0.20442  Biso   1.000  H
  H58      1.0000 0.82955  0.58639  0.29558  Biso   1.000  H
  H59      1.0000 0.67045  0.08639  0.20442  Biso   1.000  H
  H60      1.0000 0.32955  0.08639  0.29558  Biso   1.000  H
  H61      1.0000 0.82955  0.41361  0.79558  Biso   1.000  H
  H62      1.0000 0.17045  0.41361  0.70442  Biso   1.000  H
  H63      1.0000 0.32955  0.91361  0.79558  Biso   1.000  H
  H64      1.0000 0.67045  0.91361  0.70442  Biso   1.000  H
  C41      1.0000 0.15723  0.39302  0.10560  Biso   1.000  C
  C42      1.0000 0.84277  0.39302  0.39440  Biso   1.000  C
  C43      1.0000 0.65723  0.89302  0.10560  Biso   1.000  C
  C44      1.0000 0.34277  0.89302  0.39440  Biso   1.000  C
  C45      1.0000 0.84277  0.60698  0.89440  Biso   1.000  C
  C46      1.0000 0.15723  0.60698  0.60560  Biso   1.000  C
  C47      1.0000 0.34277  0.10698  0.89440  Biso   1.000  C
  C48      1.0000 0.65723  0.10698  0.60560  Biso   1.000  C
  H65      1.0000 0.16114  0.33925  0.05135  Biso   1.000  H
  H66      1.0000 0.83886  0.33925  0.44865  Biso   1.000  H
  H67      1.0000 0.66114  0.83925  0.05135  Biso   1.000  H
  H68      1.0000 0.33886  0.83925  0.44865  Biso   1.000  H
  H69      1.0000 0.83886  0.66075  0.94865  Biso   1.000  H
  H70      1.0000 0.16114  0.66075  0.55135  Biso   1.000  H
  H71      1.0000 0.33886  0.16075  0.94865  Biso   1.000  H
  H72      1.0000 0.66114  0.16075  0.55135  Biso   1.000  H
  H73      1.0000 0.15447  0.23361  0.13594  Biso   1.000  H
  H74      1.0000 0.84553  0.23361  0.36406  Biso   1.000  H
  H75      1.0000 0.65447  0.73361  0.13594  Biso   1.000  H
  H76      1.0000 0.34553  0.73361  0.36406  Biso   1.000  H
  H77      1.0000 0.84553  0.76639  0.86406  Biso   1.000  H
  H78      1.0000 0.15447  0.76639  0.63594  Biso   1.000  H
  H79      1.0000 0.34553  0.26639  0.86406  Biso   1.000  H
  H80      1.0000 0.65447  0.26639  0.63594  Biso   1.000  H
  C49      1.0000 0.13901  0.54757  0.09363  Biso   1.000  C
  C50      1.0000 0.86099  0.54757  0.40637  Biso   1.000  C
  C51      1.0000 0.63901  0.04757  0.09363  Biso   1.000  C
  C52      1.0000 0.36099  0.04757  0.40637  Biso   1.000  C
  C53      1.0000 0.86099  0.45243  0.90637  Biso   1.000  C
  C54      1.0000 0.13901  0.45243  0.59363  Biso   1.000  C
  C55      1.0000 0.36099  0.95243  0.90637  Biso   1.000  C
  C56      1.0000 0.63901  0.95243  0.59363  Biso   1.000  C
  H81      1.0000 0.14147  0.70197  0.06020  Biso   1.000  H
  H82      1.0000 0.85853  0.70197  0.43980  Biso   1.000  H
  H83      1.0000 0.64147  0.20197  0.06020  Biso   1.000  H
  H84      1.0000 0.35853  0.20197  0.43980  Biso   1.000  H
  H85      1.0000 0.85853  0.29803  0.93980  Biso   1.000  H
  H86      1.0000 0.14147  0.29803  0.56020  Biso   1.000  H
  H87      1.0000 0.35853  0.79803  0.93980  Biso   1.000  H
  H88      1.0000 0.64147  0.79803  0.56020  Biso   1.000  H
  H89      1.0000 0.13534  0.60974  0.14737  Biso   1.000  H
  H90      1.0000 0.86466  0.60974  0.35263  Biso   1.000  H
  H91      1.0000 0.63534  0.10974  0.14737  Biso   1.000  H
  H92      1.0000 0.36466  0.10974  0.35263  Biso   1.000  H
  H93      1.0000 0.86466  0.39026  0.85263  Biso   1.000  H
  H94      1.0000 0.13534  0.39026  0.64737  Biso   1.000  H
  H95      1.0000 0.36466  0.89026  0.85263  Biso   1.000  H
  H96      1.0000 0.63534  0.89026  0.64737  Biso   1.000  H
  C57      1.0000 0.12258  0.39749  0.05363  Biso   1.000  C
  C58      1.0000 0.87742  0.39749  0.44637  Biso   1.000  C
  C59      1.0000 0.62258  0.89749  0.05363  Biso   1.000  C
  C60      1.0000 0.37742  0.89749  0.44637  Biso   1.000  C
  C61      1.0000 0.87742  0.60251  0.94637  Biso   1.000  C
  C62      1.0000 0.12258  0.60251  0.55363  Biso   1.000  C
  C63      1.0000 0.37742  0.10251  0.94637  Biso   1.000  C
  C64      1.0000 0.62258  0.10251  0.55363  Biso   1.000  C
  H97      1.0000 0.12062  0.23629  0.08463  Biso   1.000  H
  H98      1.0000 0.87938  0.23629  0.41537  Biso   1.000  H
  H99      1.0000 0.62062  0.73629  0.08463  Biso   1.000  H
  H100     1.0000 0.37938  0.73629  0.41537  Biso   1.000  H
  H101     1.0000 0.87938  0.76371  0.91537  Biso   1.000  H
  H102     1.0000 0.12062  0.76371  0.58463  Biso   1.000  H
  H103     1.0000 0.37938  0.26371  0.91537  Biso   1.000  H
  H104     1.0000 0.62062  0.26371  0.58463  Biso   1.000  H
  H105     1.0000 0.12571  0.34810  0.99800  Biso   1.000  H
  H106     1.0000 0.87429  0.34810  0.50200  Biso   1.000  H
  H107     1.0000 0.62571  0.84810  0.99800  Biso   1.000  H
  H108     1.0000 0.37429  0.84810  0.50200  Biso   1.000  H
  H109     1.0000 0.87429  0.65190  0.00200  Biso   1.000  H
  H110     1.0000 0.12571  0.65190  0.49800  Biso   1.000  H
  H111     1.0000 0.37429  0.15190  0.00200  Biso   1.000  H
  H112     1.0000 0.62571  0.15190  0.49800  Biso   1.000  H
  C65      1.0000 0.10417  0.55102  0.04883  Biso   1.000  C
  C66      1.0000 0.89583  0.55102  0.45117  Biso   1.000  C
  C67      1.0000 0.60417  0.05102  0.04883  Biso   1.000  C
  C68      1.0000 0.39583  0.05102  0.45117  Biso   1.000  C
  C69      1.0000 0.89583  0.44898  0.95117  Biso   1.000  C
  C70      1.0000 0.10417  0.44898  0.54883  Biso   1.000  C
  C71      1.0000 0.39583  0.94898  0.95117  Biso   1.000  C
  C72      1.0000 0.60417  0.94898  0.54883  Biso   1.000  C
  H113     1.0000 0.10057  0.59521  0.10440  Biso   1.000  H
  H114     1.0000 0.89943  0.59521  0.39560  Biso   1.000  H
  H115     1.0000 0.60057  0.09521  0.10440  Biso   1.000  H
  H116     1.0000 0.39943  0.09521  0.39560  Biso   1.000  H
  H117     1.0000 0.89943  0.40479  0.89560  Biso   1.000  H
  H118     1.0000 0.10057  0.40479  0.60440  Biso   1.000  H
  H119     1.0000 0.39943  0.90479  0.89560  Biso   1.000  H
  H120     1.0000 0.60057  0.90479  0.60440  Biso   1.000  H
  H121     1.0000 0.10604  0.71559  0.01932  Biso   1.000  H
  H122     1.0000 0.89396  0.71559  0.48068  Biso   1.000  H
  H123     1.0000 0.60604  0.21559  0.01932  Biso   1.000  H
  H124     1.0000 0.39396  0.21559  0.48068  Biso   1.000  H
  H125     1.0000 0.89396  0.28441  0.98068  Biso   1.000  H
  H126     1.0000 0.10604  0.28441  0.51932  Biso   1.000  H
  H127     1.0000 0.39396  0.78441  0.98068  Biso   1.000  H
  H128     1.0000 0.60604  0.78441  0.51932  Biso   1.000  H
  C73      1.0000 0.08814  0.39703  0.00539  Biso   1.000  C
  C74      1.0000 0.91186  0.39703  0.49461  Biso   1.000  C
  C75      1.0000 0.58814  0.89703  0.00539  Biso   1.000  C
  C76      1.0000 0.41186  0.89703  0.49461  Biso   1.000  C
  C77      1.0000 0.91186  0.60297  0.99461  Biso   1.000  C
  C78      1.0000 0.08814  0.60297  0.50539  Biso   1.000  C
  C79      1.0000 0.41186  0.10297  0.99461  Biso   1.000  C
  C80      1.0000 0.58814  0.10297  0.50539  Biso   1.000  C
  H129     1.0000 0.08652  0.23165  0.03343  Biso   1.000  H
  H130     1.0000 0.91348  0.23165  0.46657  Biso   1.000  H
  H131     1.0000 0.58652  0.73165  0.03343  Biso   1.000  H
  H132     1.0000 0.41348  0.73165  0.46657  Biso   1.000  H
  H133     1.0000 0.91348  0.76835  0.96657  Biso   1.000  H
  H134     1.0000 0.08652  0.76835  0.53343  Biso   1.000  H
  H135     1.0000 0.41348  0.26835  0.96657  Biso   1.000  H
  H136     1.0000 0.58652  0.26835  0.53343  Biso   1.000  H
  H137     1.0000 0.09126  0.36377  0.94921  Biso   1.000  H
  H138     1.0000 0.90874  0.36377  0.55079  Biso   1.000  H
  H139     1.0000 0.59126  0.86377  0.94921  Biso   1.000  H
  H140     1.0000 0.40874  0.86377  0.55079  Biso   1.000  H
  H141     1.0000 0.90874  0.63623  0.05079  Biso   1.000  H
  H142     1.0000 0.09126  0.63623  0.44921  Biso   1.000  H
  H143     1.0000 0.40874  0.13623  0.05079  Biso   1.000  H
  H144     1.0000 0.59126  0.13623  0.44921  Biso   1.000  H
  C81      1.0000 0.06954  0.55647  0.00632  Biso   1.000  C
  C82      1.0000 0.93046  0.55647  0.49368  Biso   1.000  C
  C83      1.0000 0.56954  0.05647  0.00632  Biso   1.000  C
  C84      1.0000 0.43046  0.05647  0.49368  Biso   1.000  C
  C85      1.0000 0.93046  0.44353  0.99368  Biso   1.000  C
  C86      1.0000 0.06954  0.44353  0.50632  Biso   1.000  C
  C87      1.0000 0.43046  0.94353  0.99368  Biso   1.000  C
  C88      1.0000 0.56954  0.94353  0.50632  Biso   1.000  C
  H145     1.0000 0.07138  0.74427  0.97456  Biso   1.000  H
  H146     1.0000 0.92862  0.74427  0.52544  Biso   1.000  H
  H147     1.0000 0.57138  0.24427  0.97456  Biso   1.000  H
  H148     1.0000 0.42862  0.24427  0.52544  Biso   1.000  H
  H149     1.0000 0.92862  0.25573  0.02544  Biso   1.000  H
  H150     1.0000 0.07138  0.25573  0.47456  Biso   1.000  H
  H151     1.0000 0.42862  0.75573  0.02544  Biso   1.000  H
  H152     1.0000 0.57138  0.75573  0.47456  Biso   1.000  H
  H153     1.0000 0.06602  0.59378  0.07019  Biso   1.000  H
  H154     1.0000 0.93398  0.59378  0.42981  Biso   1.000  H
  H155     1.0000 0.56602  0.09378  0.07019  Biso   1.000  H
  H156     1.0000 0.43398  0.09378  0.42981  Biso   1.000  H
  H157     1.0000 0.93398  0.40622  0.92981  Biso   1.000  H
  H158     1.0000 0.06602  0.40622  0.57019  Biso   1.000  H
  H159     1.0000 0.43398  0.90622  0.92981  Biso   1.000  H
  H160     1.0000 0.56602  0.90622  0.57019  Biso   1.000  H
  C89      1.0000 0.05329  0.39972  0.96216  Biso   1.000  C
  C90      1.0000 0.94671  0.39972  0.53784  Biso   1.000  C
  C91      1.0000 0.55329  0.89972  0.96216  Biso   1.000  C
  C92      1.0000 0.44671  0.89972  0.53784  Biso   1.000  C
  C93      1.0000 0.94671  0.60028  0.03784  Biso   1.000  C
  C94      1.0000 0.05329  0.60028  0.46216  Biso   1.000  C
  C95      1.0000 0.44671  0.10028  0.03784  Biso   1.000  C
  C96      1.0000 0.55329  0.10028  0.46216  Biso   1.000  C
  H161     1.0000 0.05708  0.35548  0.89907  Biso   1.000  H
  H162     1.0000 0.94292  0.35548  0.60093  Biso   1.000  H
  H163     1.0000 0.55708  0.85548  0.89907  Biso   1.000  H
  H164     1.0000 0.44292  0.85548  0.60093  Biso   1.000  H
  H165     1.0000 0.94292  0.64452  0.10093  Biso   1.000  H
  H166     1.0000 0.05708  0.64452  0.39907  Biso   1.000  H
  H167     1.0000 0.44292  0.14452  0.10093  Biso   1.000  H
  H168     1.0000 0.55708  0.14452  0.39907  Biso   1.000  H
  H169     1.0000 0.05072  0.21884  0.99658  Biso   1.000  H
  H170     1.0000 0.94928  0.21884  0.50342  Biso   1.000  H
  H171     1.0000 0.55072  0.71884  0.99658  Biso   1.000  H
  H172     1.0000 0.44928  0.71884  0.50342  Biso   1.000  H
  H173     1.0000 0.94928  0.78116  0.00342  Biso   1.000  H
  H174     1.0000 0.05072  0.78116  0.49658  Biso   1.000  H
  H175     1.0000 0.44928  0.28116  0.00342  Biso   1.000  H
  H176     1.0000 0.55072  0.28116  0.49658  Biso   1.000  H
  C97      1.0000 0.03482  0.56291  0.96047  Biso   1.000  C
  C98      1.0000 0.96518  0.56291  0.53953  Biso   1.000  C
  C99      1.0000 0.53482  0.06291  0.96047  Biso   1.000  C
  C100     1.0000 0.46518  0.06291  0.53953  Biso   1.000  C
  C101     1.0000 0.96518  0.43709  0.03953  Biso   1.000  C
  C102     1.0000 0.03482  0.43709  0.46047  Biso   1.000  C
  C103     1.0000 0.46518  0.93709  0.03953  Biso   1.000  C
  C104     1.0000 0.53482  0.93709  0.46047  Biso   1.000  C
  H177     1.0000 0.03140  0.61280  0.02361  Biso   1.000  H
  H178     1.0000 0.96860  0.61280  0.47639  Biso   1.000  H
  H179     1.0000 0.53140  0.11280  0.02361  Biso   1.000  H
  H180     1.0000 0.46860  0.11280  0.47639  Biso   1.000  H
  H181     1.0000 0.96860  0.38720  0.97639  Biso   1.000  H
  H182     1.0000 0.03140  0.38720  0.52361  Biso   1.000  H
  H183     1.0000 0.46860  0.88720  0.97639  Biso   1.000  H
  H184     1.0000 0.53140  0.88720  0.52361  Biso   1.000  H
  H185     1.0000 0.03661  0.74066  0.92349  Biso   1.000  H
  H186     1.0000 0.96339  0.74066  0.57651  Biso   1.000  H
  H187     1.0000 0.53661  0.24066  0.92349  Biso   1.000  H
  H188     1.0000 0.46339  0.24066  0.57651  Biso   1.000  H
  H189     1.0000 0.96339  0.25934  0.07651  Biso   1.000  H
  H190     1.0000 0.03661  0.25934  0.42349  Biso   1.000  H
  H191     1.0000 0.46339  0.75934  0.07651  Biso   1.000  H
  H192     1.0000 0.53661  0.75934  0.42349  Biso   1.000  H
  H193     1.0000 0.02315  0.44868  0.93088  Biso   1.000  H
  H194     1.0000 0.97685  0.44868  0.56912  Biso   1.000  H
  H195     1.0000 0.52315  0.94868  0.93088  Biso   1.000  H
  H196     1.0000 0.47685  0.94868  0.56912  Biso   1.000  H
  H197     1.0000 0.97685  0.55132  0.06912  Biso   1.000  H
  H198     1.0000 0.02315  0.55132  0.43088  Biso   1.000  H
  H199     1.0000 0.47685  0.05132  0.06912  Biso   1.000  H
  H200     1.0000 0.52315  0.05132  0.43088  Biso   1.000  H
  O17      1.0000 0.22005  0.24838  0.93714  Biso   1.000  O
  O18      1.0000 0.77995  0.24838  0.56286  Biso   1.000  O
  O19      1.0000 0.72005  0.74838  0.93714  Biso   1.000  O
  O20      1.0000 0.27995  0.74838  0.56286  Biso   1.000  O
  O21      1.0000 0.77995  0.75162  0.06286  Biso   1.000  O
  O22      1.0000 0.22005  0.75162  0.43714  Biso   1.000  O
  O23      1.0000 0.27995  0.25162  0.06286  Biso   1.000  O
  O24      1.0000 0.72005  0.25162  0.43714  Biso   1.000  O
  O25      1.0000 0.23456  0.88125  0.97991  Biso   1.000  O
  O26      1.0000 0.76544  0.88125  0.52009  Biso   1.000  O
  O27      1.0000 0.73456  0.38125  0.97991  Biso   1.000  O
  O28      1.0000 0.26544  0.38125  0.52009  Biso   1.000  O
  O29      1.0000 0.76544  0.11875  0.02009  Biso   1.000  O
  O30      1.0000 0.23456  0.11875  0.47991  Biso   1.000  O
  O31      1.0000 0.26544  0.61875  0.02009  Biso   1.000  O
  O32      1.0000 0.73456  0.61875  0.47991  Biso   1.000  O
  C105     1.0000 0.21963  0.00861  0.95367  Biso   1.000  C
  C106     1.0000 0.78037  0.00861  0.54633  Biso   1.000  C
  C107     1.0000 0.71963  0.50861  0.95367  Biso   1.000  C
  C108     1.0000 0.28037  0.50861  0.54633  Biso   1.000  C
  C109     1.0000 0.78037  0.99139  0.04633  Biso   1.000  C
  C110     1.0000 0.21963  0.99139  0.45367  Biso   1.000  C
  C111     1.0000 0.28037  0.49139  0.04633  Biso   1.000  C
  C112     1.0000 0.71963  0.49139  0.45367  Biso   1.000  C
  C113     1.0000 0.20169  0.85516  0.94015  Biso   1.000  C
  C114     1.0000 0.79831  0.85516  0.55985  Biso   1.000  C
  C115     1.0000 0.70169  0.35516  0.94015  Biso   1.000  C
  C116     1.0000 0.29831  0.35516  0.55985  Biso   1.000  C
  C117     1.0000 0.79831  0.14484  0.05985  Biso   1.000  C
  C118     1.0000 0.20169  0.14484  0.44015  Biso   1.000  C
  C119     1.0000 0.29831  0.64484  0.05985  Biso   1.000  C
  C120     1.0000 0.70169  0.64484  0.44015  Biso   1.000  C
  H201     1.0000 0.19782  0.79190  0.99339  Biso   1.000  H
  H202     1.0000 0.80218  0.79190  0.50661  Biso   1.000  H
  H203     1.0000 0.69782  0.29190  0.99339  Biso   1.000  H
  H204     1.0000 0.30218  0.29190  0.50661  Biso   1.000  H
  H205     1.0000 0.80218  0.20810  0.00661  Biso   1.000  H
  H206     1.0000 0.19782  0.20810  0.49339  Biso   1.000  H
  H207     1.0000 0.30218  0.70810  0.00661  Biso   1.000  H
  H208     1.0000 0.69782  0.70810  0.49339  Biso   1.000  H
  H209     1.0000 0.20444  0.70105  0.90695  Biso   1.000  H
  H210     1.0000 0.79556  0.70105  0.59305  Biso   1.000  H
  H211     1.0000 0.70444  0.20105  0.90695  Biso   1.000  H
  H212     1.0000 0.29556  0.20105  0.59305  Biso   1.000  H
  H213     1.0000 0.79556  0.29895  0.09305  Biso   1.000  H
  H214     1.0000 0.20444  0.29895  0.40695  Biso   1.000  H
  H215     1.0000 0.29556  0.79895  0.09305  Biso   1.000  H
  H216     1.0000 0.70444  0.79895  0.40695  Biso   1.000  H
  C121     1.0000 0.18521  0.99807  0.89904  Biso   1.000  C
  C122     1.0000 0.81479  0.99807  0.60096  Biso   1.000  C
  C123     1.0000 0.68521  0.49807  0.89904  Biso   1.000  C
  C124     1.0000 0.31479  0.49807  0.60096  Biso   1.000  C
  C125     1.0000 0.81479  0.00193  0.10096  Biso   1.000  C
  C126     1.0000 0.18521  0.00193  0.39904  Biso   1.000  C
  C127     1.0000 0.31479  0.50193  0.10096  Biso   1.000  C
  C128     1.0000 0.68521  0.50193  0.39904  Biso   1.000  C
  H217     1.0000 0.18306  0.16016  0.92940  Biso   1.000  H
  H218     1.0000 0.81694  0.16016  0.57060  Biso   1.000  H
  H219     1.0000 0.68306  0.66016  0.92940  Biso   1.000  H
  H220     1.0000 0.31694  0.66016  0.57060  Biso   1.000  H
  H221     1.0000 0.81694  0.83984  0.07060  Biso   1.000  H
  H222     1.0000 0.18306  0.83984  0.42940  Biso   1.000  H
  H223     1.0000 0.31694  0.33984  0.07060  Biso   1.000  H
  H224     1.0000 0.68306  0.33984  0.42940  Biso   1.000  H
  H225     1.0000 0.18849  0.04663  0.84359  Biso   1.000  H
  H226     1.0000 0.81151  0.04663  0.65641  Biso   1.000  H
  H227     1.0000 0.68849  0.54663  0.84359  Biso   1.000  H
  H228     1.0000 0.31151  0.54663  0.65641  Biso   1.000  H
  H229     1.0000 0.81151  0.95337  0.15641  Biso   1.000  H
  H230     1.0000 0.18849  0.95337  0.34359  Biso   1.000  H
  H231     1.0000 0.31151  0.45337  0.15641  Biso   1.000  H
  H232     1.0000 0.68849  0.45337  0.34359  Biso   1.000  H
  C129     1.0000 0.16700  0.84303  0.89358  Biso   1.000  C
  C130     1.0000 0.83300  0.84303  0.60642  Biso   1.000  C
  C131     1.0000 0.66700  0.34303  0.89358  Biso   1.000  C
  C132     1.0000 0.33300  0.34303  0.60642  Biso   1.000  C
  C133     1.0000 0.83300  0.15697  0.10642  Biso   1.000  C
  C134     1.0000 0.16700  0.15697  0.39358  Biso   1.000  C
  C135     1.0000 0.33300  0.65697  0.10642  Biso   1.000  C
  C136     1.0000 0.66700  0.65697  0.39358  Biso   1.000  C
  H233     1.0000 0.16361  0.79852  0.94931  Biso   1.000  H
  H234     1.0000 0.83639  0.79852  0.55069  Biso   1.000  H
  H235     1.0000 0.66361  0.29852  0.94931  Biso   1.000  H
  H236     1.0000 0.33639  0.29852  0.55069  Biso   1.000  H
  H237     1.0000 0.83639  0.20148  0.05069  Biso   1.000  H
  H238     1.0000 0.16361  0.20148  0.44931  Biso   1.000  H
  H239     1.0000 0.33639  0.70148  0.05069  Biso   1.000  H
  H240     1.0000 0.66361  0.70148  0.44931  Biso   1.000  H
  H241     1.0000 0.16935  0.67843  0.86492  Biso   1.000  H
  H242     1.0000 0.83065  0.67843  0.63508  Biso   1.000  H
  H243     1.0000 0.66935  0.17843  0.86492  Biso   1.000  H
  H244     1.0000 0.33065  0.17843  0.63508  Biso   1.000  H
  H245     1.0000 0.83065  0.32157  0.13508  Biso   1.000  H
  H246     1.0000 0.16935  0.32157  0.36492  Biso   1.000  H
  H247     1.0000 0.33065  0.82157  0.13508  Biso   1.000  H
  H248     1.0000 0.66935  0.82157  0.36492  Biso   1.000  H
  C137     1.0000 0.15019  0.97895  0.85016  Biso   1.000  C
  C138     1.0000 0.84981  0.97895  0.64984  Biso   1.000  C
  C139     1.0000 0.65019  0.47895  0.85016  Biso   1.000  C
  C140     1.0000 0.34981  0.47895  0.64984  Biso   1.000  C
  C141     1.0000 0.84981  0.02105  0.14984  Biso   1.000  C
  C142     1.0000 0.15019  0.02105  0.35016  Biso   1.000  C
  C143     1.0000 0.34981  0.52105  0.14984  Biso   1.000  C
  C144     1.0000 0.65019  0.52105  0.35016  Biso   1.000  C
  H249     1.0000 0.14817  0.14571  0.87797  Biso   1.000  H
  H250     1.0000 0.85183  0.14571  0.62203  Biso   1.000  H
  H251     1.0000 0.64817  0.64571  0.87797  Biso   1.000  H
  H252     1.0000 0.35183  0.64571  0.62203  Biso   1.000  H
  H253     1.0000 0.85183  0.85429  0.12203  Biso   1.000  H
  H254     1.0000 0.14817  0.85429  0.37797  Biso   1.000  H
  H255     1.0000 0.35183  0.35429  0.12203  Biso   1.000  H
  H256     1.0000 0.64817  0.35429  0.37797  Biso   1.000  H
  H257     1.0000 0.15360  0.01960  0.79408  Biso   1.000  H
  H258     1.0000 0.84640  0.01960  0.70592  Biso   1.000  H
  H259     1.0000 0.65360  0.51960  0.79408  Biso   1.000  H
  H260     1.0000 0.34640  0.51960  0.70592  Biso   1.000  H
  H261     1.0000 0.84640  0.98040  0.20592  Biso   1.000  H
  H262     1.0000 0.15360  0.98040  0.29408  Biso   1.000  H
  H263     1.0000 0.34640  0.48040  0.20592  Biso   1.000  H
  H264     1.0000 0.65360  0.48040  0.29408  Biso   1.000  H
  C145     1.0000 0.13189  0.83172  0.84569  Biso   1.000  C
  C146     1.0000 0.86811  0.83172  0.65431  Biso   1.000  C
  C147     1.0000 0.63189  0.33172  0.84569  Biso   1.000  C
  C148     1.0000 0.36811  0.33172  0.65431  Biso   1.000  C
  C149     1.0000 0.86811  0.16828  0.15431  Biso   1.000  C
  C150     1.0000 0.13189  0.16828  0.34569  Biso   1.000  C
  C151     1.0000 0.36811  0.66828  0.15431  Biso   1.000  C
  C152     1.0000 0.63189  0.66828  0.34569  Biso   1.000  C
  H265     1.0000 0.12885  0.78510  0.90168  Biso   1.000  H
  H266     1.0000 0.87115  0.78510  0.59832  Biso   1.000  H
  H267     1.0000 0.62885  0.28510  0.90168  Biso   1.000  H
  H268     1.0000 0.37115  0.28510  0.59832  Biso   1.000  H
  H269     1.0000 0.87115  0.21490  0.09832  Biso   1.000  H
  H270     1.0000 0.12885  0.21490  0.40168  Biso   1.000  H
  H271     1.0000 0.37115  0.71490  0.09832  Biso   1.000  H
  H272     1.0000 0.62885  0.71490  0.40168  Biso   1.000  H
  H273     1.0000 0.13390  0.66789  0.81622  Biso   1.000  H
  H274     1.0000 0.86610  0.66789  0.68378  Biso   1.000  H
  H275     1.0000 0.63390  0.16789  0.81622  Biso   1.000  H
  H276     1.0000 0.36610  0.16789  0.68378  Biso   1.000  H
  H277     1.0000 0.86610  0.33211  0.18378  Biso   1.000  H
  H278     1.0000 0.13390  0.33211  0.31622  Biso   1.000  H
  H279     1.0000 0.36610  0.83211  0.18378  Biso   1.000  H
  H280     1.0000 0.63390  0.83211  0.31622  Biso   1.000  H
  C153     1.0000 0.11488  0.96558  0.80568  Biso   1.000  C
  C154     1.0000 0.88512  0.96558  0.69432  Biso   1.000  C
  C155     1.0000 0.61488  0.46558  0.80568  Biso   1.000  C
  C156     1.0000 0.38512  0.46558  0.69432  Biso   1.000  C
  C157     1.0000 0.88512  0.03442  0.19432  Biso   1.000  C
  C158     1.0000 0.11488  0.03442  0.30568  Biso   1.000  C
  C159     1.0000 0.38512  0.53442  0.19432  Biso   1.000  C
  C160     1.0000 0.61488  0.53442  0.30568  Biso   1.000  C
  H281     1.0000 0.11795  0.01647  0.75006  Biso   1.000  H
  H282     1.0000 0.88205  0.01647  0.74994  Biso   1.000  H
  H283     1.0000 0.61795  0.51647  0.75006  Biso   1.000  H
  H284     1.0000 0.38205  0.51647  0.74994  Biso   1.000  H
  H285     1.0000 0.88205  0.98353  0.24994  Biso   1.000  H
  H286     1.0000 0.11795  0.98353  0.25006  Biso   1.000  H
  H287     1.0000 0.38205  0.48353  0.24994  Biso   1.000  H
  H288     1.0000 0.61795  0.48353  0.25006  Biso   1.000  H
  H289     1.0000 0.11260  0.12765  0.83601  Biso   1.000  H
  H290     1.0000 0.88740  0.12765  0.66399  Biso   1.000  H
  H291     1.0000 0.61260  0.62765  0.83601  Biso   1.000  H
  H292     1.0000 0.38740  0.62765  0.66399  Biso   1.000  H
  H293     1.0000 0.88740  0.87235  0.16399  Biso   1.000  H
  H294     1.0000 0.11260  0.87235  0.33601  Biso   1.000  H
  H295     1.0000 0.38740  0.37235  0.16399  Biso   1.000  H
  H296     1.0000 0.61260  0.37235  0.33601  Biso   1.000  H
  C161     1.0000 0.09695  0.81290  0.80017  Biso   1.000  C
  C162     1.0000 0.90305  0.81290  0.69983  Biso   1.000  C
  C163     1.0000 0.59695  0.31290  0.80017  Biso   1.000  C
  C164     1.0000 0.40305  0.31290  0.69983  Biso   1.000  C
  C165     1.0000 0.90305  0.18710  0.19983  Biso   1.000  C
  C166     1.0000 0.09695  0.18710  0.30017  Biso   1.000  C
  C167     1.0000 0.40305  0.68710  0.19983  Biso   1.000  C
  C168     1.0000 0.59695  0.68710  0.30017  Biso   1.000  C
  H297     1.0000 0.09930  0.65043  0.77057  Biso   1.000  H
  H298     1.0000 0.90070  0.65043  0.72943  Biso   1.000  H
  H299     1.0000 0.59930  0.15043  0.77057  Biso   1.000  H
  H300     1.0000 0.40070  0.15043  0.72943  Biso   1.000  H
  H301     1.0000 0.90070  0.34957  0.22943  Biso   1.000  H
  H302     1.0000 0.09930  0.34957  0.27057  Biso   1.000  H
  H303     1.0000 0.40070  0.84957  0.22943  Biso   1.000  H
  H304     1.0000 0.59930  0.84957  0.27057  Biso   1.000  H
  H305     1.0000 0.09379  0.76406  0.85605  Biso   1.000  H
  H306     1.0000 0.90621  0.76406  0.64395  Biso   1.000  H
  H307     1.0000 0.59379  0.26406  0.85605  Biso   1.000  H
  H308     1.0000 0.40621  0.26406  0.64395  Biso   1.000  H
  H309     1.0000 0.90621  0.23594  0.14395  Biso   1.000  H
  H310     1.0000 0.09379  0.23594  0.35605  Biso   1.000  H
  H311     1.0000 0.40621  0.73594  0.14395  Biso   1.000  H
  H312     1.0000 0.59379  0.73594  0.35605  Biso   1.000  H
  C169     1.0000 0.07965  0.94356  0.75936  Biso   1.000  C
  C170     1.0000 0.92035  0.94356  0.74064  Biso   1.000  C
  C171     1.0000 0.57965  0.44356  0.75936  Biso   1.000  C
  C172     1.0000 0.42035  0.44356  0.74064  Biso   1.000  C
  C173     1.0000 0.92035  0.05644  0.24064  Biso   1.000  C
  C174     1.0000 0.07965  0.05644  0.25936  Biso   1.000  C
  C175     1.0000 0.42035  0.55644  0.24064  Biso   1.000  C
  C176     1.0000 0.57965  0.55644  0.25936  Biso   1.000  C
  H313     1.0000 0.08289  0.99392  0.70396  Biso   1.000  H
  H314     1.0000 0.91711  0.99392  0.79604  Biso   1.000  H
  H315     1.0000 0.58289  0.49392  0.70396  Biso   1.000  H
  H316     1.0000 0.41711  0.49392  0.79604  Biso   1.000  H
  H317     1.0000 0.91711  0.00608  0.29604  Biso   1.000  H
  H318     1.0000 0.08289  0.00608  0.20396  Biso   1.000  H
  H319     1.0000 0.41711  0.50608  0.29604  Biso   1.000  H
  H320     1.0000 0.58289  0.50608  0.20396  Biso   1.000  H
  H321     1.0000 0.07730  0.10537  0.78942  Biso   1.000  H
  H322     1.0000 0.92270  0.10537  0.71058  Biso   1.000  H
  H323     1.0000 0.57730  0.60537  0.78942  Biso   1.000  H
  H324     1.0000 0.42270  0.60537  0.71058  Biso   1.000  H
  H325     1.0000 0.92270  0.89463  0.21058  Biso   1.000  H
  H326     1.0000 0.07730  0.89463  0.28942  Biso   1.000  H
  H327     1.0000 0.42270  0.39463  0.21058  Biso   1.000  H
  H328     1.0000 0.57730  0.39463  0.28942  Biso   1.000  H
  C177     1.0000 0.06137  0.79446  0.75237  Biso   1.000  C
  C178     1.0000 0.93863  0.79446  0.74763  Biso   1.000  C
  C179     1.0000 0.56137  0.29446  0.75237  Biso   1.000  C
  C180     1.0000 0.43863  0.29446  0.74763  Biso   1.000  C
  C181     1.0000 0.93863  0.20554  0.24763  Biso   1.000  C
  C182     1.0000 0.06137  0.20554  0.25237  Biso   1.000  C
  C183     1.0000 0.43863  0.70554  0.24763  Biso   1.000  C
  C184     1.0000 0.56137  0.70554  0.25237  Biso   1.000  C
  H329     1.0000 0.05614  0.78031  0.80594  Biso   1.000  H
  H330     1.0000 0.94386  0.78031  0.69406  Biso   1.000  H
  H331     1.0000 0.55614  0.28031  0.80594  Biso   1.000  H
  H332     1.0000 0.44386  0.28031  0.69406  Biso   1.000  H
  H333     1.0000 0.94386  0.21969  0.19406  Biso   1.000  H
  H334     1.0000 0.05614  0.21969  0.30594  Biso   1.000  H
  H335     1.0000 0.44386  0.71969  0.19406  Biso   1.000  H
  H336     1.0000 0.55614  0.71969  0.30594  Biso   1.000  H
  H337     1.0000 0.06369  0.62019  0.73127  Biso   1.000  H
  H338     1.0000 0.93631  0.62019  0.76873  Biso   1.000  H
  H339     1.0000 0.56369  0.12019  0.73127  Biso   1.000  H
  H340     1.0000 0.43631  0.12019  0.76873  Biso   1.000  H
  H341     1.0000 0.93631  0.37981  0.26873  Biso   1.000  H
  H342     1.0000 0.06369  0.37981  0.23127  Biso   1.000  H
  H343     1.0000 0.43631  0.87981  0.26873  Biso   1.000  H
  H344     1.0000 0.56369  0.87981  0.23127  Biso   1.000  H
  C185     1.0000 0.04711  0.93866  0.69324  Biso   1.000  C
  C186     1.0000 0.95289  0.93866  0.80676  Biso   1.000  C
  C187     1.0000 0.54711  0.43866  0.69324  Biso   1.000  C
  C188     1.0000 0.45289  0.43866  0.80676  Biso   1.000  C
  C189     1.0000 0.95289  0.06134  0.30676  Biso   1.000  C
  C190     1.0000 0.04711  0.06134  0.19324  Biso   1.000  C
  C191     1.0000 0.45289  0.56134  0.30676  Biso   1.000  C
  C192     1.0000 0.54711  0.56134  0.19324  Biso   1.000  C
  H345     1.0000 0.05303  0.95382  0.63234  Biso   1.000  H
  H346     1.0000 0.94697  0.95382  0.86766  Biso   1.000  H
  H347     1.0000 0.55303  0.45382  0.63234  Biso   1.000  H
  H348     1.0000 0.44697  0.45382  0.86766  Biso   1.000  H
  H349     1.0000 0.94697  0.04618  0.36766  Biso   1.000  H
  H350     1.0000 0.05303  0.04618  0.13234  Biso   1.000  H
  H351     1.0000 0.44697  0.54618  0.36766  Biso   1.000  H
  H352     1.0000 0.55303  0.54618  0.13234  Biso   1.000  H
  H353     1.0000 0.04447  0.13648  0.71702  Biso   1.000  H
  H354     1.0000 0.95553  0.13648  0.78298  Biso   1.000  H
  H355     1.0000 0.54447  0.63648  0.71702  Biso   1.000  H
  H356     1.0000 0.45553  0.63648  0.78298  Biso   1.000  H
  H357     1.0000 0.95553  0.86352  0.28298  Biso   1.000  H
  H358     1.0000 0.04447  0.86352  0.21702  Biso   1.000  H
  H359     1.0000 0.45553  0.36352  0.28298  Biso   1.000  H
  H360     1.0000 0.54447  0.36352  0.21702  Biso   1.000  H
  C193     1.0000 0.02826  0.78391  0.68624  Biso   1.000  C
  C194     1.0000 0.97174  0.78391  0.81376  Biso   1.000  C
  C195     1.0000 0.52826  0.28391  0.68624  Biso   1.000  C
  C196     1.0000 0.47174  0.28391  0.81376  Biso   1.000  C
  C197     1.0000 0.97174  0.21609  0.31376  Biso   1.000  C
  C198     1.0000 0.02826  0.21609  0.18624  Biso   1.000  C
  C199     1.0000 0.47174  0.71609  0.31376  Biso   1.000  C
  C200     1.0000 0.52826  0.71609  0.18624  Biso   1.000  C
  H361     1.0000 0.03102  0.58361  0.66487  Biso   1.000  H
  H362     1.0000 0.96898  0.58361  0.83513  Biso   1.000  H
  H363     1.0000 0.53102  0.08361  0.66487  Biso   1.000  H
  H364     1.0000 0.46898  0.08361  0.83513  Biso   1.000  H
  H365     1.0000 0.96898  0.41639  0.33513  Biso   1.000  H
  H366     1.0000 0.03102  0.41639  0.16487  Biso   1.000  H
  H367     1.0000 0.46898  0.91639  0.33513  Biso   1.000  H
  H368     1.0000 0.53102  0.91639  0.16487  Biso   1.000  H
  H369     1.0000 0.02180  0.78172  0.74622  Biso   1.000  H
  H370     1.0000 0.97820  0.78172  0.75378  Biso   1.000  H
  H371     1.0000 0.52180  0.28172  0.74622  Biso   1.000  H
  H372     1.0000 0.47820  0.28172  0.75378  Biso   1.000  H
  H373     1.0000 0.97820  0.21828  0.25378  Biso   1.000  H
  H374     1.0000 0.02180  0.21828  0.24622  Biso   1.000  H
  H375     1.0000 0.47820  0.71828  0.25378  Biso   1.000  H
  H376     1.0000 0.52180  0.71828  0.24622  Biso   1.000  H
  C201     1.0000 0.01422  0.92303  0.62485  Biso   1.000  C
  C202     1.0000 0.98578  0.92303  0.87515  Biso   1.000  C
  C203     1.0000 0.51422  0.42303  0.62485  Biso   1.000  C
  C204     1.0000 0.48578  0.42303  0.87515  Biso   1.000  C
  C205     1.0000 0.98578  0.07697  0.37515  Biso   1.000  C
  C206     1.0000 0.01422  0.07697  0.12485  Biso   1.000  C
  C207     1.0000 0.48578  0.57697  0.37515  Biso   1.000  C
  C208     1.0000 0.51422  0.57697  0.12485  Biso   1.000  C
  H377     1.0000 0.01194  0.12554  0.64535  Biso   1.000  H
  H378     1.0000 0.98806  0.12554  0.85465  Biso   1.000  H
  H379     1.0000 0.51194  0.62554  0.64535  Biso   1.000  H
  H380     1.0000 0.48806  0.62554  0.85465  Biso   1.000  H
  H381     1.0000 0.98806  0.87446  0.35465  Biso   1.000  H
  H382     1.0000 0.01194  0.87446  0.14535  Biso   1.000  H
  H383     1.0000 0.48806  0.37446  0.35465  Biso   1.000  H
  H384     1.0000 0.51194  0.37446  0.14535  Biso   1.000  H
  H385     1.0000 0.01989  0.91906  0.56327  Biso   1.000  H
  H386     1.0000 0.98011  0.91906  0.93673  Biso   1.000  H
  H387     1.0000 0.51989  0.41906  0.56327  Biso   1.000  H
  H388     1.0000 0.48011  0.41906  0.93673  Biso   1.000  H
  H389     1.0000 0.98011  0.08094  0.43673  Biso   1.000  H
  H390     1.0000 0.01989  0.08094  0.06327  Biso   1.000  H
  H391     1.0000 0.48011  0.58094  0.43673  Biso   1.000  H
  H392     1.0000 0.51989  0.58094  0.06327  Biso   1.000  H
  H393     1.0000 0.00064  0.81657  0.62144  Biso   1.000  H
  H394     1.0000 0.99936  0.81657  0.87856  Biso   1.000  H
  H395     1.0000 0.50064  0.31657  0.62144  Biso   1.000  H
  H396     1.0000 0.49936  0.31657  0.87856  Biso   1.000  H
  H397     1.0000 0.99936  0.18343  0.37856  Biso   1.000  H
  H398     1.0000 0.00064  0.18343  0.12144  Biso   1.000  H
  H399     1.0000 0.49936  0.68343  0.37856  Biso   1.000  H
  H400     1.0000 0.50064  0.68343  0.12144  Biso   1.000  H
