data_image0
_cell_length_a       79.387
_cell_length_b       5.0498
_cell_length_c       16.0841
_cell_angle_alpha    90
_cell_angle_beta     90.34
_cell_angle_gamma    90

_symmetry_space_group_name_H-M    "P 1"
_symmetry_int_tables_number       1

loop_
  _symmetry_equiv_pos_as_xyz
  'x, y, z'

loop_
  _atom_site_label
  _atom_site_occupancy
  _atom_site_fract_x
  _atom_site_fract_y
  _atom_site_fract_z
  _atom_site_thermal_displace_type
  _atom_site_B_iso_or_equiv
  _atom_site_type_symbol
  Cu1      1.0000 0.24300  0.46820  0.97191  Biso   1.000  Cu
  Cu2      1.0000 0.75700  0.46820  0.52809  Biso   1.000  Cu
  Cu3      1.0000 0.74300  0.96820  0.97191  Biso   1.000  Cu
  Cu4      1.0000 0.25700  0.96820  0.52809  Biso   1.000  Cu
  Cu5      1.0000 0.75700  0.53180  0.02809  Biso   1.000  Cu
  Cu6      1.0000 0.24300  0.53180  0.47191  Biso   1.000  Cu
  Cu7      1.0000 0.25700  0.03180  0.02809  Biso   1.000  Cu
  Cu8      1.0000 0.74300  0.03180  0.47191  Biso   1.000  Cu
  O1       1.0000 0.23385  0.49895  0.08408  Biso   1.000  O
  O2       1.0000 0.76615  0.49895  0.41592  Biso   1.000  O
  O3       1.0000 0.73385  0.99895  0.08408  Biso   1.000  O
  O4       1.0000 0.26615  0.99895  0.41592  Biso   1.000  O
  O5       1.0000 0.76615  0.50105  0.91592  Biso   1.000  O
  O6       1.0000 0.23385  0.50105  0.58408  Biso   1.000  O
  O7       1.0000 0.26615  0.00105  0.91592  Biso   1.000  O
  O8       1.0000 0.73385  0.00105  0.58408  Biso   1.000  O
  O9       1.0000 0.24638  0.14148  0.13528  Biso   1.000  O
  O10      1.0000 0.75362  0.14148  0.36472  Biso   1.000  O
  O11      1.0000 0.74638  0.64148  0.13528  Biso   1.000  O
  O12      1.0000 0.25362  0.64148  0.36472  Biso   1.000  O
  O13      1.0000 0.75362  0.85852  0.86472  Biso   1.000  O
  O14      1.0000 0.24638  0.85852  0.63528  Biso   1.000  O
  O15      1.0000 0.25362  0.35852  0.86472  Biso   1.000  O
  O16      1.0000 0.74638  0.35852  0.63528  Biso   1.000  O
  C1       1.0000 0.23730  0.33808  0.13995  Biso   1.000  C
  C2       1.0000 0.76270  0.33808  0.36005  Biso   1.000  C
  C3       1.0000 0.73730  0.83808  0.13995  Biso   1.000  C
  C4       1.0000 0.26270  0.83808  0.36005  Biso   1.000  C
  C5       1.0000 0.76270  0.66192  0.86005  Biso   1.000  C
  C6       1.0000 0.23730  0.66192  0.63995  Biso   1.000  C
  C7       1.0000 0.26270  0.16192  0.86005  Biso   1.000  C
  C8       1.0000 0.73730  0.16192  0.63995  Biso   1.000  C
  C9       1.0000 0.22867  0.38946  0.22277  Biso   1.000  C
  C10      1.0000 0.77133  0.38946  0.27723  Biso   1.000  C
  C11      1.0000 0.72867  0.88946  0.22277  Biso   1.000  C
  C12      1.0000 0.27133  0.88946  0.27723  Biso   1.000  C
  C13      1.0000 0.77133  0.61054  0.77723  Biso   1.000  C
  C14      1.0000 0.22867  0.61054  0.72277  Biso   1.000  C
  C15      1.0000 0.27133  0.11054  0.77723  Biso   1.000  C
  C16      1.0000 0.72867  0.11054  0.72277  Biso   1.000  C
  H1       1.0000 0.23655  0.47820  0.25973  Biso   1.000  H
  H2       1.0000 0.76345  0.47820  0.24027  Biso   1.000  H
  H3       1.0000 0.73655  0.97820  0.25973  Biso   1.000  H
  H4       1.0000 0.26345  0.97820  0.24027  Biso   1.000  H
  H5       1.0000 0.76345  0.52180  0.74027  Biso   1.000  H
  H6       1.0000 0.23655  0.52180  0.75973  Biso   1.000  H
  H7       1.0000 0.26345  0.02180  0.74027  Biso   1.000  H
  H8       1.0000 0.73655  0.02180  0.75973  Biso   1.000  H
  H9       1.0000 0.22582  0.22074  0.24779  Biso   1.000  H
  H10      1.0000 0.77418  0.22074  0.25221  Biso   1.000  H
  H11      1.0000 0.72582  0.72074  0.24779  Biso   1.000  H
  H12      1.0000 0.27418  0.72074  0.25221  Biso   1.000  H
  H13      1.0000 0.77418  0.77926  0.75221  Biso   1.000  H
  H14      1.0000 0.22582  0.77926  0.74779  Biso   1.000  H
  H15      1.0000 0.27418  0.27926  0.75221  Biso   1.000  H
  H16      1.0000 0.72582  0.27926  0.74779  Biso   1.000  H
  C17      1.0000 0.21267  0.55792  0.21542  Biso   1.000  C
  C18      1.0000 0.78733  0.55792  0.28458  Biso   1.000  C
  C19      1.0000 0.71267  0.05792  0.21542  Biso   1.000  C
  C20      1.0000 0.28733  0.05792  0.28458  Biso   1.000  C
  C21      1.0000 0.78733  0.44208  0.78458  Biso   1.000  C
  C22      1.0000 0.21267  0.44208  0.71542  Biso   1.000  C
  C23      1.0000 0.28733  0.94208  0.78458  Biso   1.000  C
  C24      1.0000 0.71267  0.94208  0.71542  Biso   1.000  C
  H17      1.0000 0.21538  0.71930  0.18547  Biso   1.000  H
  H18      1.0000 0.78462  0.71930  0.31453  Biso   1.000  H
  H19      1.0000 0.71538  0.21930  0.18547  Biso   1.000  H
  H20      1.0000 0.28462  0.21930  0.31453  Biso   1.000  H
  H21      1.0000 0.78462  0.28070  0.81453  Biso   1.000  H
  H22      1.0000 0.21538  0.28070  0.68547  Biso   1.000  H
  H23      1.0000 0.28462  0.78070  0.81453  Biso   1.000  H
  H24      1.0000 0.71538  0.78070  0.68547  Biso   1.000  H
  H25      1.0000 0.20907  0.60799  0.27071  Biso   1.000  H
  H26      1.0000 0.79093  0.60799  0.22929  Biso   1.000  H
  H27      1.0000 0.70907  0.10799  0.27071  Biso   1.000  H
  H28      1.0000 0.29093  0.10799  0.22929  Biso   1.000  H
  H29      1.0000 0.79093  0.39201  0.72929  Biso   1.000  H
  H30      1.0000 0.20907  0.39201  0.77071  Biso   1.000  H
  H31      1.0000 0.29093  0.89201  0.72929  Biso   1.000  H
  H32      1.0000 0.70907  0.89201  0.77071  Biso   1.000  H
  C25      1.0000 0.19815  0.42098  0.17138  Biso   1.000  C
  C26      1.0000 0.80185  0.42098  0.32862  Biso   1.000  C
  C27      1.0000 0.69815  0.92098  0.17138  Biso   1.000  C
  C28      1.0000 0.30185  0.92098  0.32862  Biso   1.000  C
  C29      1.0000 0.80185  0.57902  0.82862  Biso   1.000  C
  C30      1.0000 0.19815  0.57902  0.67138  Biso   1.000  C
  C31      1.0000 0.30185  0.07902  0.82862  Biso   1.000  C
  C32      1.0000 0.69815  0.07902  0.67138  Biso   1.000  C
  H33      1.0000 0.20198  0.36235  0.11720  Biso   1.000  H
  H34      1.0000 0.79802  0.36235  0.38280  Biso   1.000  H
  H35      1.0000 0.70198  0.86235  0.11720  Biso   1.000  H
  H36      1.0000 0.29802  0.86235  0.38280  Biso   1.000  H
  H37      1.0000 0.79802  0.63765  0.88280  Biso   1.000  H
  H38      1.0000 0.20198  0.63765  0.61720  Biso   1.000  H
  H39      1.0000 0.29802  0.13765  0.88280  Biso   1.000  H
  H40      1.0000 0.70198  0.13765  0.61720  Biso   1.000  H
  H41      1.0000 0.19511  0.26441  0.20296  Biso   1.000  H
  H42      1.0000 0.80489  0.26441  0.29704  Biso   1.000  H
  H43      1.0000 0.69511  0.76441  0.20296  Biso   1.000  H
  H44      1.0000 0.30489  0.76441  0.29704  Biso   1.000  H
  H45      1.0000 0.80489  0.73559  0.79704  Biso   1.000  H
  H46      1.0000 0.19511  0.73559  0.70296  Biso   1.000  H
  H47      1.0000 0.30489  0.23559  0.79704  Biso   1.000  H
  H48      1.0000 0.69511  0.23559  0.70296  Biso   1.000  H
  C33      1.0000 0.18317  0.58200  0.16001  Biso   1.000  C
  C34      1.0000 0.81683  0.58200  0.33999  Biso   1.000  C
  C35      1.0000 0.68317  0.08200  0.16001  Biso   1.000  C
  C36      1.0000 0.31683  0.08200  0.33999  Biso   1.000  C
  C37      1.0000 0.81683  0.41800  0.83999  Biso   1.000  C
  C38      1.0000 0.18317  0.41800  0.66001  Biso   1.000  C
  C39      1.0000 0.31683  0.91800  0.83999  Biso   1.000  C
  C40      1.0000 0.68317  0.91800  0.66001  Biso   1.000  C
  H49      1.0000 0.18607  0.73373  0.12601  Biso   1.000  H
  H50      1.0000 0.81393  0.73373  0.37399  Biso   1.000  H
  H51      1.0000 0.68607  0.23373  0.12601  Biso   1.000  H
  H52      1.0000 0.31393  0.23373  0.37399  Biso   1.000  H
  H53      1.0000 0.81393  0.26627  0.87399  Biso   1.000  H
  H54      1.0000 0.18607  0.26627  0.62601  Biso   1.000  H
  H55      1.0000 0.31393  0.76627  0.87399  Biso   1.000  H
  H56      1.0000 0.68607  0.76627  0.62601  Biso   1.000  H
  H57      1.0000 0.17976  0.64856  0.21384  Biso   1.000  H
  H58      1.0000 0.82024  0.64856  0.28616  Biso   1.000  H
  H59      1.0000 0.67976  0.14856  0.21384  Biso   1.000  H
  H60      1.0000 0.32024  0.14856  0.28616  Biso   1.000  H
  H61      1.0000 0.82024  0.35144  0.78616  Biso   1.000  H
  H62      1.0000 0.17976  0.35144  0.71384  Biso   1.000  H
  H63      1.0000 0.32024  0.85144  0.78616  Biso   1.000  H
  H64      1.0000 0.67976  0.85144  0.71384  Biso   1.000  H
  C41      1.0000 0.16808  0.44233  0.11987  Biso   1.000  C
  C42      1.0000 0.83192  0.44233  0.38013  Biso   1.000  C
  C43      1.0000 0.66808  0.94233  0.11987  Biso   1.000  C
  C44      1.0000 0.33192  0.94233  0.38013  Biso   1.000  C
  C45      1.0000 0.83192  0.55767  0.88013  Biso   1.000  C
  C46      1.0000 0.16808  0.55767  0.61987  Biso   1.000  C
  C47      1.0000 0.33192  0.05767  0.88013  Biso   1.000  C
  C48      1.0000 0.66808  0.05767  0.61987  Biso   1.000  C
  H65      1.0000 0.17156  0.37802  0.06575  Biso   1.000  H
  H66      1.0000 0.82844  0.37802  0.43425  Biso   1.000  H
  H67      1.0000 0.67156  0.87802  0.06575  Biso   1.000  H
  H68      1.0000 0.32844  0.87802  0.43425  Biso   1.000  H
  H69      1.0000 0.82844  0.62198  0.93425  Biso   1.000  H
  H70      1.0000 0.17156  0.62198  0.56575  Biso   1.000  H
  H71      1.0000 0.32844  0.12198  0.93425  Biso   1.000  H
  H72      1.0000 0.67156  0.12198  0.56575  Biso   1.000  H
  H73      1.0000 0.16540  0.28914  0.15341  Biso   1.000  H
  H74      1.0000 0.83460  0.28914  0.34659  Biso   1.000  H
  H75      1.0000 0.66540  0.78914  0.15341  Biso   1.000  H
  H76      1.0000 0.33460  0.78914  0.34659  Biso   1.000  H
  H77      1.0000 0.83460  0.71086  0.84659  Biso   1.000  H
  H78      1.0000 0.16540  0.71086  0.65341  Biso   1.000  H
  H79      1.0000 0.33460  0.21086  0.84659  Biso   1.000  H
  H80      1.0000 0.66540  0.21086  0.65341  Biso   1.000  H
  C49      1.0000 0.15228  0.60031  0.10793  Biso   1.000  C
  C50      1.0000 0.84772  0.60031  0.39207  Biso   1.000  C
  C51      1.0000 0.65228  0.10031  0.10793  Biso   1.000  C
  C52      1.0000 0.34772  0.10031  0.39207  Biso   1.000  C
  C53      1.0000 0.84772  0.39969  0.89207  Biso   1.000  C
  C54      1.0000 0.15228  0.39969  0.60793  Biso   1.000  C
  C55      1.0000 0.34772  0.89969  0.89207  Biso   1.000  C
  C56      1.0000 0.65228  0.89969  0.60793  Biso   1.000  C
  H81      1.0000 0.15471  0.74805  0.07141  Biso   1.000  H
  H82      1.0000 0.84529  0.74805  0.42859  Biso   1.000  H
  H83      1.0000 0.65471  0.24805  0.07141  Biso   1.000  H
  H84      1.0000 0.34529  0.24805  0.42859  Biso   1.000  H
  H85      1.0000 0.84529  0.25195  0.92859  Biso   1.000  H
  H86      1.0000 0.15471  0.25195  0.57141  Biso   1.000  H
  H87      1.0000 0.34529  0.75195  0.92859  Biso   1.000  H
  H88      1.0000 0.65471  0.75195  0.57141  Biso   1.000  H
  H89      1.0000 0.14903  0.67285  0.16136  Biso   1.000  H
  H90      1.0000 0.85097  0.67285  0.33864  Biso   1.000  H
  H91      1.0000 0.64903  0.17285  0.16136  Biso   1.000  H
  H92      1.0000 0.35097  0.17285  0.33864  Biso   1.000  H
  H93      1.0000 0.85097  0.32715  0.83864  Biso   1.000  H
  H94      1.0000 0.14903  0.32715  0.66136  Biso   1.000  H
  H95      1.0000 0.35097  0.82715  0.83864  Biso   1.000  H
  H96      1.0000 0.64903  0.82715  0.66136  Biso   1.000  H
  C57      1.0000 0.13772  0.44850  0.07274  Biso   1.000  C
  C58      1.0000 0.86228  0.44850  0.42726  Biso   1.000  C
  C59      1.0000 0.63772  0.94850  0.07274  Biso   1.000  C
  C60      1.0000 0.36228  0.94850  0.42726  Biso   1.000  C
  C61      1.0000 0.86228  0.55150  0.92726  Biso   1.000  C
  C62      1.0000 0.13772  0.55150  0.57274  Biso   1.000  C
  C63      1.0000 0.36228  0.05150  0.92726  Biso   1.000  C
  C64      1.0000 0.63772  0.05150  0.57274  Biso   1.000  C
  H97      1.0000 0.13573  0.29339  0.10687  Biso   1.000  H
  H98      1.0000 0.86427  0.29339  0.39313  Biso   1.000  H
  H99      1.0000 0.63573  0.79339  0.10687  Biso   1.000  H
  H100     1.0000 0.36427  0.79339  0.39313  Biso   1.000  H
  H101     1.0000 0.86427  0.70661  0.89313  Biso   1.000  H
  H102     1.0000 0.13573  0.70661  0.60687  Biso   1.000  H
  H103     1.0000 0.36427  0.20661  0.89313  Biso   1.000  H
  H104     1.0000 0.63573  0.20661  0.60687  Biso   1.000  H
  H105     1.0000 0.14052  0.38857  0.01728  Biso   1.000  H
  H106     1.0000 0.85948  0.38857  0.48272  Biso   1.000  H
  H107     1.0000 0.64052  0.88857  0.01728  Biso   1.000  H
  H108     1.0000 0.35948  0.88857  0.48272  Biso   1.000  H
  H109     1.0000 0.85948  0.61143  0.98272  Biso   1.000  H
  H110     1.0000 0.14052  0.61143  0.51728  Biso   1.000  H
  H111     1.0000 0.35948  0.11143  0.98272  Biso   1.000  H
  H112     1.0000 0.64052  0.11143  0.51728  Biso   1.000  H
  C65      1.0000 0.12174  0.60675  0.06806  Biso   1.000  C
  C66      1.0000 0.87826  0.60675  0.43194  Biso   1.000  C
  C67      1.0000 0.62174  0.10675  0.06806  Biso   1.000  C
  C68      1.0000 0.37826  0.10675  0.43194  Biso   1.000  C
  C69      1.0000 0.87826  0.39325  0.93194  Biso   1.000  C
  C70      1.0000 0.12174  0.39325  0.56806  Biso   1.000  C
  C71      1.0000 0.37826  0.89325  0.93194  Biso   1.000  C
  C72      1.0000 0.62174  0.89325  0.56806  Biso   1.000  C
  H113     1.0000 0.11852  0.66163  0.12362  Biso   1.000  H
  H114     1.0000 0.88148  0.66163  0.37638  Biso   1.000  H
  H115     1.0000 0.61852  0.16163  0.12362  Biso   1.000  H
  H116     1.0000 0.38148  0.16163  0.37638  Biso   1.000  H
  H117     1.0000 0.88148  0.33837  0.87638  Biso   1.000  H
  H118     1.0000 0.11852  0.33837  0.62362  Biso   1.000  H
  H119     1.0000 0.38148  0.83837  0.87638  Biso   1.000  H
  H120     1.0000 0.61852  0.83837  0.62362  Biso   1.000  H
  H121     1.0000 0.12365  0.76552  0.03538  Biso   1.000  H
  H122     1.0000 0.87635  0.76552  0.46462  Biso   1.000  H
  H123     1.0000 0.62365  0.26552  0.03538  Biso   1.000  H
  H124     1.0000 0.37635  0.26552  0.46462  Biso   1.000  H
  H125     1.0000 0.87635  0.23448  0.96462  Biso   1.000  H
  H126     1.0000 0.12365  0.23448  0.53538  Biso   1.000  H
  H127     1.0000 0.37635  0.73448  0.96462  Biso   1.000  H
  H128     1.0000 0.62365  0.73448  0.53538  Biso   1.000  H
  C73      1.0000 0.10753  0.45032  0.02941  Biso   1.000  C
  C74      1.0000 0.89247  0.45032  0.47059  Biso   1.000  C
  C75      1.0000 0.60753  0.95032  0.02941  Biso   1.000  C
  C76      1.0000 0.39247  0.95032  0.47059  Biso   1.000  C
  C77      1.0000 0.89247  0.54968  0.97059  Biso   1.000  C
  C78      1.0000 0.10753  0.54968  0.52941  Biso   1.000  C
  C79      1.0000 0.39247  0.04968  0.97059  Biso   1.000  C
  C80      1.0000 0.60753  0.04968  0.52941  Biso   1.000  C
  H129     1.0000 0.10584  0.29042  0.06058  Biso   1.000  H
  H130     1.0000 0.89416  0.29042  0.43942  Biso   1.000  H
  H131     1.0000 0.60584  0.79042  0.06058  Biso   1.000  H
  H132     1.0000 0.39416  0.79042  0.43942  Biso   1.000  H
  H133     1.0000 0.89416  0.70958  0.93942  Biso   1.000  H
  H134     1.0000 0.10584  0.70958  0.56058  Biso   1.000  H
  H135     1.0000 0.39416  0.20958  0.93942  Biso   1.000  H
  H136     1.0000 0.60584  0.20958  0.56058  Biso   1.000  H
  H137     1.0000 0.11034  0.40641  0.97312  Biso   1.000  H
  H138     1.0000 0.88966  0.40641  0.52688  Biso   1.000  H
  H139     1.0000 0.61034  0.90641  0.97312  Biso   1.000  H
  H140     1.0000 0.38966  0.90641  0.52688  Biso   1.000  H
  H141     1.0000 0.88966  0.59359  0.02688  Biso   1.000  H
  H142     1.0000 0.11034  0.59359  0.47312  Biso   1.000  H
  H143     1.0000 0.38966  0.09359  0.02688  Biso   1.000  H
  H144     1.0000 0.61034  0.09359  0.47312  Biso   1.000  H
  C81      1.0000 0.09137  0.61553  0.03041  Biso   1.000  C
  C82      1.0000 0.90863  0.61553  0.46959  Biso   1.000  C
  C83      1.0000 0.59137  0.11553  0.03041  Biso   1.000  C
  C84      1.0000 0.40863  0.11553  0.46959  Biso   1.000  C
  C85      1.0000 0.90863  0.38447  0.96959  Biso   1.000  C
  C86      1.0000 0.09137  0.38447  0.53041  Biso   1.000  C
  C87      1.0000 0.40863  0.88447  0.96959  Biso   1.000  C
  C88      1.0000 0.59137  0.88447  0.53041  Biso   1.000  C
  H145     1.0000 0.09330  0.79712  0.99508  Biso   1.000  H
  H146     1.0000 0.90670  0.79712  0.50492  Biso   1.000  H
  H147     1.0000 0.59330  0.29712  0.99508  Biso   1.000  H
  H148     1.0000 0.40670  0.29712  0.50492  Biso   1.000  H
  H149     1.0000 0.90670  0.20288  0.00492  Biso   1.000  H
  H150     1.0000 0.09330  0.20288  0.49508  Biso   1.000  H
  H151     1.0000 0.40670  0.70288  0.00492  Biso   1.000  H
  H152     1.0000 0.59330  0.70288  0.49508  Biso   1.000  H
  H153     1.0000 0.08820  0.66494  0.09440  Biso   1.000  H
  H154     1.0000 0.91180  0.66494  0.40560  Biso   1.000  H
  H155     1.0000 0.58820  0.16494  0.09440  Biso   1.000  H
  H156     1.0000 0.41180  0.16494  0.40560  Biso   1.000  H
  H157     1.0000 0.91180  0.33506  0.90560  Biso   1.000  H
  H158     1.0000 0.08820  0.33506  0.59440  Biso   1.000  H
  H159     1.0000 0.41180  0.83506  0.90560  Biso   1.000  H
  H160     1.0000 0.58820  0.83506  0.59440  Biso   1.000  H
  C89      1.0000 0.07698  0.45628  0.99112  Biso   1.000  C
  C90      1.0000 0.92302  0.45628  0.50888  Biso   1.000  C
  C91      1.0000 0.57698  0.95628  0.99112  Biso   1.000  C
  C92      1.0000 0.42302  0.95628  0.50888  Biso   1.000  C
  C93      1.0000 0.92302  0.54372  0.00888  Biso   1.000  C
  C94      1.0000 0.07698  0.54372  0.49112  Biso   1.000  C
  C95      1.0000 0.42302  0.04372  0.00888  Biso   1.000  C
  C96      1.0000 0.57698  0.04372  0.49112  Biso   1.000  C
  H161     1.0000 0.08038  0.40000  0.92799  Biso   1.000  H
  H162     1.0000 0.91962  0.40000  0.57201  Biso   1.000  H
  H163     1.0000 0.58038  0.90000  0.92799  Biso   1.000  H
  H164     1.0000 0.41962  0.90000  0.57201  Biso   1.000  H
  H165     1.0000 0.91962  0.60000  0.07201  Biso   1.000  H
  H166     1.0000 0.08038  0.60000  0.42799  Biso   1.000  H
  H167     1.0000 0.41962  0.10000  0.07201  Biso   1.000  H
  H168     1.0000 0.58038  0.10000  0.42799  Biso   1.000  H
  H169     1.0000 0.07441  0.28229  0.02910  Biso   1.000  H
  H170     1.0000 0.92559  0.28229  0.47090  Biso   1.000  H
  H171     1.0000 0.57441  0.78229  0.02910  Biso   1.000  H
  H172     1.0000 0.42559  0.78229  0.47090  Biso   1.000  H
  H173     1.0000 0.92559  0.71771  0.97090  Biso   1.000  H
  H174     1.0000 0.07441  0.71771  0.52910  Biso   1.000  H
  H175     1.0000 0.42559  0.21771  0.97090  Biso   1.000  H
  H176     1.0000 0.57441  0.21771  0.52910  Biso   1.000  H
  C97      1.0000 0.06095  0.62474  0.98939  Biso   1.000  C
  C98      1.0000 0.93905  0.62474  0.51061  Biso   1.000  C
  C99      1.0000 0.56095  0.12474  0.98939  Biso   1.000  C
  C100     1.0000 0.43905  0.12474  0.51061  Biso   1.000  C
  C101     1.0000 0.93905  0.37526  0.01061  Biso   1.000  C
  C102     1.0000 0.06095  0.37526  0.48939  Biso   1.000  C
  C103     1.0000 0.43905  0.87526  0.01061  Biso   1.000  C
  C104     1.0000 0.56095  0.87526  0.48939  Biso   1.000  C
  H177     1.0000 0.05787  0.68657  0.05243  Biso   1.000  H
  H178     1.0000 0.94213  0.68657  0.44757  Biso   1.000  H
  H179     1.0000 0.55787  0.18657  0.05243  Biso   1.000  H
  H180     1.0000 0.44213  0.18657  0.44757  Biso   1.000  H
  H181     1.0000 0.94213  0.31343  0.94757  Biso   1.000  H
  H182     1.0000 0.05787  0.31343  0.55243  Biso   1.000  H
  H183     1.0000 0.44213  0.81343  0.94757  Biso   1.000  H
  H184     1.0000 0.55787  0.81343  0.55243  Biso   1.000  H
  H185     1.0000 0.06283  0.79541  0.94902  Biso   1.000  H
  H186     1.0000 0.93717  0.79541  0.55098  Biso   1.000  H
  H187     1.0000 0.56283  0.29541  0.94902  Biso   1.000  H
  H188     1.0000 0.43717  0.29541  0.55098  Biso   1.000  H
  H189     1.0000 0.93717  0.20459  0.05098  Biso   1.000  H
  H190     1.0000 0.06283  0.20459  0.44902  Biso   1.000  H
  H191     1.0000 0.43717  0.70459  0.05098  Biso   1.000  H
  H192     1.0000 0.56283  0.70459  0.44902  Biso   1.000  H
  C105     1.0000 0.04640  0.46230  0.95281  Biso   1.000  C
  C106     1.0000 0.95360  0.46230  0.54719  Biso   1.000  C
  C107     1.0000 0.54640  0.96230  0.95281  Biso   1.000  C
  C108     1.0000 0.45360  0.96230  0.54719  Biso   1.000  C
  C109     1.0000 0.95360  0.53770  0.04719  Biso   1.000  C
  C110     1.0000 0.04640  0.53770  0.45281  Biso   1.000  C
  C111     1.0000 0.45360  0.03770  0.04719  Biso   1.000  C
  C112     1.0000 0.54640  0.03770  0.45281  Biso   1.000  C
  H193     1.0000 0.04974  0.39482  0.89068  Biso   1.000  H
  H194     1.0000 0.95026  0.39482  0.60932  Biso   1.000  H
  H195     1.0000 0.54974  0.89482  0.89068  Biso   1.000  H
  H196     1.0000 0.45026  0.89482  0.60932  Biso   1.000  H
  H197     1.0000 0.95026  0.60518  0.10932  Biso   1.000  H
  H198     1.0000 0.04974  0.60518  0.39068  Biso   1.000  H
  H199     1.0000 0.45026  0.10518  0.10932  Biso   1.000  H
  H200     1.0000 0.54974  0.10518  0.39068  Biso   1.000  H
  H201     1.0000 0.04370  0.29546  0.99360  Biso   1.000  H
  H202     1.0000 0.95630  0.29546  0.50640  Biso   1.000  H
  H203     1.0000 0.54370  0.79546  0.99360  Biso   1.000  H
  H204     1.0000 0.45630  0.79546  0.50640  Biso   1.000  H
  H205     1.0000 0.95630  0.70454  0.00640  Biso   1.000  H
  H206     1.0000 0.04370  0.70454  0.49360  Biso   1.000  H
  H207     1.0000 0.45630  0.20454  0.00640  Biso   1.000  H
  H208     1.0000 0.54370  0.20454  0.49360  Biso   1.000  H
  C113     1.0000 0.03052  0.63371  0.94835  Biso   1.000  C
  C114     1.0000 0.96948  0.63371  0.55165  Biso   1.000  C
  C115     1.0000 0.53052  0.13371  0.94835  Biso   1.000  C
  C116     1.0000 0.46948  0.13371  0.55165  Biso   1.000  C
  C117     1.0000 0.96948  0.36629  0.05165  Biso   1.000  C
  C118     1.0000 0.03052  0.36629  0.44835  Biso   1.000  C
  C119     1.0000 0.46948  0.86629  0.05165  Biso   1.000  C
  C120     1.0000 0.53052  0.86629  0.44835  Biso   1.000  C
  H209     1.0000 0.02751  0.70664  0.01030  Biso   1.000  H
  H210     1.0000 0.97249  0.70664  0.48970  Biso   1.000  H
  H211     1.0000 0.52751  0.20664  0.01030  Biso   1.000  H
  H212     1.0000 0.47249  0.20664  0.48970  Biso   1.000  H
  H213     1.0000 0.97249  0.29336  0.98970  Biso   1.000  H
  H214     1.0000 0.02751  0.29336  0.51030  Biso   1.000  H
  H215     1.0000 0.47249  0.79336  0.98970  Biso   1.000  H
  H216     1.0000 0.52751  0.79336  0.51030  Biso   1.000  H
  H217     1.0000 0.03253  0.79698  0.90522  Biso   1.000  H
  H218     1.0000 0.96747  0.79698  0.59478  Biso   1.000  H
  H219     1.0000 0.53253  0.29698  0.90522  Biso   1.000  H
  H220     1.0000 0.46747  0.29698  0.59478  Biso   1.000  H
  H221     1.0000 0.96747  0.20302  0.09478  Biso   1.000  H
  H222     1.0000 0.03253  0.20302  0.40522  Biso   1.000  H
  H223     1.0000 0.46747  0.70302  0.09478  Biso   1.000  H
  H224     1.0000 0.53253  0.70302  0.40522  Biso   1.000  H
  H225     1.0000 0.02006  0.51613  0.92427  Biso   1.000  H
  H226     1.0000 0.97994  0.51613  0.57573  Biso   1.000  H
  H227     1.0000 0.52006  0.01613  0.92427  Biso   1.000  H
  H228     1.0000 0.47994  0.01613  0.57573  Biso   1.000  H
  H229     1.0000 0.97994  0.48387  0.07573  Biso   1.000  H
  H230     1.0000 0.02006  0.48387  0.42427  Biso   1.000  H
  H231     1.0000 0.47994  0.98387  0.07573  Biso   1.000  H
  H232     1.0000 0.52006  0.98387  0.42427  Biso   1.000  H
  O17      1.0000 0.22349  0.24931  0.94396  Biso   1.000  O
  O18      1.0000 0.77651  0.24931  0.55604  Biso   1.000  O
  O19      1.0000 0.72349  0.74931  0.94396  Biso   1.000  O
  O20      1.0000 0.27651  0.74931  0.55604  Biso   1.000  O
  O21      1.0000 0.77651  0.75069  0.05604  Biso   1.000  O
  O22      1.0000 0.22349  0.75069  0.44396  Biso   1.000  O
  O23      1.0000 0.27651  0.25069  0.05604  Biso   1.000  O
  O24      1.0000 0.72349  0.25069  0.44396  Biso   1.000  O
  O25      1.0000 0.23569  0.88585  0.99093  Biso   1.000  O
  O26      1.0000 0.76431  0.88585  0.50907  Biso   1.000  O
  O27      1.0000 0.73569  0.38585  0.99093  Biso   1.000  O
  O28      1.0000 0.26431  0.38585  0.50907  Biso   1.000  O
  O29      1.0000 0.76431  0.11415  0.00907  Biso   1.000  O
  O30      1.0000 0.23569  0.11415  0.49093  Biso   1.000  O
  O31      1.0000 0.26431  0.61415  0.00907  Biso   1.000  O
  O32      1.0000 0.73569  0.61415  0.49093  Biso   1.000  O
  C121     1.0000 0.22278  0.01272  0.96465  Biso   1.000  C
  C122     1.0000 0.77722  0.01272  0.53535  Biso   1.000  C
  C123     1.0000 0.72278  0.51272  0.96465  Biso   1.000  C
  C124     1.0000 0.27722  0.51272  0.53535  Biso   1.000  C
  C125     1.0000 0.77722  0.98728  0.03535  Biso   1.000  C
  C126     1.0000 0.22278  0.98728  0.46465  Biso   1.000  C
  C127     1.0000 0.27722  0.48728  0.03535  Biso   1.000  C
  C128     1.0000 0.72278  0.48728  0.46465  Biso   1.000  C
  C129     1.0000 0.20683  0.86259  0.95631  Biso   1.000  C
  C130     1.0000 0.79317  0.86259  0.54369  Biso   1.000  C
  C131     1.0000 0.70683  0.36259  0.95631  Biso   1.000  C
  C132     1.0000 0.29317  0.36259  0.54369  Biso   1.000  C
  C133     1.0000 0.79317  0.13741  0.04369  Biso   1.000  C
  C134     1.0000 0.20683  0.13741  0.45631  Biso   1.000  C
  C135     1.0000 0.29317  0.63741  0.04369  Biso   1.000  C
  C136     1.0000 0.70683  0.63741  0.45631  Biso   1.000  C
  H233     1.0000 0.20324  0.80978  0.01139  Biso   1.000  H
  H234     1.0000 0.79676  0.80978  0.48861  Biso   1.000  H
  H235     1.0000 0.70324  0.30978  0.01139  Biso   1.000  H
  H236     1.0000 0.29676  0.30978  0.48861  Biso   1.000  H
  H237     1.0000 0.79676  0.19022  0.98861  Biso   1.000  H
  H238     1.0000 0.20324  0.19022  0.51139  Biso   1.000  H
  H239     1.0000 0.29676  0.69022  0.98861  Biso   1.000  H
  H240     1.0000 0.70324  0.69022  0.51139  Biso   1.000  H
  H241     1.0000 0.20911  0.70201  0.92519  Biso   1.000  H
  H242     1.0000 0.79089  0.70201  0.57481  Biso   1.000  H
  H243     1.0000 0.70911  0.20201  0.92519  Biso   1.000  H
  H244     1.0000 0.29089  0.20201  0.57481  Biso   1.000  H
  H245     1.0000 0.79089  0.29799  0.07481  Biso   1.000  H
  H246     1.0000 0.20911  0.29799  0.42519  Biso   1.000  H
  H247     1.0000 0.29089  0.79799  0.07481  Biso   1.000  H
  H248     1.0000 0.70911  0.79799  0.42519  Biso   1.000  H
  C137     1.0000 0.19260  0.00336  0.91507  Biso   1.000  C
  C138     1.0000 0.80740  0.00336  0.58493  Biso   1.000  C
  C139     1.0000 0.69260  0.50336  0.91507  Biso   1.000  C
  C140     1.0000 0.30740  0.50336  0.58493  Biso   1.000  C
  C141     1.0000 0.80740  0.99664  0.08493  Biso   1.000  C
  C142     1.0000 0.19260  0.99664  0.41507  Biso   1.000  C
  C143     1.0000 0.30740  0.49664  0.08493  Biso   1.000  C
  C144     1.0000 0.69260  0.49664  0.41507  Biso   1.000  C
  H249     1.0000 0.19086  0.17124  0.94314  Biso   1.000  H
  H250     1.0000 0.80914  0.17124  0.55686  Biso   1.000  H
  H251     1.0000 0.69086  0.67124  0.94314  Biso   1.000  H
  H252     1.0000 0.30914  0.67124  0.55686  Biso   1.000  H
  H253     1.0000 0.80914  0.82876  0.05686  Biso   1.000  H
  H254     1.0000 0.19086  0.82876  0.44314  Biso   1.000  H
  H255     1.0000 0.30914  0.32876  0.05686  Biso   1.000  H
  H256     1.0000 0.69086  0.32876  0.44314  Biso   1.000  H
  H257     1.0000 0.19566  0.04128  0.85812  Biso   1.000  H
  H258     1.0000 0.80434  0.04128  0.64188  Biso   1.000  H
  H259     1.0000 0.69566  0.54128  0.85812  Biso   1.000  H
  H260     1.0000 0.30434  0.54128  0.64188  Biso   1.000  H
  H261     1.0000 0.80434  0.95872  0.14188  Biso   1.000  H
  H262     1.0000 0.19566  0.95872  0.35812  Biso   1.000  H
  H263     1.0000 0.30434  0.45872  0.14188  Biso   1.000  H
  H264     1.0000 0.69566  0.45872  0.35812  Biso   1.000  H
  C145     1.0000 0.17640  0.85312  0.91490  Biso   1.000  C
  C146     1.0000 0.82360  0.85312  0.58510  Biso   1.000  C
  C147     1.0000 0.67640  0.35312  0.91490  Biso   1.000  C
  C148     1.0000 0.32360  0.35312  0.58510  Biso   1.000  C
  C149     1.0000 0.82360  0.14688  0.08510  Biso   1.000  C
  C150     1.0000 0.17640  0.14688  0.41490  Biso   1.000  C
  C151     1.0000 0.32360  0.64688  0.08510  Biso   1.000  C
  C152     1.0000 0.67640  0.64688  0.41490  Biso   1.000  C
  H265     1.0000 0.17325  0.81932  0.97208  Biso   1.000  H
  H266     1.0000 0.82675  0.81932  0.52792  Biso   1.000  H
  H267     1.0000 0.67325  0.31932  0.97208  Biso   1.000  H
  H268     1.0000 0.32675  0.31932  0.52792  Biso   1.000  H
  H269     1.0000 0.82675  0.18068  0.02792  Biso   1.000  H
  H270     1.0000 0.17325  0.18068  0.47208  Biso   1.000  H
  H271     1.0000 0.32675  0.68068  0.02792  Biso   1.000  H
  H272     1.0000 0.67325  0.68068  0.47208  Biso   1.000  H
  H273     1.0000 0.17832  0.68296  0.88856  Biso   1.000  H
  H274     1.0000 0.82168  0.68296  0.61144  Biso   1.000  H
  H275     1.0000 0.67832  0.18296  0.88856  Biso   1.000  H
  H276     1.0000 0.32168  0.18296  0.61144  Biso   1.000  H
  H277     1.0000 0.82168  0.31704  0.11144  Biso   1.000  H
  H278     1.0000 0.17832  0.31704  0.38856  Biso   1.000  H
  H279     1.0000 0.32168  0.81704  0.11144  Biso   1.000  H
  H280     1.0000 0.67832  0.81704  0.38856  Biso   1.000  H
  C153     1.0000 0.16188  0.98660  0.87150  Biso   1.000  C
  C154     1.0000 0.83812  0.98660  0.62850  Biso   1.000  C
  C155     1.0000 0.66188  0.48660  0.87150  Biso   1.000  C
  C156     1.0000 0.33812  0.48660  0.62850  Biso   1.000  C
  C157     1.0000 0.83812  0.01340  0.12850  Biso   1.000  C
  C158     1.0000 0.16188  0.01340  0.37150  Biso   1.000  C
  C159     1.0000 0.33812  0.51340  0.12850  Biso   1.000  C
  C160     1.0000 0.66188  0.51340  0.37150  Biso   1.000  C
  H281     1.0000 0.16026  0.15866  0.89690  Biso   1.000  H
  H282     1.0000 0.83974  0.15866  0.60310  Biso   1.000  H
  H283     1.0000 0.66026  0.65866  0.89690  Biso   1.000  H
  H284     1.0000 0.33974  0.65866  0.60310  Biso   1.000  H
  H285     1.0000 0.83974  0.84134  0.10310  Biso   1.000  H
  H286     1.0000 0.16026  0.84134  0.39690  Biso   1.000  H
  H287     1.0000 0.33974  0.34134  0.10310  Biso   1.000  H
  H288     1.0000 0.66026  0.34134  0.39690  Biso   1.000  H
  H289     1.0000 0.16505  0.01646  0.81403  Biso   1.000  H
  H290     1.0000 0.83495  0.01646  0.68597  Biso   1.000  H
  H291     1.0000 0.66505  0.51646  0.81403  Biso   1.000  H
  H292     1.0000 0.33495  0.51646  0.68597  Biso   1.000  H
  H293     1.0000 0.83495  0.98354  0.18597  Biso   1.000  H
  H294     1.0000 0.16505  0.98354  0.31403  Biso   1.000  H
  H295     1.0000 0.33495  0.48354  0.18597  Biso   1.000  H
  H296     1.0000 0.66505  0.48354  0.31403  Biso   1.000  H
  C161     1.0000 0.14560  0.84436  0.87221  Biso   1.000  C
  C162     1.0000 0.85440  0.84436  0.62779  Biso   1.000  C
  C163     1.0000 0.64560  0.34436  0.87221  Biso   1.000  C
  C164     1.0000 0.35440  0.34436  0.62779  Biso   1.000  C
  C165     1.0000 0.85440  0.15564  0.12779  Biso   1.000  C
  C166     1.0000 0.14560  0.15564  0.37221  Biso   1.000  C
  C167     1.0000 0.35440  0.65564  0.12779  Biso   1.000  C
  C168     1.0000 0.64560  0.65564  0.37221  Biso   1.000  C
  H297     1.0000 0.14276  0.80839  0.92964  Biso   1.000  H
  H298     1.0000 0.85724  0.80839  0.57036  Biso   1.000  H
  H299     1.0000 0.64276  0.30839  0.92964  Biso   1.000  H
  H300     1.0000 0.35724  0.30839  0.57036  Biso   1.000  H
  H301     1.0000 0.85724  0.19161  0.07036  Biso   1.000  H
  H302     1.0000 0.14276  0.19161  0.42964  Biso   1.000  H
  H303     1.0000 0.35724  0.69161  0.07036  Biso   1.000  H
  H304     1.0000 0.64276  0.69161  0.42964  Biso   1.000  H
  H305     1.0000 0.14723  0.67493  0.84509  Biso   1.000  H
  H306     1.0000 0.85277  0.67493  0.65491  Biso   1.000  H
  H307     1.0000 0.64723  0.17493  0.84509  Biso   1.000  H
  H308     1.0000 0.35277  0.17493  0.65491  Biso   1.000  H
  H309     1.0000 0.85277  0.32507  0.15491  Biso   1.000  H
  H310     1.0000 0.14723  0.32507  0.34509  Biso   1.000  H
  H311     1.0000 0.35277  0.82507  0.15491  Biso   1.000  H
  H312     1.0000 0.64723  0.82507  0.34509  Biso   1.000  H
  C169     1.0000 0.13090  0.97643  0.83229  Biso   1.000  C
  C170     1.0000 0.86910  0.97643  0.66771  Biso   1.000  C
  C171     1.0000 0.63090  0.47643  0.83229  Biso   1.000  C
  C172     1.0000 0.36910  0.47643  0.66771  Biso   1.000  C
  C173     1.0000 0.86910  0.02357  0.16771  Biso   1.000  C
  C174     1.0000 0.13090  0.02357  0.33229  Biso   1.000  C
  C175     1.0000 0.36910  0.52357  0.16771  Biso   1.000  C
  C176     1.0000 0.63090  0.52357  0.33229  Biso   1.000  C
  H313     1.0000 0.13378  0.01672  0.77515  Biso   1.000  H
  H314     1.0000 0.86622  0.01672  0.72485  Biso   1.000  H
  H315     1.0000 0.63378  0.51672  0.77515  Biso   1.000  H
  H316     1.0000 0.36622  0.51672  0.72485  Biso   1.000  H
  H317     1.0000 0.86622  0.98328  0.22485  Biso   1.000  H
  H318     1.0000 0.13378  0.98328  0.27515  Biso   1.000  H
  H319     1.0000 0.36622  0.48328  0.22485  Biso   1.000  H
  H320     1.0000 0.63378  0.48328  0.27515  Biso   1.000  H
  H321     1.0000 0.12904  0.14433  0.86033  Biso   1.000  H
  H322     1.0000 0.87096  0.14433  0.63967  Biso   1.000  H
  H323     1.0000 0.62904  0.64433  0.86033  Biso   1.000  H
  H324     1.0000 0.37096  0.64433  0.63967  Biso   1.000  H
  H325     1.0000 0.87096  0.85567  0.13967  Biso   1.000  H
  H326     1.0000 0.12904  0.85567  0.36033  Biso   1.000  H
  H327     1.0000 0.37096  0.35567  0.13967  Biso   1.000  H
  H328     1.0000 0.62904  0.35567  0.36033  Biso   1.000  H
  C177     1.0000 0.11495  0.82846  0.83199  Biso   1.000  C
  C178     1.0000 0.88505  0.82846  0.66801  Biso   1.000  C
  C179     1.0000 0.61495  0.32846  0.83199  Biso   1.000  C
  C180     1.0000 0.38505  0.32846  0.66801  Biso   1.000  C
  C181     1.0000 0.88505  0.17154  0.16801  Biso   1.000  C
  C182     1.0000 0.11495  0.17154  0.33199  Biso   1.000  C
  C183     1.0000 0.38505  0.67154  0.16801  Biso   1.000  C
  C184     1.0000 0.61495  0.67154  0.33199  Biso   1.000  C
  H329     1.0000 0.11686  0.66027  0.80467  Biso   1.000  H
  H330     1.0000 0.88314  0.66027  0.69533  Biso   1.000  H
  H331     1.0000 0.61686  0.16027  0.80467  Biso   1.000  H
  H332     1.0000 0.38314  0.16027  0.69533  Biso   1.000  H
  H333     1.0000 0.88314  0.33973  0.19533  Biso   1.000  H
  H334     1.0000 0.11686  0.33973  0.30467  Biso   1.000  H
  H335     1.0000 0.38314  0.83973  0.19533  Biso   1.000  H
  H336     1.0000 0.61686  0.83973  0.30467  Biso   1.000  H
  H337     1.0000 0.11200  0.79029  0.88936  Biso   1.000  H
  H338     1.0000 0.88800  0.79029  0.61064  Biso   1.000  H
  H339     1.0000 0.61200  0.29029  0.88936  Biso   1.000  H
  H340     1.0000 0.38800  0.29029  0.61064  Biso   1.000  H
  H341     1.0000 0.88800  0.20971  0.11064  Biso   1.000  H
  H342     1.0000 0.11200  0.20971  0.38936  Biso   1.000  H
  H343     1.0000 0.38800  0.70971  0.11064  Biso   1.000  H
  H344     1.0000 0.61200  0.70971  0.38936  Biso   1.000  H
  C185     1.0000 0.09998  0.95729  0.79137  Biso   1.000  C
  C186     1.0000 0.90002  0.95729  0.70863  Biso   1.000  C
  C187     1.0000 0.59998  0.45729  0.79137  Biso   1.000  C
  C188     1.0000 0.40002  0.45729  0.70863  Biso   1.000  C
  C189     1.0000 0.90002  0.04271  0.20863  Biso   1.000  C
  C190     1.0000 0.09998  0.04271  0.29137  Biso   1.000  C
  C191     1.0000 0.40002  0.54271  0.20863  Biso   1.000  C
  C192     1.0000 0.59998  0.54271  0.29137  Biso   1.000  C
  H345     1.0000 0.10301  0.99703  0.73444  Biso   1.000  H
  H346     1.0000 0.89699  0.99703  0.76556  Biso   1.000  H
  H347     1.0000 0.60301  0.49703  0.73444  Biso   1.000  H
  H348     1.0000 0.39699  0.49703  0.76556  Biso   1.000  H
  H349     1.0000 0.89699  0.00297  0.26556  Biso   1.000  H
  H350     1.0000 0.10301  0.00297  0.23444  Biso   1.000  H
  H351     1.0000 0.39699  0.50297  0.26556  Biso   1.000  H
  H352     1.0000 0.60301  0.50297  0.23444  Biso   1.000  H
  H353     1.0000 0.09806  0.12489  0.81916  Biso   1.000  H
  H354     1.0000 0.90194  0.12489  0.68084  Biso   1.000  H
  H355     1.0000 0.59806  0.62489  0.81916  Biso   1.000  H
  H356     1.0000 0.40194  0.62489  0.68084  Biso   1.000  H
  H357     1.0000 0.90194  0.87511  0.18084  Biso   1.000  H
  H358     1.0000 0.09806  0.87511  0.31916  Biso   1.000  H
  H359     1.0000 0.40194  0.37511  0.18084  Biso   1.000  H
  H360     1.0000 0.59806  0.37511  0.31916  Biso   1.000  H
  C193     1.0000 0.08351  0.81078  0.78954  Biso   1.000  C
  C194     1.0000 0.91649  0.81078  0.71046  Biso   1.000  C
  C195     1.0000 0.58351  0.31078  0.78954  Biso   1.000  C
  C196     1.0000 0.41649  0.31078  0.71046  Biso   1.000  C
  C197     1.0000 0.91649  0.18922  0.21046  Biso   1.000  C
  C198     1.0000 0.08351  0.18922  0.28954  Biso   1.000  C
  C199     1.0000 0.41649  0.68922  0.21046  Biso   1.000  C
  C200     1.0000 0.58351  0.68922  0.28954  Biso   1.000  C
  H361     1.0000 0.07878  0.80752  0.84433  Biso   1.000  H
  H362     1.0000 0.92122  0.80752  0.65567  Biso   1.000  H
  H363     1.0000 0.57878  0.30752  0.84433  Biso   1.000  H
  H364     1.0000 0.42122  0.30752  0.65567  Biso   1.000  H
  H365     1.0000 0.92122  0.19248  0.15567  Biso   1.000  H
  H366     1.0000 0.07878  0.19248  0.34433  Biso   1.000  H
  H367     1.0000 0.42122  0.69248  0.15567  Biso   1.000  H
  H368     1.0000 0.57878  0.69248  0.34433  Biso   1.000  H
  H369     1.0000 0.08537  0.63229  0.77096  Biso   1.000  H
  H370     1.0000 0.91463  0.63229  0.72904  Biso   1.000  H
  H371     1.0000 0.58537  0.13229  0.77096  Biso   1.000  H
  H372     1.0000 0.41463  0.13229  0.72904  Biso   1.000  H
  H373     1.0000 0.91463  0.36771  0.22904  Biso   1.000  H
  H374     1.0000 0.08537  0.36771  0.27096  Biso   1.000  H
  H375     1.0000 0.41463  0.86771  0.22904  Biso   1.000  H
  H376     1.0000 0.58537  0.86771  0.27096  Biso   1.000  H
  C201     1.0000 0.07127  0.94904  0.72987  Biso   1.000  C
  C202     1.0000 0.92873  0.94904  0.77013  Biso   1.000  C
  C203     1.0000 0.57127  0.44904  0.72987  Biso   1.000  C
  C204     1.0000 0.42873  0.44904  0.77013  Biso   1.000  C
  C205     1.0000 0.92873  0.05096  0.27013  Biso   1.000  C
  C206     1.0000 0.07127  0.05096  0.22987  Biso   1.000  C
  C207     1.0000 0.42873  0.55096  0.27013  Biso   1.000  C
  C208     1.0000 0.57127  0.55096  0.22987  Biso   1.000  C
  H377     1.0000 0.07662  0.95183  0.66761  Biso   1.000  H
  H378     1.0000 0.92338  0.95183  0.83239  Biso   1.000  H
  H379     1.0000 0.57662  0.45183  0.66761  Biso   1.000  H
  H380     1.0000 0.42338  0.45183  0.83239  Biso   1.000  H
  H381     1.0000 0.92338  0.04817  0.33239  Biso   1.000  H
  H382     1.0000 0.07662  0.04817  0.16761  Biso   1.000  H
  H383     1.0000 0.42338  0.54817  0.33239  Biso   1.000  H
  H384     1.0000 0.57662  0.54817  0.16761  Biso   1.000  H
  H385     1.0000 0.06915  0.15163  0.75079  Biso   1.000  H
  H386     1.0000 0.93085  0.15163  0.74921  Biso   1.000  H
  H387     1.0000 0.56915  0.65163  0.75079  Biso   1.000  H
  H388     1.0000 0.43085  0.65163  0.74921  Biso   1.000  H
  H389     1.0000 0.93085  0.84837  0.24921  Biso   1.000  H
  H390     1.0000 0.06915  0.84837  0.25079  Biso   1.000  H
  H391     1.0000 0.43085  0.34837  0.24921  Biso   1.000  H
  H392     1.0000 0.56915  0.34837  0.25079  Biso   1.000  H
  C209     1.0000 0.05451  0.79902  0.72823  Biso   1.000  C
  C210     1.0000 0.94549  0.79902  0.77177  Biso   1.000  C
  C211     1.0000 0.55451  0.29902  0.72823  Biso   1.000  C
  C212     1.0000 0.44549  0.29902  0.77177  Biso   1.000  C
  C213     1.0000 0.94549  0.20098  0.27177  Biso   1.000  C
  C214     1.0000 0.05451  0.20098  0.22823  Biso   1.000  C
  C215     1.0000 0.44549  0.70098  0.27177  Biso   1.000  C
  C216     1.0000 0.55451  0.70098  0.22823  Biso   1.000  C
  H393     1.0000 0.05672  0.59433  0.70975  Biso   1.000  H
  H394     1.0000 0.94328  0.59433  0.79025  Biso   1.000  H
  H395     1.0000 0.55672  0.09433  0.70975  Biso   1.000  H
  H396     1.0000 0.44328  0.09433  0.79025  Biso   1.000  H
  H397     1.0000 0.94328  0.40567  0.29025  Biso   1.000  H
  H398     1.0000 0.05672  0.40567  0.20975  Biso   1.000  H
  H399     1.0000 0.44328  0.90567  0.29025  Biso   1.000  H
  H400     1.0000 0.55672  0.90567  0.20975  Biso   1.000  H
  H401     1.0000 0.04871  0.80919  0.78942  Biso   1.000  H
  H402     1.0000 0.95129  0.80919  0.71058  Biso   1.000  H
  H403     1.0000 0.54871  0.30919  0.78942  Biso   1.000  H
  H404     1.0000 0.45129  0.30919  0.71058  Biso   1.000  H
  H405     1.0000 0.95129  0.19081  0.21058  Biso   1.000  H
  H406     1.0000 0.04871  0.19081  0.28942  Biso   1.000  H
  H407     1.0000 0.45129  0.69081  0.21058  Biso   1.000  H
  H408     1.0000 0.54871  0.69081  0.28942  Biso   1.000  H
  C217     1.0000 0.04247  0.93174  0.66634  Biso   1.000  C
  C218     1.0000 0.95753  0.93174  0.83366  Biso   1.000  C
  C219     1.0000 0.54247  0.43174  0.66634  Biso   1.000  C
  C220     1.0000 0.45753  0.43174  0.83366  Biso   1.000  C
  C221     1.0000 0.95753  0.06826  0.33366  Biso   1.000  C
  C222     1.0000 0.04247  0.06826  0.16634  Biso   1.000  C
  C223     1.0000 0.45753  0.56826  0.33366  Biso   1.000  C
  C224     1.0000 0.54247  0.56826  0.16634  Biso   1.000  C
  H409     1.0000 0.04068  0.13833  0.68384  Biso   1.000  H
  H410     1.0000 0.95932  0.13833  0.81616  Biso   1.000  H
  H411     1.0000 0.54068  0.63833  0.68384  Biso   1.000  H
  H412     1.0000 0.45932  0.63833  0.81616  Biso   1.000  H
  H413     1.0000 0.95932  0.86167  0.31616  Biso   1.000  H
  H414     1.0000 0.04068  0.86167  0.18384  Biso   1.000  H
  H415     1.0000 0.45932  0.36167  0.31616  Biso   1.000  H
  H416     1.0000 0.54068  0.36167  0.18384  Biso   1.000  H
  H417     1.0000 0.04757  0.91538  0.60376  Biso   1.000  H
  H418     1.0000 0.95243  0.91538  0.89624  Biso   1.000  H
  H419     1.0000 0.54757  0.41538  0.60376  Biso   1.000  H
  H420     1.0000 0.45243  0.41538  0.89624  Biso   1.000  H
  H421     1.0000 0.95243  0.08462  0.39624  Biso   1.000  H
  H422     1.0000 0.04757  0.08462  0.10376  Biso   1.000  H
  H423     1.0000 0.45243  0.58462  0.39624  Biso   1.000  H
  H424     1.0000 0.54757  0.58462  0.10376  Biso   1.000  H
  C225     1.0000 0.02551  0.78739  0.66687  Biso   1.000  C
  C226     1.0000 0.97449  0.78739  0.83313  Biso   1.000  C
  C227     1.0000 0.52551  0.28739  0.66687  Biso   1.000  C
  C228     1.0000 0.47449  0.28739  0.83313  Biso   1.000  C
  C229     1.0000 0.97449  0.21261  0.33313  Biso   1.000  C
  C230     1.0000 0.02551  0.21261  0.16687  Biso   1.000  C
  C231     1.0000 0.47449  0.71261  0.33313  Biso   1.000  C
  C232     1.0000 0.52551  0.71261  0.16687  Biso   1.000  C
  H425     1.0000 0.02744  0.57933  0.65161  Biso   1.000  H
  H426     1.0000 0.97256  0.57933  0.84839  Biso   1.000  H
  H427     1.0000 0.52744  0.07933  0.65161  Biso   1.000  H
  H428     1.0000 0.47256  0.07933  0.84839  Biso   1.000  H
  H429     1.0000 0.97256  0.42067  0.34839  Biso   1.000  H
  H430     1.0000 0.02744  0.42067  0.15161  Biso   1.000  H
  H431     1.0000 0.47256  0.92067  0.34839  Biso   1.000  H
  H432     1.0000 0.52744  0.92067  0.15161  Biso   1.000  H
  H433     1.0000 0.01971  0.80922  0.72776  Biso   1.000  H
  H434     1.0000 0.98029  0.80922  0.77224  Biso   1.000  H
  H435     1.0000 0.51971  0.30922  0.72776  Biso   1.000  H
  H436     1.0000 0.48029  0.30922  0.77224  Biso   1.000  H
  H437     1.0000 0.98029  0.19078  0.27224  Biso   1.000  H
  H438     1.0000 0.01971  0.19078  0.22776  Biso   1.000  H
  H439     1.0000 0.48029  0.69078  0.27224  Biso   1.000  H
  H440     1.0000 0.51971  0.69078  0.22776  Biso   1.000  H
  C233     1.0000 0.01366  0.91424  0.60286  Biso   1.000  C
  C234     1.0000 0.98634  0.91424  0.89714  Biso   1.000  C
  C235     1.0000 0.51366  0.41424  0.60286  Biso   1.000  C
  C236     1.0000 0.48634  0.41424  0.89714  Biso   1.000  C
  C237     1.0000 0.98634  0.08576  0.39714  Biso   1.000  C
  C238     1.0000 0.01366  0.08576  0.10286  Biso   1.000  C
  C239     1.0000 0.48634  0.58576  0.39714  Biso   1.000  C
  C240     1.0000 0.51366  0.58576  0.10286  Biso   1.000  C
  H441     1.0000 0.01215  0.12391  0.61710  Biso   1.000  H
  H442     1.0000 0.98785  0.12391  0.88290  Biso   1.000  H
  H443     1.0000 0.51215  0.62391  0.61710  Biso   1.000  H
  H444     1.0000 0.48785  0.62391  0.88290  Biso   1.000  H
  H445     1.0000 0.98785  0.87609  0.38290  Biso   1.000  H
  H446     1.0000 0.01215  0.87609  0.11710  Biso   1.000  H
  H447     1.0000 0.48785  0.37609  0.38290  Biso   1.000  H
  H448     1.0000 0.51215  0.37609  0.11710  Biso   1.000  H
  H449     1.0000 0.01875  0.88625  0.54067  Biso   1.000  H
  H450     1.0000 0.98125  0.88625  0.95933  Biso   1.000  H
  H451     1.0000 0.51875  0.38625  0.54067  Biso   1.000  H
  H452     1.0000 0.48125  0.38625  0.95933  Biso   1.000  H
  H453     1.0000 0.98125  0.11375  0.45933  Biso   1.000  H
  H454     1.0000 0.01875  0.11375  0.04067  Biso   1.000  H
  H455     1.0000 0.48125  0.61375  0.45933  Biso   1.000  H
  H456     1.0000 0.51875  0.61375  0.04067  Biso   1.000  H
  H457     1.0000 0.00145  0.81579  0.60471  Biso   1.000  H
  H458     1.0000 0.99855  0.81579  0.89529  Biso   1.000  H
  H459     1.0000 0.50145  0.31579  0.60471  Biso   1.000  H
  H460     1.0000 0.49855  0.31579  0.89529  Biso   1.000  H
  H461     1.0000 0.99855  0.18421  0.39529  Biso   1.000  H
  H462     1.0000 0.00145  0.18421  0.10471  Biso   1.000  H
  H463     1.0000 0.49855  0.68421  0.39529  Biso   1.000  H
  H464     1.0000 0.50145  0.68421  0.10471  Biso   1.000  H
