data_image0
_cell_length_a       84.824
_cell_length_b       5.0419
_cell_length_c       16.0537
_cell_angle_alpha    90
_cell_angle_beta     90.966
_cell_angle_gamma    90

_symmetry_space_group_name_H-M    "P 1"
_symmetry_int_tables_number       1

loop_
  _symmetry_equiv_pos_as_xyz
  'x, y, z'

loop_
  _atom_site_label
  _atom_site_occupancy
  _atom_site_fract_x
  _atom_site_fract_y
  _atom_site_fract_z
  _atom_site_thermal_displace_type
  _atom_site_B_iso_or_equiv
  _atom_site_type_symbol
  Cu1      1.0000 0.24300  0.46820  0.97191  Biso   1.000  Cu
  Cu2      1.0000 0.75700  0.46820  0.52809  Biso   1.000  Cu
  Cu3      1.0000 0.74300  0.96820  0.97191  Biso   1.000  Cu
  Cu4      1.0000 0.25700  0.96820  0.52809  Biso   1.000  Cu
  Cu5      1.0000 0.75700  0.53180  0.02809  Biso   1.000  Cu
  Cu6      1.0000 0.24300  0.53180  0.47191  Biso   1.000  Cu
  Cu7      1.0000 0.25700  0.03180  0.02809  Biso   1.000  Cu
  Cu8      1.0000 0.74300  0.03180  0.47191  Biso   1.000  Cu
  O1       1.0000 0.23507  0.49223  0.08531  Biso   1.000  O
  O2       1.0000 0.76493  0.49223  0.41469  Biso   1.000  O
  O3       1.0000 0.73507  0.99223  0.08531  Biso   1.000  O
  O4       1.0000 0.26493  0.99223  0.41469  Biso   1.000  O
  O5       1.0000 0.76493  0.50777  0.91469  Biso   1.000  O
  O6       1.0000 0.23507  0.50777  0.58531  Biso   1.000  O
  O7       1.0000 0.26493  0.00777  0.91469  Biso   1.000  O
  O8       1.0000 0.73507  0.00777  0.58531  Biso   1.000  O
  O9       1.0000 0.24703  0.13076  0.13326  Biso   1.000  O
  O10      1.0000 0.75297  0.13076  0.36674  Biso   1.000  O
  O11      1.0000 0.74703  0.63076  0.13326  Biso   1.000  O
  O12      1.0000 0.25297  0.63076  0.36674  Biso   1.000  O
  O13      1.0000 0.75297  0.86924  0.86674  Biso   1.000  O
  O14      1.0000 0.24703  0.86924  0.63326  Biso   1.000  O
  O15      1.0000 0.25297  0.36924  0.86674  Biso   1.000  O
  O16      1.0000 0.74703  0.36924  0.63326  Biso   1.000  O
  C1       1.0000 0.23859  0.32756  0.13998  Biso   1.000  C
  C2       1.0000 0.76141  0.32756  0.36002  Biso   1.000  C
  C3       1.0000 0.73859  0.82756  0.13998  Biso   1.000  C
  C4       1.0000 0.26141  0.82756  0.36002  Biso   1.000  C
  C5       1.0000 0.76141  0.67244  0.86002  Biso   1.000  C
  C6       1.0000 0.23859  0.67244  0.63998  Biso   1.000  C
  C7       1.0000 0.26141  0.17244  0.86002  Biso   1.000  C
  C8       1.0000 0.73859  0.17244  0.63998  Biso   1.000  C
  C9       1.0000 0.23099  0.37407  0.22405  Biso   1.000  C
  C10      1.0000 0.76901  0.37407  0.27595  Biso   1.000  C
  C11      1.0000 0.73099  0.87407  0.22405  Biso   1.000  C
  C12      1.0000 0.26901  0.87407  0.27595  Biso   1.000  C
  C13      1.0000 0.76901  0.62593  0.77595  Biso   1.000  C
  C14      1.0000 0.23099  0.62593  0.72405  Biso   1.000  C
  C15      1.0000 0.26901  0.12593  0.77595  Biso   1.000  C
  C16      1.0000 0.73099  0.12593  0.72405  Biso   1.000  C
  H1       1.0000 0.23858  0.46043  0.26090  Biso   1.000  H
  H2       1.0000 0.76142  0.46043  0.23910  Biso   1.000  H
  H3       1.0000 0.73858  0.96043  0.26090  Biso   1.000  H
  H4       1.0000 0.26142  0.96043  0.23910  Biso   1.000  H
  H5       1.0000 0.76142  0.53957  0.73910  Biso   1.000  H
  H6       1.0000 0.23858  0.53957  0.76090  Biso   1.000  H
  H7       1.0000 0.26142  0.03957  0.73910  Biso   1.000  H
  H8       1.0000 0.73858  0.03957  0.76090  Biso   1.000  H
  H9       1.0000 0.22844  0.20362  0.24834  Biso   1.000  H
  H10      1.0000 0.77156  0.20362  0.25166  Biso   1.000  H
  H11      1.0000 0.72844  0.70362  0.24834  Biso   1.000  H
  H12      1.0000 0.27156  0.70362  0.25166  Biso   1.000  H
  H13      1.0000 0.77156  0.79638  0.75166  Biso   1.000  H
  H14      1.0000 0.22844  0.79638  0.74834  Biso   1.000  H
  H15      1.0000 0.27156  0.29638  0.75166  Biso   1.000  H
  H16      1.0000 0.72844  0.29638  0.74834  Biso   1.000  H
  C17      1.0000 0.21601  0.54362  0.21919  Biso   1.000  C
  C18      1.0000 0.78399  0.54362  0.28081  Biso   1.000  C
  C19      1.0000 0.71601  0.04362  0.21919  Biso   1.000  C
  C20      1.0000 0.28399  0.04362  0.28081  Biso   1.000  C
  C21      1.0000 0.78399  0.45638  0.78081  Biso   1.000  C
  C22      1.0000 0.21601  0.45638  0.71919  Biso   1.000  C
  C23      1.0000 0.28399  0.95638  0.78081  Biso   1.000  C
  C24      1.0000 0.71601  0.95638  0.71919  Biso   1.000  C
  H17      1.0000 0.21839  0.70703  0.18994  Biso   1.000  H
  H18      1.0000 0.78161  0.70703  0.31006  Biso   1.000  H
  H19      1.0000 0.71839  0.20703  0.18994  Biso   1.000  H
  H20      1.0000 0.28161  0.20703  0.31006  Biso   1.000  H
  H21      1.0000 0.78161  0.29297  0.81006  Biso   1.000  H
  H22      1.0000 0.21839  0.29297  0.68994  Biso   1.000  H
  H23      1.0000 0.28161  0.79297  0.81006  Biso   1.000  H
  H24      1.0000 0.71839  0.79297  0.68994  Biso   1.000  H
  H25      1.0000 0.21295  0.59040  0.27522  Biso   1.000  H
  H26      1.0000 0.78705  0.59040  0.22478  Biso   1.000  H
  H27      1.0000 0.71295  0.09040  0.27522  Biso   1.000  H
  H28      1.0000 0.28705  0.09040  0.22478  Biso   1.000  H
  H29      1.0000 0.78705  0.40960  0.72478  Biso   1.000  H
  H30      1.0000 0.21295  0.40960  0.77522  Biso   1.000  H
  H31      1.0000 0.28705  0.90960  0.72478  Biso   1.000  H
  H32      1.0000 0.71295  0.90960  0.77522  Biso   1.000  H
  C25      1.0000 0.20215  0.40959  0.17558  Biso   1.000  C
  C26      1.0000 0.79785  0.40959  0.32442  Biso   1.000  C
  C27      1.0000 0.70215  0.90959  0.17558  Biso   1.000  C
  C28      1.0000 0.29785  0.90959  0.32442  Biso   1.000  C
  C29      1.0000 0.79785  0.59041  0.82442  Biso   1.000  C
  C30      1.0000 0.20215  0.59041  0.67558  Biso   1.000  C
  C31      1.0000 0.29785  0.09041  0.82442  Biso   1.000  C
  C32      1.0000 0.70215  0.09041  0.67558  Biso   1.000  C
  H33      1.0000 0.20542  0.35417  0.12059  Biso   1.000  H
  H34      1.0000 0.79458  0.35417  0.37941  Biso   1.000  H
  H35      1.0000 0.70542  0.85417  0.12059  Biso   1.000  H
  H36      1.0000 0.29458  0.85417  0.37941  Biso   1.000  H
  H37      1.0000 0.79458  0.64583  0.87941  Biso   1.000  H
  H38      1.0000 0.20542  0.64583  0.62059  Biso   1.000  H
  H39      1.0000 0.29458  0.14583  0.87941  Biso   1.000  H
  H40      1.0000 0.70542  0.14583  0.62059  Biso   1.000  H
  H41      1.0000 0.19947  0.25092  0.20654  Biso   1.000  H
  H42      1.0000 0.80053  0.25092  0.29346  Biso   1.000  H
  H43      1.0000 0.69947  0.75092  0.20654  Biso   1.000  H
  H44      1.0000 0.30053  0.75092  0.29346  Biso   1.000  H
  H45      1.0000 0.80053  0.74908  0.79346  Biso   1.000  H
  H46      1.0000 0.19947  0.74908  0.70654  Biso   1.000  H
  H47      1.0000 0.30053  0.24908  0.79346  Biso   1.000  H
  H48      1.0000 0.69947  0.24908  0.70654  Biso   1.000  H
  C33      1.0000 0.18810  0.57192  0.16656  Biso   1.000  C
  C34      1.0000 0.81190  0.57192  0.33344  Biso   1.000  C
  C35      1.0000 0.68810  0.07192  0.16656  Biso   1.000  C
  C36      1.0000 0.31190  0.07192  0.33344  Biso   1.000  C
  C37      1.0000 0.81190  0.42808  0.83344  Biso   1.000  C
  C38      1.0000 0.18810  0.42808  0.66656  Biso   1.000  C
  C39      1.0000 0.31190  0.92808  0.83344  Biso   1.000  C
  C40      1.0000 0.68810  0.92808  0.66656  Biso   1.000  C
  H49      1.0000 0.19064  0.72591  0.13317  Biso   1.000  H
  H50      1.0000 0.80936  0.72591  0.36683  Biso   1.000  H
  H51      1.0000 0.69064  0.22591  0.13317  Biso   1.000  H
  H52      1.0000 0.30936  0.22591  0.36683  Biso   1.000  H
  H53      1.0000 0.80936  0.27409  0.86683  Biso   1.000  H
  H54      1.0000 0.19064  0.27409  0.63317  Biso   1.000  H
  H55      1.0000 0.30936  0.77409  0.86683  Biso   1.000  H
  H56      1.0000 0.69064  0.77409  0.63317  Biso   1.000  H
  H57      1.0000 0.18522  0.63530  0.22121  Biso   1.000  H
  H58      1.0000 0.81478  0.63530  0.27879  Biso   1.000  H
  H59      1.0000 0.68522  0.13530  0.22121  Biso   1.000  H
  H60      1.0000 0.31478  0.13530  0.27879  Biso   1.000  H
  H61      1.0000 0.81478  0.36470  0.77879  Biso   1.000  H
  H62      1.0000 0.18522  0.36470  0.72121  Biso   1.000  H
  H63      1.0000 0.31478  0.86470  0.77879  Biso   1.000  H
  H64      1.0000 0.68522  0.86470  0.72121  Biso   1.000  H
  C41      1.0000 0.17374  0.43494  0.12688  Biso   1.000  C
  C42      1.0000 0.82626  0.43494  0.37312  Biso   1.000  C
  C43      1.0000 0.67374  0.93494  0.12688  Biso   1.000  C
  C44      1.0000 0.32626  0.93494  0.37312  Biso   1.000  C
  C45      1.0000 0.82626  0.56506  0.87312  Biso   1.000  C
  C46      1.0000 0.17374  0.56506  0.62688  Biso   1.000  C
  C47      1.0000 0.32626  0.06506  0.87312  Biso   1.000  C
  C48      1.0000 0.67374  0.06506  0.62688  Biso   1.000  C
  H65      1.0000 0.17669  0.37382  0.07195  Biso   1.000  H
  H66      1.0000 0.82331  0.37382  0.42805  Biso   1.000  H
  H67      1.0000 0.67669  0.87382  0.07195  Biso   1.000  H
  H68      1.0000 0.32331  0.87382  0.42805  Biso   1.000  H
  H69      1.0000 0.82331  0.62618  0.92805  Biso   1.000  H
  H70      1.0000 0.17669  0.62618  0.57195  Biso   1.000  H
  H71      1.0000 0.32331  0.12618  0.92805  Biso   1.000  H
  H72      1.0000 0.67669  0.12618  0.57195  Biso   1.000  H
  H73      1.0000 0.17140  0.27951  0.15979  Biso   1.000  H
  H74      1.0000 0.82860  0.27951  0.34021  Biso   1.000  H
  H75      1.0000 0.67140  0.77951  0.15979  Biso   1.000  H
  H76      1.0000 0.32860  0.77951  0.34021  Biso   1.000  H
  H77      1.0000 0.82860  0.72049  0.84021  Biso   1.000  H
  H78      1.0000 0.17140  0.72049  0.65979  Biso   1.000  H
  H79      1.0000 0.32860  0.22049  0.84021  Biso   1.000  H
  H80      1.0000 0.67140  0.22049  0.65979  Biso   1.000  H
  C49      1.0000 0.15892  0.59427  0.11735  Biso   1.000  C
  C50      1.0000 0.84108  0.59427  0.38265  Biso   1.000  C
  C51      1.0000 0.65892  0.09427  0.11735  Biso   1.000  C
  C52      1.0000 0.34108  0.09427  0.38265  Biso   1.000  C
  C53      1.0000 0.84108  0.40573  0.88265  Biso   1.000  C
  C54      1.0000 0.15892  0.40573  0.61735  Biso   1.000  C
  C55      1.0000 0.34108  0.90573  0.88265  Biso   1.000  C
  C56      1.0000 0.65892  0.90573  0.61735  Biso   1.000  C
  H81      1.0000 0.16101  0.74443  0.08145  Biso   1.000  H
  H82      1.0000 0.83899  0.74443  0.41855  Biso   1.000  H
  H83      1.0000 0.66101  0.24443  0.08145  Biso   1.000  H
  H84      1.0000 0.33899  0.24443  0.41855  Biso   1.000  H
  H85      1.0000 0.83899  0.25557  0.91855  Biso   1.000  H
  H86      1.0000 0.16101  0.25557  0.58145  Biso   1.000  H
  H87      1.0000 0.33899  0.75557  0.91855  Biso   1.000  H
  H88      1.0000 0.66101  0.75557  0.58145  Biso   1.000  H
  H89      1.0000 0.15618  0.66367  0.17162  Biso   1.000  H
  H90      1.0000 0.84382  0.66367  0.32838  Biso   1.000  H
  H91      1.0000 0.65618  0.16367  0.17162  Biso   1.000  H
  H92      1.0000 0.34382  0.16367  0.32838  Biso   1.000  H
  H93      1.0000 0.84382  0.33633  0.82838  Biso   1.000  H
  H94      1.0000 0.15618  0.33633  0.67162  Biso   1.000  H
  H95      1.0000 0.34382  0.83633  0.82838  Biso   1.000  H
  H96      1.0000 0.65618  0.83633  0.67162  Biso   1.000  H
  C57      1.0000 0.14508  0.44481  0.08251  Biso   1.000  C
  C58      1.0000 0.85492  0.44481  0.41749  Biso   1.000  C
  C59      1.0000 0.64508  0.94481  0.08251  Biso   1.000  C
  C60      1.0000 0.35492  0.94481  0.41749  Biso   1.000  C
  C61      1.0000 0.85492  0.55519  0.91749  Biso   1.000  C
  C62      1.0000 0.14508  0.55519  0.58251  Biso   1.000  C
  C63      1.0000 0.35492  0.05519  0.91749  Biso   1.000  C
  C64      1.0000 0.64508  0.05519  0.58251  Biso   1.000  C
  H97      1.0000 0.14339  0.28741  0.11592  Biso   1.000  H
  H98      1.0000 0.85661  0.28741  0.38408  Biso   1.000  H
  H99      1.0000 0.64339  0.78741  0.11592  Biso   1.000  H
  H100     1.0000 0.35661  0.78741  0.38408  Biso   1.000  H
  H101     1.0000 0.85661  0.71259  0.88408  Biso   1.000  H
  H102     1.0000 0.14339  0.71259  0.61592  Biso   1.000  H
  H103     1.0000 0.35661  0.21259  0.88408  Biso   1.000  H
  H104     1.0000 0.64339  0.21259  0.61592  Biso   1.000  H
  H105     1.0000 0.14738  0.38819  0.02632  Biso   1.000  H
  H106     1.0000 0.85262  0.38819  0.47368  Biso   1.000  H
  H107     1.0000 0.64738  0.88819  0.02632  Biso   1.000  H
  H108     1.0000 0.35262  0.88819  0.47368  Biso   1.000  H
  H109     1.0000 0.85262  0.61181  0.97368  Biso   1.000  H
  H110     1.0000 0.14738  0.61181  0.52632  Biso   1.000  H
  H111     1.0000 0.35262  0.11181  0.97368  Biso   1.000  H
  H112     1.0000 0.64738  0.11181  0.52632  Biso   1.000  H
  C65      1.0000 0.13012  0.60397  0.08026  Biso   1.000  C
  C66      1.0000 0.86988  0.60397  0.41974  Biso   1.000  C
  C67      1.0000 0.63012  0.10397  0.08026  Biso   1.000  C
  C68      1.0000 0.36988  0.10397  0.41974  Biso   1.000  C
  C69      1.0000 0.86988  0.39603  0.91974  Biso   1.000  C
  C70      1.0000 0.13012  0.39603  0.58026  Biso   1.000  C
  C71      1.0000 0.36988  0.89603  0.91974  Biso   1.000  C
  C72      1.0000 0.63012  0.89603  0.58026  Biso   1.000  C
  H113     1.0000 0.12743  0.65554  0.13655  Biso   1.000  H
  H114     1.0000 0.87257  0.65554  0.36345  Biso   1.000  H
  H115     1.0000 0.62743  0.15554  0.13655  Biso   1.000  H
  H116     1.0000 0.37257  0.15554  0.36345  Biso   1.000  H
  H117     1.0000 0.87257  0.34446  0.86345  Biso   1.000  H
  H118     1.0000 0.12743  0.34446  0.63655  Biso   1.000  H
  H119     1.0000 0.37257  0.84446  0.86345  Biso   1.000  H
  H120     1.0000 0.62743  0.84446  0.63655  Biso   1.000  H
  H121     1.0000 0.13175  0.76495  0.04833  Biso   1.000  H
  H122     1.0000 0.86825  0.76495  0.45167  Biso   1.000  H
  H123     1.0000 0.63175  0.26495  0.04833  Biso   1.000  H
  H124     1.0000 0.36825  0.26495  0.45167  Biso   1.000  H
  H125     1.0000 0.86825  0.23505  0.95167  Biso   1.000  H
  H126     1.0000 0.13175  0.23505  0.54833  Biso   1.000  H
  H127     1.0000 0.36825  0.73505  0.95167  Biso   1.000  H
  H128     1.0000 0.63175  0.73505  0.54833  Biso   1.000  H
  C73      1.0000 0.11660  0.45008  0.04189  Biso   1.000  C
  C74      1.0000 0.88340  0.45008  0.45811  Biso   1.000  C
  C75      1.0000 0.61660  0.95008  0.04189  Biso   1.000  C
  C76      1.0000 0.38340  0.95008  0.45811  Biso   1.000  C
  C77      1.0000 0.88340  0.54992  0.95811  Biso   1.000  C
  C78      1.0000 0.11660  0.54992  0.54189  Biso   1.000  C
  C79      1.0000 0.38340  0.04992  0.95811  Biso   1.000  C
  C80      1.0000 0.61660  0.04992  0.54189  Biso   1.000  C
  H129     1.0000 0.11517  0.28806  0.07230  Biso   1.000  H
  H130     1.0000 0.88483  0.28806  0.42770  Biso   1.000  H
  H131     1.0000 0.61517  0.78806  0.07230  Biso   1.000  H
  H132     1.0000 0.38483  0.78806  0.42770  Biso   1.000  H
  H133     1.0000 0.88483  0.71194  0.92770  Biso   1.000  H
  H134     1.0000 0.11517  0.71194  0.57230  Biso   1.000  H
  H135     1.0000 0.38483  0.21194  0.92770  Biso   1.000  H
  H136     1.0000 0.61517  0.21194  0.57230  Biso   1.000  H
  H137     1.0000 0.11891  0.40956  0.98498  Biso   1.000  H
  H138     1.0000 0.88109  0.40956  0.51502  Biso   1.000  H
  H139     1.0000 0.61891  0.90956  0.98498  Biso   1.000  H
  H140     1.0000 0.38109  0.90956  0.51502  Biso   1.000  H
  H141     1.0000 0.88109  0.59044  0.01502  Biso   1.000  H
  H142     1.0000 0.11891  0.59044  0.48498  Biso   1.000  H
  H143     1.0000 0.38109  0.09044  0.01502  Biso   1.000  H
  H144     1.0000 0.61891  0.09044  0.48498  Biso   1.000  H
  C81      1.0000 0.10151  0.61586  0.04540  Biso   1.000  C
  C82      1.0000 0.89849  0.61586  0.45460  Biso   1.000  C
  C83      1.0000 0.60151  0.11586  0.04540  Biso   1.000  C
  C84      1.0000 0.39849  0.11586  0.45460  Biso   1.000  C
  C85      1.0000 0.89849  0.38414  0.95460  Biso   1.000  C
  C86      1.0000 0.10151  0.38414  0.54540  Biso   1.000  C
  C87      1.0000 0.39849  0.88414  0.95460  Biso   1.000  C
  C88      1.0000 0.60151  0.88414  0.54540  Biso   1.000  C
  H145     1.0000 0.10314  0.79986  0.01095  Biso   1.000  H
  H146     1.0000 0.89686  0.79986  0.48905  Biso   1.000  H
  H147     1.0000 0.60314  0.29986  0.01095  Biso   1.000  H
  H148     1.0000 0.39686  0.29986  0.48905  Biso   1.000  H
  H149     1.0000 0.89686  0.20014  0.98905  Biso   1.000  H
  H150     1.0000 0.10314  0.20014  0.51095  Biso   1.000  H
  H151     1.0000 0.39686  0.70014  0.98905  Biso   1.000  H
  H152     1.0000 0.60314  0.70014  0.51095  Biso   1.000  H
  H153     1.0000 0.09891  0.66143  0.11009  Biso   1.000  H
  H154     1.0000 0.90109  0.66143  0.38991  Biso   1.000  H
  H155     1.0000 0.59891  0.16143  0.11009  Biso   1.000  H
  H156     1.0000 0.40109  0.16143  0.38991  Biso   1.000  H
  H157     1.0000 0.90109  0.33857  0.88991  Biso   1.000  H
  H158     1.0000 0.09891  0.33857  0.61009  Biso   1.000  H
  H159     1.0000 0.40109  0.83857  0.88991  Biso   1.000  H
  H160     1.0000 0.59891  0.83857  0.61009  Biso   1.000  H
  C89      1.0000 0.08780  0.45920  0.00639  Biso   1.000  C
  C90      1.0000 0.91220  0.45920  0.49361  Biso   1.000  C
  C91      1.0000 0.58780  0.95920  0.00639  Biso   1.000  C
  C92      1.0000 0.41220  0.95920  0.49361  Biso   1.000  C
  C93      1.0000 0.91220  0.54080  0.99361  Biso   1.000  C
  C94      1.0000 0.08780  0.54080  0.50639  Biso   1.000  C
  C95      1.0000 0.41220  0.04080  0.99361  Biso   1.000  C
  C96      1.0000 0.58780  0.04080  0.50639  Biso   1.000  C
  H161     1.0000 0.09062  0.40670  0.94248  Biso   1.000  H
  H162     1.0000 0.90938  0.40670  0.55752  Biso   1.000  H
  H163     1.0000 0.59062  0.90670  0.94248  Biso   1.000  H
  H164     1.0000 0.40938  0.90670  0.55752  Biso   1.000  H
  H165     1.0000 0.90938  0.59330  0.05752  Biso   1.000  H
  H166     1.0000 0.09062  0.59330  0.44248  Biso   1.000  H
  H167     1.0000 0.40938  0.09330  0.05752  Biso   1.000  H
  H168     1.0000 0.59062  0.09330  0.44248  Biso   1.000  H
  H169     1.0000 0.08560  0.28266  0.04360  Biso   1.000  H
  H170     1.0000 0.91440  0.28266  0.45640  Biso   1.000  H
  H171     1.0000 0.58560  0.78266  0.04360  Biso   1.000  H
  H172     1.0000 0.41440  0.78266  0.45640  Biso   1.000  H
  H173     1.0000 0.91440  0.71734  0.95640  Biso   1.000  H
  H174     1.0000 0.08560  0.71734  0.54360  Biso   1.000  H
  H175     1.0000 0.41440  0.21734  0.95640  Biso   1.000  H
  H176     1.0000 0.58560  0.21734  0.54360  Biso   1.000  H
  C97      1.0000 0.07282  0.62841  0.00717  Biso   1.000  C
  C98      1.0000 0.92718  0.62841  0.49283  Biso   1.000  C
  C99      1.0000 0.57282  0.12841  0.00717  Biso   1.000  C
  C100     1.0000 0.42718  0.12841  0.49283  Biso   1.000  C
  C101     1.0000 0.92718  0.37159  0.99283  Biso   1.000  C
  C102     1.0000 0.07282  0.37159  0.50717  Biso   1.000  C
  C103     1.0000 0.42718  0.87159  0.99283  Biso   1.000  C
  C104     1.0000 0.57282  0.87159  0.50717  Biso   1.000  C
  H177     1.0000 0.07030  0.68646  0.07099  Biso   1.000  H
  H178     1.0000 0.92970  0.68646  0.42901  Biso   1.000  H
  H179     1.0000 0.57030  0.18646  0.07099  Biso   1.000  H
  H180     1.0000 0.42970  0.18646  0.42901  Biso   1.000  H
  H181     1.0000 0.92970  0.31354  0.92901  Biso   1.000  H
  H182     1.0000 0.07030  0.31354  0.57099  Biso   1.000  H
  H183     1.0000 0.42970  0.81354  0.92901  Biso   1.000  H
  H184     1.0000 0.57030  0.81354  0.57099  Biso   1.000  H
  H185     1.0000 0.07438  0.80178  0.96760  Biso   1.000  H
  H186     1.0000 0.92562  0.80178  0.53240  Biso   1.000  H
  H187     1.0000 0.57438  0.30178  0.96760  Biso   1.000  H
  H188     1.0000 0.42562  0.30178  0.53240  Biso   1.000  H
  H189     1.0000 0.92562  0.19822  0.03240  Biso   1.000  H
  H190     1.0000 0.07438  0.19822  0.46760  Biso   1.000  H
  H191     1.0000 0.42562  0.69822  0.03240  Biso   1.000  H
  H192     1.0000 0.57438  0.69822  0.46760  Biso   1.000  H
  C105     1.0000 0.05899  0.46838  0.97087  Biso   1.000  C
  C106     1.0000 0.94101  0.46838  0.52913  Biso   1.000  C
  C107     1.0000 0.55899  0.96838  0.97087  Biso   1.000  C
  C108     1.0000 0.44101  0.96838  0.52913  Biso   1.000  C
  C109     1.0000 0.94101  0.53162  0.02913  Biso   1.000  C
  C110     1.0000 0.05899  0.53162  0.47087  Biso   1.000  C
  C111     1.0000 0.44101  0.03162  0.02913  Biso   1.000  C
  C112     1.0000 0.55899  0.03162  0.47087  Biso   1.000  C
  H193     1.0000 0.06176  0.40460  0.90791  Biso   1.000  H
  H194     1.0000 0.93824  0.40460  0.59209  Biso   1.000  H
  H195     1.0000 0.56176  0.90460  0.90791  Biso   1.000  H
  H196     1.0000 0.43824  0.90460  0.59209  Biso   1.000  H
  H197     1.0000 0.93824  0.59540  0.09209  Biso   1.000  H
  H198     1.0000 0.06176  0.59540  0.40791  Biso   1.000  H
  H199     1.0000 0.43824  0.09540  0.09209  Biso   1.000  H
  H200     1.0000 0.56176  0.09540  0.40791  Biso   1.000  H
  H201     1.0000 0.05667  0.29883  0.01096  Biso   1.000  H
  H202     1.0000 0.94333  0.29883  0.48904  Biso   1.000  H
  H203     1.0000 0.55667  0.79883  0.01096  Biso   1.000  H
  H204     1.0000 0.44333  0.79883  0.48904  Biso   1.000  H
  H205     1.0000 0.94333  0.70117  0.98904  Biso   1.000  H
  H206     1.0000 0.05667  0.70117  0.51096  Biso   1.000  H
  H207     1.0000 0.44333  0.20117  0.98904  Biso   1.000  H
  H208     1.0000 0.55667  0.20117  0.51096  Biso   1.000  H
  C113     1.0000 0.04403  0.64183  0.96891  Biso   1.000  C
  C114     1.0000 0.95597  0.64183  0.53109  Biso   1.000  C
  C115     1.0000 0.54403  0.14183  0.96891  Biso   1.000  C
  C116     1.0000 0.45597  0.14183  0.53109  Biso   1.000  C
  C117     1.0000 0.95597  0.35817  0.03109  Biso   1.000  C
  C118     1.0000 0.04403  0.35817  0.46891  Biso   1.000  C
  C119     1.0000 0.45597  0.85817  0.03109  Biso   1.000  C
  C120     1.0000 0.54403  0.85817  0.46891  Biso   1.000  C
  H209     1.0000 0.04158  0.71107  0.03169  Biso   1.000  H
  H210     1.0000 0.95842  0.71107  0.46831  Biso   1.000  H
  H211     1.0000 0.54158  0.21107  0.03169  Biso   1.000  H
  H212     1.0000 0.45842  0.21107  0.46831  Biso   1.000  H
  H213     1.0000 0.95842  0.28893  0.96831  Biso   1.000  H
  H214     1.0000 0.04158  0.28893  0.53169  Biso   1.000  H
  H215     1.0000 0.45842  0.78893  0.96831  Biso   1.000  H
  H216     1.0000 0.54158  0.78893  0.53169  Biso   1.000  H
  H217     1.0000 0.04570  0.80796  0.92652  Biso   1.000  H
  H218     1.0000 0.95430  0.80796  0.57348  Biso   1.000  H
  H219     1.0000 0.54570  0.30796  0.92652  Biso   1.000  H
  H220     1.0000 0.45430  0.30796  0.57348  Biso   1.000  H
  H221     1.0000 0.95430  0.19204  0.07348  Biso   1.000  H
  H222     1.0000 0.04570  0.19204  0.42652  Biso   1.000  H
  H223     1.0000 0.45430  0.69204  0.07348  Biso   1.000  H
  H224     1.0000 0.54570  0.69204  0.42652  Biso   1.000  H
  C121     1.0000 0.02999  0.47786  0.93514  Biso   1.000  C
  C122     1.0000 0.97001  0.47786  0.56486  Biso   1.000  C
  C123     1.0000 0.52999  0.97786  0.93514  Biso   1.000  C
  C124     1.0000 0.47001  0.97786  0.56486  Biso   1.000  C
  C125     1.0000 0.97001  0.52214  0.06486  Biso   1.000  C
  C126     1.0000 0.02999  0.52214  0.43514  Biso   1.000  C
  C127     1.0000 0.47001  0.02214  0.06486  Biso   1.000  C
  C128     1.0000 0.52999  0.02214  0.43514  Biso   1.000  C
  H225     1.0000 0.03428  0.32377  0.89365  Biso   1.000  H
  H226     1.0000 0.96572  0.32377  0.60635  Biso   1.000  H
  H227     1.0000 0.53428  0.82377  0.89365  Biso   1.000  H
  H228     1.0000 0.46572  0.82377  0.60635  Biso   1.000  H
  H229     1.0000 0.96572  0.67623  0.10635  Biso   1.000  H
  H230     1.0000 0.03428  0.67623  0.39365  Biso   1.000  H
  H231     1.0000 0.46572  0.17623  0.10635  Biso   1.000  H
  H232     1.0000 0.53428  0.17623  0.39365  Biso   1.000  H
  H233     1.0000 0.02362  0.39224  0.98706  Biso   1.000  H
  H234     1.0000 0.97638  0.39224  0.51294  Biso   1.000  H
  H235     1.0000 0.52362  0.89224  0.98706  Biso   1.000  H
  H236     1.0000 0.47638  0.89224  0.51294  Biso   1.000  H
  H237     1.0000 0.97638  0.60776  0.01294  Biso   1.000  H
  H238     1.0000 0.02362  0.60776  0.48706  Biso   1.000  H
  H239     1.0000 0.47638  0.10776  0.01294  Biso   1.000  H
  H240     1.0000 0.52362  0.10776  0.48706  Biso   1.000  H
  H241     1.0000 0.02183  0.60747  0.90129  Biso   1.000  H
  H242     1.0000 0.97817  0.60747  0.59871  Biso   1.000  H
  H243     1.0000 0.52183  0.10747  0.90129  Biso   1.000  H
  H244     1.0000 0.47817  0.10747  0.59871  Biso   1.000  H
  H245     1.0000 0.97817  0.39253  0.09871  Biso   1.000  H
  H246     1.0000 0.02183  0.39253  0.40129  Biso   1.000  H
  H247     1.0000 0.47817  0.89253  0.09871  Biso   1.000  H
  H248     1.0000 0.52183  0.89253  0.40129  Biso   1.000  H
  O17      1.0000 0.22456  0.25123  0.94436  Biso   1.000  O
  O18      1.0000 0.77544  0.25123  0.55564  Biso   1.000  O
  O19      1.0000 0.72456  0.75123  0.94436  Biso   1.000  O
  O20      1.0000 0.27544  0.75123  0.55564  Biso   1.000  O
  O21      1.0000 0.77544  0.74877  0.05564  Biso   1.000  O
  O22      1.0000 0.22456  0.74877  0.44436  Biso   1.000  O
  O23      1.0000 0.27544  0.24877  0.05564  Biso   1.000  O
  O24      1.0000 0.72456  0.24877  0.44436  Biso   1.000  O
  O25      1.0000 0.23619  0.88404  0.98806  Biso   1.000  O
  O26      1.0000 0.76381  0.88404  0.51194  Biso   1.000  O
  O27      1.0000 0.73619  0.38404  0.98806  Biso   1.000  O
  O28      1.0000 0.26381  0.38404  0.51194  Biso   1.000  O
  O29      1.0000 0.76381  0.11596  0.01194  Biso   1.000  O
  O30      1.0000 0.23619  0.11596  0.48806  Biso   1.000  O
  O31      1.0000 0.26381  0.61596  0.01194  Biso   1.000  O
  O32      1.0000 0.73619  0.61596  0.48806  Biso   1.000  O
  C129     1.0000 0.22398  0.01304  0.96370  Biso   1.000  C
  C130     1.0000 0.77602  0.01304  0.53630  Biso   1.000  C
  C131     1.0000 0.72398  0.51304  0.96370  Biso   1.000  C
  C132     1.0000 0.27602  0.51304  0.53630  Biso   1.000  C
  C133     1.0000 0.77602  0.98696  0.03630  Biso   1.000  C
  C134     1.0000 0.22398  0.98696  0.46370  Biso   1.000  C
  C135     1.0000 0.27602  0.48696  0.03630  Biso   1.000  C
  C136     1.0000 0.72398  0.48696  0.46370  Biso   1.000  C
  C137     1.0000 0.20899  0.86362  0.95590  Biso   1.000  C
  C138     1.0000 0.79101  0.86362  0.54410  Biso   1.000  C
  C139     1.0000 0.70899  0.36362  0.95590  Biso   1.000  C
  C140     1.0000 0.29101  0.36362  0.54410  Biso   1.000  C
  C141     1.0000 0.79101  0.13638  0.04410  Biso   1.000  C
  C142     1.0000 0.20899  0.13638  0.45590  Biso   1.000  C
  C143     1.0000 0.29101  0.63638  0.04410  Biso   1.000  C
  C144     1.0000 0.70899  0.63638  0.45590  Biso   1.000  C
  H249     1.0000 0.20593  0.80739  0.01109  Biso   1.000  H
  H250     1.0000 0.79407  0.80739  0.48891  Biso   1.000  H
  H251     1.0000 0.70593  0.30739  0.01109  Biso   1.000  H
  H252     1.0000 0.29407  0.30739  0.48891  Biso   1.000  H
  H253     1.0000 0.79407  0.19261  0.98891  Biso   1.000  H
  H254     1.0000 0.20593  0.19261  0.51109  Biso   1.000  H
  H255     1.0000 0.29407  0.69261  0.98891  Biso   1.000  H
  H256     1.0000 0.70593  0.69261  0.51109  Biso   1.000  H
  H257     1.0000 0.21094  0.70471  0.92353  Biso   1.000  H
  H258     1.0000 0.78906  0.70471  0.57647  Biso   1.000  H
  H259     1.0000 0.71094  0.20471  0.92353  Biso   1.000  H
  H260     1.0000 0.28906  0.20471  0.57647  Biso   1.000  H
  H261     1.0000 0.78906  0.29529  0.07647  Biso   1.000  H
  H262     1.0000 0.21094  0.29529  0.42353  Biso   1.000  H
  H263     1.0000 0.28906  0.79529  0.07647  Biso   1.000  H
  H264     1.0000 0.71094  0.79529  0.42353  Biso   1.000  H
  C145     1.0000 0.19547  0.00751  0.91677  Biso   1.000  C
  C146     1.0000 0.80453  0.00751  0.58323  Biso   1.000  C
  C147     1.0000 0.69547  0.50751  0.91677  Biso   1.000  C
  C148     1.0000 0.30453  0.50751  0.58323  Biso   1.000  C
  C149     1.0000 0.80453  0.99249  0.08323  Biso   1.000  C
  C150     1.0000 0.19547  0.99249  0.41677  Biso   1.000  C
  C151     1.0000 0.30453  0.49249  0.08323  Biso   1.000  C
  C152     1.0000 0.69547  0.49249  0.41677  Biso   1.000  C
  H265     1.0000 0.19402  0.17392  0.94607  Biso   1.000  H
  H266     1.0000 0.80598  0.17392  0.55393  Biso   1.000  H
  H267     1.0000 0.69402  0.67392  0.94607  Biso   1.000  H
  H268     1.0000 0.30598  0.67392  0.55393  Biso   1.000  H
  H269     1.0000 0.80598  0.82608  0.05393  Biso   1.000  H
  H270     1.0000 0.19402  0.82608  0.44607  Biso   1.000  H
  H271     1.0000 0.30598  0.32608  0.05393  Biso   1.000  H
  H272     1.0000 0.69402  0.32608  0.44607  Biso   1.000  H
  H273     1.0000 0.19802  0.04896  0.85967  Biso   1.000  H
  H274     1.0000 0.80198  0.04896  0.64033  Biso   1.000  H
  H275     1.0000 0.69802  0.54896  0.85967  Biso   1.000  H
  H276     1.0000 0.30198  0.54896  0.64033  Biso   1.000  H
  H277     1.0000 0.80198  0.95104  0.14033  Biso   1.000  H
  H278     1.0000 0.19802  0.95104  0.35967  Biso   1.000  H
  H279     1.0000 0.30198  0.45104  0.14033  Biso   1.000  H
  H280     1.0000 0.69802  0.45104  0.35967  Biso   1.000  H
  C153     1.0000 0.18030  0.85748  0.91717  Biso   1.000  C
  C154     1.0000 0.81970  0.85748  0.58283  Biso   1.000  C
  C155     1.0000 0.68030  0.35748  0.91717  Biso   1.000  C
  C156     1.0000 0.31970  0.35748  0.58283  Biso   1.000  C
  C157     1.0000 0.81970  0.14252  0.08283  Biso   1.000  C
  C158     1.0000 0.18030  0.14252  0.41717  Biso   1.000  C
  C159     1.0000 0.31970  0.64252  0.08283  Biso   1.000  C
  C160     1.0000 0.68030  0.64252  0.41717  Biso   1.000  C
  H281     1.0000 0.17766  0.82014  0.97453  Biso   1.000  H
  H282     1.0000 0.82234  0.82014  0.52547  Biso   1.000  H
  H283     1.0000 0.67766  0.32014  0.97453  Biso   1.000  H
  H284     1.0000 0.32234  0.32014  0.52547  Biso   1.000  H
  H285     1.0000 0.82234  0.17986  0.02547  Biso   1.000  H
  H286     1.0000 0.17766  0.17986  0.47453  Biso   1.000  H
  H287     1.0000 0.32234  0.67986  0.02547  Biso   1.000  H
  H288     1.0000 0.67766  0.67986  0.47453  Biso   1.000  H
  H289     1.0000 0.18192  0.68868  0.88956  Biso   1.000  H
  H290     1.0000 0.81808  0.68868  0.61044  Biso   1.000  H
  H291     1.0000 0.68192  0.18868  0.88956  Biso   1.000  H
  H292     1.0000 0.31808  0.18868  0.61044  Biso   1.000  H
  H293     1.0000 0.81808  0.31132  0.11044  Biso   1.000  H
  H294     1.0000 0.18192  0.31132  0.38956  Biso   1.000  H
  H295     1.0000 0.31808  0.81132  0.11044  Biso   1.000  H
  H296     1.0000 0.68192  0.81132  0.38956  Biso   1.000  H
  C161     1.0000 0.16649  0.99421  0.87585  Biso   1.000  C
  C162     1.0000 0.83351  0.99421  0.62415  Biso   1.000  C
  C163     1.0000 0.66649  0.49421  0.87585  Biso   1.000  C
  C164     1.0000 0.33351  0.49421  0.62415  Biso   1.000  C
  C165     1.0000 0.83351  0.00579  0.12415  Biso   1.000  C
  C166     1.0000 0.16649  0.00579  0.37585  Biso   1.000  C
  C167     1.0000 0.33351  0.50579  0.12415  Biso   1.000  C
  C168     1.0000 0.66649  0.50579  0.37585  Biso   1.000  C
  H297     1.0000 0.16514  0.16497  0.90250  Biso   1.000  H
  H298     1.0000 0.83486  0.16497  0.59750  Biso   1.000  H
  H299     1.0000 0.66514  0.66497  0.90250  Biso   1.000  H
  H300     1.0000 0.33486  0.66497  0.59750  Biso   1.000  H
  H301     1.0000 0.83486  0.83503  0.09750  Biso   1.000  H
  H302     1.0000 0.16514  0.83503  0.40250  Biso   1.000  H
  H303     1.0000 0.33486  0.33503  0.09750  Biso   1.000  H
  H304     1.0000 0.66514  0.33503  0.40250  Biso   1.000  H
  H305     1.0000 0.16914  0.02762  0.81816  Biso   1.000  H
  H306     1.0000 0.83086  0.02762  0.68184  Biso   1.000  H
  H307     1.0000 0.66914  0.52762  0.81816  Biso   1.000  H
  H308     1.0000 0.33086  0.52762  0.68184  Biso   1.000  H
  H309     1.0000 0.83086  0.97238  0.18184  Biso   1.000  H
  H310     1.0000 0.16914  0.97238  0.31816  Biso   1.000  H
  H311     1.0000 0.33086  0.47238  0.18184  Biso   1.000  H
  H312     1.0000 0.66914  0.47238  0.31816  Biso   1.000  H
  C169     1.0000 0.15125  0.85214  0.87718  Biso   1.000  C
  C170     1.0000 0.84875  0.85214  0.62282  Biso   1.000  C
  C171     1.0000 0.65125  0.35214  0.87718  Biso   1.000  C
  C172     1.0000 0.34875  0.35214  0.62282  Biso   1.000  C
  C173     1.0000 0.84875  0.14786  0.12282  Biso   1.000  C
  C174     1.0000 0.15125  0.14786  0.37718  Biso   1.000  C
  C175     1.0000 0.34875  0.64786  0.12282  Biso   1.000  C
  C176     1.0000 0.65125  0.64786  0.37718  Biso   1.000  C
  H313     1.0000 0.14891  0.81261  0.93475  Biso   1.000  H
  H314     1.0000 0.85109  0.81261  0.56525  Biso   1.000  H
  H315     1.0000 0.64891  0.31261  0.93475  Biso   1.000  H
  H316     1.0000 0.35109  0.31261  0.56525  Biso   1.000  H
  H317     1.0000 0.85109  0.18739  0.06525  Biso   1.000  H
  H318     1.0000 0.14891  0.18739  0.43475  Biso   1.000  H
  H319     1.0000 0.35109  0.68739  0.06525  Biso   1.000  H
  H320     1.0000 0.64891  0.68739  0.43475  Biso   1.000  H
  H321     1.0000 0.15259  0.68413  0.84882  Biso   1.000  H
  H322     1.0000 0.84741  0.68413  0.65118  Biso   1.000  H
  H323     1.0000 0.65259  0.18413  0.84882  Biso   1.000  H
  H324     1.0000 0.34741  0.18413  0.65118  Biso   1.000  H
  H325     1.0000 0.84741  0.31587  0.15118  Biso   1.000  H
  H326     1.0000 0.15259  0.31587  0.34882  Biso   1.000  H
  H327     1.0000 0.34741  0.81587  0.15118  Biso   1.000  H
  H328     1.0000 0.65259  0.81587  0.34882  Biso   1.000  H
  C177     1.0000 0.13729  0.98725  0.83936  Biso   1.000  C
  C178     1.0000 0.86271  0.98725  0.66064  Biso   1.000  C
  C179     1.0000 0.63729  0.48725  0.83936  Biso   1.000  C
  C180     1.0000 0.36271  0.48725  0.66064  Biso   1.000  C
  C181     1.0000 0.86271  0.01275  0.16064  Biso   1.000  C
  C182     1.0000 0.13729  0.01275  0.33936  Biso   1.000  C
  C183     1.0000 0.36271  0.51275  0.16064  Biso   1.000  C
  C184     1.0000 0.63729  0.51275  0.33936  Biso   1.000  C
  H329     1.0000 0.13967  0.03108  0.78210  Biso   1.000  H
  H330     1.0000 0.86033  0.03108  0.71790  Biso   1.000  H
  H331     1.0000 0.63967  0.53108  0.78210  Biso   1.000  H
  H332     1.0000 0.36033  0.53108  0.71790  Biso   1.000  H
  H333     1.0000 0.86033  0.96892  0.21790  Biso   1.000  H
  H334     1.0000 0.13967  0.96892  0.28210  Biso   1.000  H
  H335     1.0000 0.36033  0.46892  0.21790  Biso   1.000  H
  H336     1.0000 0.63967  0.46892  0.28210  Biso   1.000  H
  H337     1.0000 0.13573  0.15368  0.86866  Biso   1.000  H
  H338     1.0000 0.86427  0.15368  0.63134  Biso   1.000  H
  H339     1.0000 0.63573  0.65368  0.86866  Biso   1.000  H
  H340     1.0000 0.36427  0.65368  0.63134  Biso   1.000  H
  H341     1.0000 0.86427  0.84632  0.13134  Biso   1.000  H
  H342     1.0000 0.13573  0.84632  0.36866  Biso   1.000  H
  H343     1.0000 0.36427  0.34632  0.13134  Biso   1.000  H
  H344     1.0000 0.63573  0.34632  0.36866  Biso   1.000  H
  C185     1.0000 0.12235  0.83948  0.83962  Biso   1.000  C
  C186     1.0000 0.87765  0.83948  0.66038  Biso   1.000  C
  C187     1.0000 0.62235  0.33948  0.83962  Biso   1.000  C
  C188     1.0000 0.37765  0.33948  0.66038  Biso   1.000  C
  C189     1.0000 0.87765  0.16052  0.16038  Biso   1.000  C
  C190     1.0000 0.12235  0.16052  0.33962  Biso   1.000  C
  C191     1.0000 0.37765  0.66052  0.16038  Biso   1.000  C
  C192     1.0000 0.62235  0.66052  0.33962  Biso   1.000  C
  H345     1.0000 0.12396  0.67272  0.81105  Biso   1.000  H
  H346     1.0000 0.87604  0.67272  0.68895  Biso   1.000  H
  H347     1.0000 0.62396  0.17272  0.81105  Biso   1.000  H
  H348     1.0000 0.37604  0.17272  0.68895  Biso   1.000  H
  H349     1.0000 0.87604  0.32728  0.18895  Biso   1.000  H
  H350     1.0000 0.12396  0.32728  0.31105  Biso   1.000  H
  H351     1.0000 0.37604  0.82728  0.18895  Biso   1.000  H
  H352     1.0000 0.62396  0.82728  0.31105  Biso   1.000  H
  H353     1.0000 0.11990  0.79776  0.89713  Biso   1.000  H
  H354     1.0000 0.88010  0.79776  0.60287  Biso   1.000  H
  H355     1.0000 0.61990  0.29776  0.89713  Biso   1.000  H
  H356     1.0000 0.38010  0.29776  0.60287  Biso   1.000  H
  H357     1.0000 0.88010  0.20224  0.10287  Biso   1.000  H
  H358     1.0000 0.11990  0.20224  0.39713  Biso   1.000  H
  H359     1.0000 0.38010  0.70224  0.10287  Biso   1.000  H
  H360     1.0000 0.61990  0.70224  0.39713  Biso   1.000  H
  C193     1.0000 0.10814  0.97140  0.80110  Biso   1.000  C
  C194     1.0000 0.89186  0.97140  0.69890  Biso   1.000  C
  C195     1.0000 0.60814  0.47140  0.80110  Biso   1.000  C
  C196     1.0000 0.39186  0.47140  0.69890  Biso   1.000  C
  C197     1.0000 0.89186  0.02860  0.19890  Biso   1.000  C
  C198     1.0000 0.10814  0.02860  0.30110  Biso   1.000  C
  C199     1.0000 0.39186  0.52860  0.19890  Biso   1.000  C
  C200     1.0000 0.60814  0.52860  0.30110  Biso   1.000  C
  H361     1.0000 0.11065  0.01467  0.74403  Biso   1.000  H
  H362     1.0000 0.88935  0.01467  0.75597  Biso   1.000  H
  H363     1.0000 0.61065  0.51467  0.74403  Biso   1.000  H
  H364     1.0000 0.38935  0.51467  0.75597  Biso   1.000  H
  H365     1.0000 0.88935  0.98533  0.25597  Biso   1.000  H
  H366     1.0000 0.11065  0.98533  0.24403  Biso   1.000  H
  H367     1.0000 0.38935  0.48533  0.25597  Biso   1.000  H
  H368     1.0000 0.61065  0.48533  0.24403  Biso   1.000  H
  H369     1.0000 0.10652  0.13755  0.83015  Biso   1.000  H
  H370     1.0000 0.89348  0.13755  0.66985  Biso   1.000  H
  H371     1.0000 0.60652  0.63755  0.83015  Biso   1.000  H
  H372     1.0000 0.39348  0.63755  0.66985  Biso   1.000  H
  H373     1.0000 0.89348  0.86245  0.16985  Biso   1.000  H
  H374     1.0000 0.10652  0.86245  0.33015  Biso   1.000  H
  H375     1.0000 0.39348  0.36245  0.16985  Biso   1.000  H
  H376     1.0000 0.60652  0.36245  0.33015  Biso   1.000  H
  C201     1.0000 0.09270  0.82522  0.79989  Biso   1.000  C
  C202     1.0000 0.90730  0.82522  0.70011  Biso   1.000  C
  C203     1.0000 0.59270  0.32522  0.79989  Biso   1.000  C
  C204     1.0000 0.40730  0.32522  0.70011  Biso   1.000  C
  C205     1.0000 0.90730  0.17478  0.20011  Biso   1.000  C
  C206     1.0000 0.09270  0.17478  0.29989  Biso   1.000  C
  C207     1.0000 0.40730  0.67478  0.20011  Biso   1.000  C
  C208     1.0000 0.59270  0.67478  0.29989  Biso   1.000  C
  H377     1.0000 0.08858  0.81865  0.85519  Biso   1.000  H
  H378     1.0000 0.91142  0.81865  0.64481  Biso   1.000  H
  H379     1.0000 0.58858  0.31865  0.85519  Biso   1.000  H
  H380     1.0000 0.41142  0.31865  0.64481  Biso   1.000  H
  H381     1.0000 0.91142  0.18135  0.14481  Biso   1.000  H
  H382     1.0000 0.08858  0.18135  0.35519  Biso   1.000  H
  H383     1.0000 0.41142  0.68135  0.14481  Biso   1.000  H
  H384     1.0000 0.58858  0.68135  0.35519  Biso   1.000  H
  H385     1.0000 0.09431  0.64758  0.78001  Biso   1.000  H
  H386     1.0000 0.90569  0.64758  0.71999  Biso   1.000  H
  H387     1.0000 0.59431  0.14758  0.78001  Biso   1.000  H
  H388     1.0000 0.40569  0.14758  0.71999  Biso   1.000  H
  H389     1.0000 0.90569  0.35242  0.21999  Biso   1.000  H
  H390     1.0000 0.09431  0.35242  0.28001  Biso   1.000  H
  H391     1.0000 0.40569  0.85242  0.21999  Biso   1.000  H
  H392     1.0000 0.59431  0.85242  0.28001  Biso   1.000  H
  C209     1.0000 0.08094  0.96769  0.74208  Biso   1.000  C
  C210     1.0000 0.91906  0.96769  0.75792  Biso   1.000  C
  C211     1.0000 0.58094  0.46769  0.74208  Biso   1.000  C
  C212     1.0000 0.41906  0.46769  0.75792  Biso   1.000  C
  C213     1.0000 0.91906  0.03231  0.25792  Biso   1.000  C
  C214     1.0000 0.08094  0.03231  0.24208  Biso   1.000  C
  C215     1.0000 0.41906  0.53231  0.25792  Biso   1.000  C
  C216     1.0000 0.58094  0.53231  0.24208  Biso   1.000  C
  H393     1.0000 0.08559  0.97424  0.67925  Biso   1.000  H
  H394     1.0000 0.91441  0.97424  0.82075  Biso   1.000  H
  H395     1.0000 0.58559  0.47424  0.67925  Biso   1.000  H
  H396     1.0000 0.41441  0.47424  0.82075  Biso   1.000  H
  H397     1.0000 0.91441  0.02576  0.32075  Biso   1.000  H
  H398     1.0000 0.08559  0.02576  0.17925  Biso   1.000  H
  H399     1.0000 0.41441  0.52576  0.32075  Biso   1.000  H
  H400     1.0000 0.58559  0.52576  0.17925  Biso   1.000  H
  H401     1.0000 0.07910  0.16932  0.76448  Biso   1.000  H
  H402     1.0000 0.92090  0.16932  0.73552  Biso   1.000  H
  H403     1.0000 0.57910  0.66932  0.76448  Biso   1.000  H
  H404     1.0000 0.42090  0.66932  0.73552  Biso   1.000  H
  H405     1.0000 0.92090  0.83068  0.23552  Biso   1.000  H
  H406     1.0000 0.07910  0.83068  0.26448  Biso   1.000  H
  H407     1.0000 0.42090  0.33068  0.23552  Biso   1.000  H
  H408     1.0000 0.57910  0.33068  0.26448  Biso   1.000  H
  C217     1.0000 0.06523  0.81798  0.74107  Biso   1.000  C
  C218     1.0000 0.93477  0.81798  0.75893  Biso   1.000  C
  C219     1.0000 0.56523  0.31798  0.74107  Biso   1.000  C
  C220     1.0000 0.43477  0.31798  0.75893  Biso   1.000  C
  C221     1.0000 0.93477  0.18202  0.25893  Biso   1.000  C
  C222     1.0000 0.06523  0.18202  0.24107  Biso   1.000  C
  C223     1.0000 0.43477  0.68202  0.25893  Biso   1.000  C
  C224     1.0000 0.56523  0.68202  0.24107  Biso   1.000  C
  H409     1.0000 0.06717  0.61411  0.72110  Biso   1.000  H
  H410     1.0000 0.93283  0.61411  0.77890  Biso   1.000  H
  H411     1.0000 0.56717  0.11411  0.72110  Biso   1.000  H
  H412     1.0000 0.43283  0.11411  0.77890  Biso   1.000  H
  H413     1.0000 0.93283  0.38589  0.27890  Biso   1.000  H
  H414     1.0000 0.06717  0.38589  0.22110  Biso   1.000  H
  H415     1.0000 0.43283  0.88589  0.27890  Biso   1.000  H
  H416     1.0000 0.56717  0.88589  0.22110  Biso   1.000  H
  H417     1.0000 0.06015  0.82450  0.80297  Biso   1.000  H
  H418     1.0000 0.93985  0.82450  0.69703  Biso   1.000  H
  H419     1.0000 0.56015  0.32450  0.80297  Biso   1.000  H
  H420     1.0000 0.43985  0.32450  0.69703  Biso   1.000  H
  H421     1.0000 0.93985  0.17550  0.19703  Biso   1.000  H
  H422     1.0000 0.06015  0.17550  0.30297  Biso   1.000  H
  H423     1.0000 0.43985  0.67550  0.19703  Biso   1.000  H
  H424     1.0000 0.56015  0.67550  0.30297  Biso   1.000  H
  C225     1.0000 0.05363  0.95505  0.68099  Biso   1.000  C
  C226     1.0000 0.94637  0.95505  0.81901  Biso   1.000  C
  C227     1.0000 0.55363  0.45505  0.68099  Biso   1.000  C
  C228     1.0000 0.44637  0.45505  0.81901  Biso   1.000  C
  C229     1.0000 0.94637  0.04495  0.31901  Biso   1.000  C
  C230     1.0000 0.05363  0.04495  0.18099  Biso   1.000  C
  C231     1.0000 0.44637  0.54495  0.31901  Biso   1.000  C
  C232     1.0000 0.55363  0.54495  0.18099  Biso   1.000  C
  H425     1.0000 0.05209  0.16088  0.69996  Biso   1.000  H
  H426     1.0000 0.94791  0.16088  0.80004  Biso   1.000  H
  H427     1.0000 0.55209  0.66088  0.69996  Biso   1.000  H
  H428     1.0000 0.44791  0.66088  0.80004  Biso   1.000  H
  H429     1.0000 0.94791  0.83912  0.30004  Biso   1.000  H
  H430     1.0000 0.05209  0.83912  0.19996  Biso   1.000  H
  H431     1.0000 0.44791  0.33912  0.30004  Biso   1.000  H
  H432     1.0000 0.55209  0.33912  0.19996  Biso   1.000  H
  H433     1.0000 0.05805  0.94244  0.61774  Biso   1.000  H
  H434     1.0000 0.94195  0.94244  0.88226  Biso   1.000  H
  H435     1.0000 0.55805  0.44244  0.61774  Biso   1.000  H
  H436     1.0000 0.44195  0.44244  0.88226  Biso   1.000  H
  H437     1.0000 0.94195  0.05756  0.38226  Biso   1.000  H
  H438     1.0000 0.05805  0.05756  0.11774  Biso   1.000  H
  H439     1.0000 0.44195  0.55756  0.38226  Biso   1.000  H
  H440     1.0000 0.55805  0.55756  0.11774  Biso   1.000  H
  C233     1.0000 0.03775  0.81089  0.68220  Biso   1.000  C
  C234     1.0000 0.96225  0.81089  0.81780  Biso   1.000  C
  C235     1.0000 0.53775  0.31089  0.68220  Biso   1.000  C
  C236     1.0000 0.46225  0.31089  0.81780  Biso   1.000  C
  C237     1.0000 0.96225  0.18911  0.31780  Biso   1.000  C
  C238     1.0000 0.03775  0.18911  0.18220  Biso   1.000  C
  C239     1.0000 0.46225  0.68911  0.31780  Biso   1.000  C
  C240     1.0000 0.53775  0.68911  0.18220  Biso   1.000  C
  H441     1.0000 0.03945  0.60344  0.66546  Biso   1.000  H
  H442     1.0000 0.96055  0.60344  0.83454  Biso   1.000  H
  H443     1.0000 0.53945  0.10344  0.66546  Biso   1.000  H
  H444     1.0000 0.46055  0.10344  0.83454  Biso   1.000  H
  H445     1.0000 0.96055  0.39656  0.33454  Biso   1.000  H
  H446     1.0000 0.03945  0.39656  0.16546  Biso   1.000  H
  H447     1.0000 0.46055  0.89656  0.33454  Biso   1.000  H
  H448     1.0000 0.53945  0.89656  0.16546  Biso   1.000  H
  H449     1.0000 0.03267  0.82910  0.74387  Biso   1.000  H
  H450     1.0000 0.96733  0.82910  0.75613  Biso   1.000  H
  H451     1.0000 0.53267  0.32910  0.74387  Biso   1.000  H
  H452     1.0000 0.46733  0.32910  0.75613  Biso   1.000  H
  H453     1.0000 0.96733  0.17090  0.25613  Biso   1.000  H
  H454     1.0000 0.03267  0.17090  0.24387  Biso   1.000  H
  H455     1.0000 0.46733  0.67090  0.25613  Biso   1.000  H
  H456     1.0000 0.53267  0.67090  0.24387  Biso   1.000  H
  C241     1.0000 0.02633  0.94219  0.61995  Biso   1.000  C
  C242     1.0000 0.97367  0.94219  0.88005  Biso   1.000  C
  C243     1.0000 0.52633  0.44219  0.61995  Biso   1.000  C
  C244     1.0000 0.47367  0.44219  0.88005  Biso   1.000  C
  C245     1.0000 0.97367  0.05781  0.38005  Biso   1.000  C
  C246     1.0000 0.02633  0.05781  0.11995  Biso   1.000  C
  C247     1.0000 0.47367  0.55781  0.38005  Biso   1.000  C
  C248     1.0000 0.52633  0.55781  0.11995  Biso   1.000  C
  H457     1.0000 0.02503  0.15130  0.63565  Biso   1.000  H
  H458     1.0000 0.97497  0.15130  0.86435  Biso   1.000  H
  H459     1.0000 0.52503  0.65130  0.63565  Biso   1.000  H
  H460     1.0000 0.47497  0.65130  0.86435  Biso   1.000  H
  H461     1.0000 0.97497  0.84870  0.36435  Biso   1.000  H
  H462     1.0000 0.02503  0.84870  0.13565  Biso   1.000  H
  H463     1.0000 0.47497  0.34870  0.36435  Biso   1.000  H
  H464     1.0000 0.52503  0.34870  0.13565  Biso   1.000  H
  H465     1.0000 0.03074  0.91792  0.55701  Biso   1.000  H
  H466     1.0000 0.96926  0.91792  0.94299  Biso   1.000  H
  H467     1.0000 0.53074  0.41792  0.55701  Biso   1.000  H
  H468     1.0000 0.46926  0.41792  0.94299  Biso   1.000  H
  H469     1.0000 0.96926  0.08208  0.44299  Biso   1.000  H
  H470     1.0000 0.03074  0.08208  0.05701  Biso   1.000  H
  H471     1.0000 0.46926  0.58208  0.44299  Biso   1.000  H
  H472     1.0000 0.53074  0.58208  0.05701  Biso   1.000  H
  C249     1.0000 0.01028  0.80400  0.62328  Biso   1.000  C
  C250     1.0000 0.98972  0.80400  0.87672  Biso   1.000  C
  C251     1.0000 0.51028  0.30400  0.62328  Biso   1.000  C
  C252     1.0000 0.48972  0.30400  0.87672  Biso   1.000  C
  C253     1.0000 0.98972  0.19600  0.37672  Biso   1.000  C
  C254     1.0000 0.01028  0.19600  0.12328  Biso   1.000  C
  C255     1.0000 0.48972  0.69600  0.37672  Biso   1.000  C
  C256     1.0000 0.51028  0.69600  0.12328  Biso   1.000  C
  H473     1.0000 0.01173  0.59358  0.60984  Biso   1.000  H
  H474     1.0000 0.98827  0.59358  0.89016  Biso   1.000  H
  H475     1.0000 0.51173  0.09358  0.60984  Biso   1.000  H
  H476     1.0000 0.48827  0.09358  0.89016  Biso   1.000  H
  H477     1.0000 0.98827  0.40642  0.39016  Biso   1.000  H
  H478     1.0000 0.01173  0.40642  0.10984  Biso   1.000  H
  H479     1.0000 0.48827  0.90642  0.39016  Biso   1.000  H
  H480     1.0000 0.51173  0.90642  0.10984  Biso   1.000  H
  H481     1.0000 0.00521  0.83384  0.68454  Biso   1.000  H
  H482     1.0000 0.99479  0.83384  0.81546  Biso   1.000  H
  H483     1.0000 0.50521  0.33384  0.68454  Biso   1.000  H
  H484     1.0000 0.49479  0.33384  0.81546  Biso   1.000  H
  H485     1.0000 0.99479  0.16616  0.31546  Biso   1.000  H
  H486     1.0000 0.00521  0.16616  0.18454  Biso   1.000  H
  H487     1.0000 0.49479  0.66616  0.31546  Biso   1.000  H
  H488     1.0000 0.50521  0.66616  0.18454  Biso   1.000  H
  H489     1.0000 0.00226  0.89310  0.57748  Biso   1.000  H
  H490     1.0000 0.99774  0.89310  0.92252  Biso   1.000  H
  H491     1.0000 0.50226  0.39310  0.57748  Biso   1.000  H
  H492     1.0000 0.49774  0.39310  0.92252  Biso   1.000  H
  H493     1.0000 0.99774  0.10690  0.42252  Biso   1.000  H
  H494     1.0000 0.00226  0.10690  0.07748  Biso   1.000  H
  H495     1.0000 0.49774  0.60690  0.42252  Biso   1.000  H
  H496     1.0000 0.50226  0.60690  0.07748  Biso   1.000  H
