data_image0
_cell_length_a       15.1193
_cell_length_b       21.965
_cell_length_c       24.3216
_cell_angle_alpha    90
_cell_angle_beta     90
_cell_angle_gamma    90

_symmetry_space_group_name_H-M    "P 1"
_symmetry_int_tables_number       1

loop_
  _symmetry_equiv_pos_as_xyz
  'x, y, z'

loop_
  _atom_site_label
  _atom_site_occupancy
  _atom_site_fract_x
  _atom_site_fract_y
  _atom_site_fract_z
  _atom_site_thermal_displace_type
  _atom_site_B_iso_or_equiv
  _atom_site_type_symbol
  Cu1      1.0000 0.32873  0.04059  0.16655  Biso   1.000  Cu
  Cu2      1.0000 0.67127  0.45941  0.66655  Biso   1.000  Cu
  Cu3      1.0000 0.82873  0.95941  0.33345  Biso   1.000  Cu
  Cu4      1.0000 0.17127  0.54059  0.83345  Biso   1.000  Cu
  Cu5      1.0000 0.67127  0.95941  0.83345  Biso   1.000  Cu
  Cu6      1.0000 0.32873  0.54059  0.33345  Biso   1.000  Cu
  Cu7      1.0000 0.17127  0.04059  0.66655  Biso   1.000  Cu
  Cu8      1.0000 0.82873  0.45941  0.16655  Biso   1.000  Cu
  Cu9      1.0000 0.19533  0.92915  0.87352  Biso   1.000  Cu
  Cu10     1.0000 0.80467  0.57085  0.37352  Biso   1.000  Cu
  Cu11     1.0000 0.69533  0.07085  0.62648  Biso   1.000  Cu
  Cu12     1.0000 0.30467  0.42915  0.12648  Biso   1.000  Cu
  Cu13     1.0000 0.80467  0.07085  0.12648  Biso   1.000  Cu
  Cu14     1.0000 0.19533  0.42915  0.62648  Biso   1.000  Cu
  Cu15     1.0000 0.30467  0.92915  0.37352  Biso   1.000  Cu
  Cu16     1.0000 0.69533  0.57085  0.87352  Biso   1.000  Cu
  C1       1.0000 0.16140  0.10851  0.04529  Biso   1.000  C
  C2       1.0000 0.83860  0.39149  0.54529  Biso   1.000  C
  C3       1.0000 0.66140  0.89149  0.45471  Biso   1.000  C
  C4       1.0000 0.33860  0.60851  0.95471  Biso   1.000  C
  C5       1.0000 0.83860  0.89149  0.95471  Biso   1.000  C
  C6       1.0000 0.16140  0.60851  0.45471  Biso   1.000  C
  C7       1.0000 0.33860  0.10851  0.54529  Biso   1.000  C
  C8       1.0000 0.66140  0.39149  0.04529  Biso   1.000  C
  C9       1.0000 0.11230  0.07465  0.96463  Biso   1.000  C
  C10      1.0000 0.88770  0.42535  0.46463  Biso   1.000  C
  C11      1.0000 0.61230  0.92535  0.53537  Biso   1.000  C
  C12      1.0000 0.38770  0.57465  0.03537  Biso   1.000  C
  C13      1.0000 0.88770  0.92535  0.03537  Biso   1.000  C
  C14      1.0000 0.11230  0.57465  0.53537  Biso   1.000  C
  C15      1.0000 0.38770  0.07465  0.46463  Biso   1.000  C
  C16      1.0000 0.61230  0.42535  0.96463  Biso   1.000  C
  C17      1.0000 0.01750  0.10913  0.02644  Biso   1.000  C
  C18      1.0000 0.98250  0.39087  0.52644  Biso   1.000  C
  C19      1.0000 0.51750  0.89087  0.47356  Biso   1.000  C
  C20      1.0000 0.48250  0.60913  0.97356  Biso   1.000  C
  C21      1.0000 0.98250  0.89087  0.97356  Biso   1.000  C
  C22      1.0000 0.01750  0.60913  0.47356  Biso   1.000  C
  C23      1.0000 0.48250  0.10913  0.52644  Biso   1.000  C
  C24      1.0000 0.51750  0.39087  0.02644  Biso   1.000  C
  C25      1.0000 0.21560  0.14408  0.13485  Biso   1.000  C
  C26      1.0000 0.78440  0.35592  0.63485  Biso   1.000  C
  C27      1.0000 0.71560  0.85592  0.36515  Biso   1.000  C
  C28      1.0000 0.28440  0.64408  0.86515  Biso   1.000  C
  C29      1.0000 0.78440  0.85592  0.86515  Biso   1.000  C
  C30      1.0000 0.21560  0.64408  0.36515  Biso   1.000  C
  C31      1.0000 0.28440  0.14408  0.63485  Biso   1.000  C
  C32      1.0000 0.71560  0.35592  0.13485  Biso   1.000  C
  C33      1.0000 0.16500  0.19560  0.14235  Biso   1.000  C
  C34      1.0000 0.83500  0.30440  0.64235  Biso   1.000  C
  C35      1.0000 0.66500  0.80440  0.35765  Biso   1.000  C
  C36      1.0000 0.33500  0.69560  0.85765  Biso   1.000  C
  C37      1.0000 0.83500  0.80440  0.85765  Biso   1.000  C
  C38      1.0000 0.16500  0.69560  0.35765  Biso   1.000  C
  C39      1.0000 0.33500  0.19560  0.64235  Biso   1.000  C
  C40      1.0000 0.66500  0.30440  0.14235  Biso   1.000  C
  H1       1.0000 0.13940  0.21550  0.11260  Biso   1.000  H
  H2       1.0000 0.86060  0.28450  0.61260  Biso   1.000  H
  H3       1.0000 0.63940  0.78450  0.38740  Biso   1.000  H
  H4       1.0000 0.36060  0.71550  0.88740  Biso   1.000  H
  H5       1.0000 0.86060  0.78450  0.88740  Biso   1.000  H
  H6       1.0000 0.13940  0.71550  0.38740  Biso   1.000  H
  H7       1.0000 0.36060  0.21550  0.61260  Biso   1.000  H
  H8       1.0000 0.63940  0.28450  0.11260  Biso   1.000  H
  C41      1.0000 0.15320  0.21710  0.19570  Biso   1.000  C
  C42      1.0000 0.84680  0.28290  0.69570  Biso   1.000  C
  C43      1.0000 0.65320  0.78290  0.30430  Biso   1.000  C
  C44      1.0000 0.34680  0.71710  0.80430  Biso   1.000  C
  C45      1.0000 0.84680  0.78290  0.80430  Biso   1.000  C
  C46      1.0000 0.15320  0.71710  0.30430  Biso   1.000  C
  C47      1.0000 0.34680  0.21710  0.69570  Biso   1.000  C
  C48      1.0000 0.65320  0.28290  0.19570  Biso   1.000  C
  H9       1.0000 0.11880  0.25140  0.20240  Biso   1.000  H
  H10      1.0000 0.88120  0.24860  0.70240  Biso   1.000  H
  H11      1.0000 0.61880  0.74860  0.29760  Biso   1.000  H
  H12      1.0000 0.38120  0.75140  0.79760  Biso   1.000  H
  H13      1.0000 0.88120  0.74860  0.79760  Biso   1.000  H
  H14      1.0000 0.11880  0.75140  0.29760  Biso   1.000  H
  H15      1.0000 0.38120  0.25140  0.70240  Biso   1.000  H
  H16      1.0000 0.61880  0.24860  0.20240  Biso   1.000  H
  C49      1.0000 0.19360  0.18670  0.23845  Biso   1.000  C
  C50      1.0000 0.80640  0.31330  0.73845  Biso   1.000  C
  C51      1.0000 0.69360  0.81330  0.26155  Biso   1.000  C
  C52      1.0000 0.30640  0.68670  0.76155  Biso   1.000  C
  C53      1.0000 0.80640  0.81330  0.76155  Biso   1.000  C
  C54      1.0000 0.19360  0.68670  0.26155  Biso   1.000  C
  C55      1.0000 0.30640  0.18670  0.73845  Biso   1.000  C
  C56      1.0000 0.69360  0.31330  0.23845  Biso   1.000  C
  H17      1.0000 0.18670  0.20050  0.27430  Biso   1.000  H
  H18      1.0000 0.81330  0.29950  0.77430  Biso   1.000  H
  H19      1.0000 0.68670  0.79950  0.22570  Biso   1.000  H
  H20      1.0000 0.31330  0.70050  0.72570  Biso   1.000  H
  H21      1.0000 0.81330  0.79950  0.72570  Biso   1.000  H
  H22      1.0000 0.18670  0.70050  0.22570  Biso   1.000  H
  H23      1.0000 0.31330  0.20050  0.77430  Biso   1.000  H
  H24      1.0000 0.68670  0.29950  0.27430  Biso   1.000  H
  C57      1.0000 0.24360  0.13630  0.22809  Biso   1.000  C
  C58      1.0000 0.75640  0.36370  0.72809  Biso   1.000  C
  C59      1.0000 0.74360  0.86370  0.27191  Biso   1.000  C
  C60      1.0000 0.25640  0.63630  0.77191  Biso   1.000  C
  C61      1.0000 0.75640  0.86370  0.77191  Biso   1.000  C
  C62      1.0000 0.24360  0.63630  0.27191  Biso   1.000  C
  C63      1.0000 0.25640  0.13630  0.72809  Biso   1.000  C
  C64      1.0000 0.74360  0.36370  0.22809  Biso   1.000  C
  H25      1.0000 0.27100  0.11660  0.25730  Biso   1.000  H
  H26      1.0000 0.72900  0.38340  0.75730  Biso   1.000  H
  H27      1.0000 0.77100  0.88340  0.24270  Biso   1.000  H
  H28      1.0000 0.22900  0.61660  0.74270  Biso   1.000  H
  H29      1.0000 0.72900  0.88340  0.74270  Biso   1.000  H
  H30      1.0000 0.27100  0.61660  0.24270  Biso   1.000  H
  H31      1.0000 0.22900  0.11660  0.75730  Biso   1.000  H
  H32      1.0000 0.77100  0.38340  0.25730  Biso   1.000  H
  C65      1.0000 0.31910  0.10944  0.06321  Biso   1.000  C
  C66      1.0000 0.68090  0.39056  0.56321  Biso   1.000  C
  C67      1.0000 0.81910  0.89056  0.43679  Biso   1.000  C
  C68      1.0000 0.18090  0.60944  0.93679  Biso   1.000  C
  C69      1.0000 0.68090  0.89056  0.93679  Biso   1.000  C
  C70      1.0000 0.31910  0.60944  0.43679  Biso   1.000  C
  C71      1.0000 0.18090  0.10944  0.56321  Biso   1.000  C
  C72      1.0000 0.81910  0.39056  0.06321  Biso   1.000  C
  C73      1.0000 0.35180  0.14000  0.01818  Biso   1.000  C
  C74      1.0000 0.64820  0.36000  0.51818  Biso   1.000  C
  C75      1.0000 0.85180  0.86000  0.48182  Biso   1.000  C
  C76      1.0000 0.14820  0.64000  0.98182  Biso   1.000  C
  C77      1.0000 0.64820  0.86000  0.98182  Biso   1.000  C
  C78      1.0000 0.35180  0.64000  0.48182  Biso   1.000  C
  C79      1.0000 0.14820  0.14000  0.51818  Biso   1.000  C
  C80      1.0000 0.85180  0.36000  0.01818  Biso   1.000  C
  H33      1.0000 0.31690  0.16800  0.99940  Biso   1.000  H
  H34      1.0000 0.68310  0.33200  0.49940  Biso   1.000  H
  H35      1.0000 0.81690  0.83200  0.50060  Biso   1.000  H
  H36      1.0000 0.18310  0.66800  0.00060  Biso   1.000  H
  H37      1.0000 0.68310  0.83200  0.00060  Biso   1.000  H
  H38      1.0000 0.31690  0.66800  0.50060  Biso   1.000  H
  H39      1.0000 0.18310  0.16800  0.49940  Biso   1.000  H
  H40      1.0000 0.81690  0.33200  0.99940  Biso   1.000  H
  C81      1.0000 0.43690  0.12830  0.00141  Biso   1.000  C
  C82      1.0000 0.56310  0.37170  0.50141  Biso   1.000  C
  C83      1.0000 0.93690  0.87170  0.49859  Biso   1.000  C
  C84      1.0000 0.06310  0.62830  0.99859  Biso   1.000  C
  C85      1.0000 0.56310  0.87170  0.99859  Biso   1.000  C
  C86      1.0000 0.43690  0.62830  0.49859  Biso   1.000  C
  C87      1.0000 0.06310  0.12830  0.50141  Biso   1.000  C
  C88      1.0000 0.93690  0.37170  0.00141  Biso   1.000  C
  H41      1.0000 0.46060  0.14820  0.97100  Biso   1.000  H
  H42      1.0000 0.53940  0.35180  0.47100  Biso   1.000  H
  H43      1.0000 0.96060  0.85180  0.52900  Biso   1.000  H
  H44      1.0000 0.03940  0.64820  0.02900  Biso   1.000  H
  H45      1.0000 0.53940  0.85180  0.02900  Biso   1.000  H
  H46      1.0000 0.46060  0.64820  0.52900  Biso   1.000  H
  H47      1.0000 0.03940  0.14820  0.47100  Biso   1.000  H
  H48      1.0000 0.96060  0.35180  0.97100  Biso   1.000  H
  C89      1.0000 0.48670  0.08640  0.03070  Biso   1.000  C
  C90      1.0000 0.51330  0.41360  0.53070  Biso   1.000  C
  C91      1.0000 0.98670  0.91360  0.46930  Biso   1.000  C
  C92      1.0000 0.01330  0.58640  0.96930  Biso   1.000  C
  C93      1.0000 0.51330  0.91360  0.96930  Biso   1.000  C
  C94      1.0000 0.48670  0.58640  0.46930  Biso   1.000  C
  C95      1.0000 0.01330  0.08640  0.53070  Biso   1.000  C
  C96      1.0000 0.98670  0.41360  0.03070  Biso   1.000  C
  H49      1.0000 0.54400  0.07710  0.01960  Biso   1.000  H
  H50      1.0000 0.45600  0.42290  0.51960  Biso   1.000  H
  H51      1.0000 0.04400  0.92290  0.48040  Biso   1.000  H
  H52      1.0000 0.95600  0.57710  0.98040  Biso   1.000  H
  H53      1.0000 0.45600  0.92290  0.98040  Biso   1.000  H
  H54      1.0000 0.54400  0.57710  0.48040  Biso   1.000  H
  H55      1.0000 0.95600  0.07710  0.51960  Biso   1.000  H
  H56      1.0000 0.04400  0.42290  0.01960  Biso   1.000  H
  C97      1.0000 0.45110  0.05890  0.07585  Biso   1.000  C
  C98      1.0000 0.54890  0.44110  0.57585  Biso   1.000  C
  C99      1.0000 0.95110  0.94110  0.42415  Biso   1.000  C
  C100     1.0000 0.04890  0.55890  0.92415  Biso   1.000  C
  C101     1.0000 0.54890  0.94110  0.92415  Biso   1.000  C
  C102     1.0000 0.45110  0.55890  0.42415  Biso   1.000  C
  C103     1.0000 0.04890  0.05890  0.57585  Biso   1.000  C
  C104     1.0000 0.95110  0.44110  0.07585  Biso   1.000  C
  H57      1.0000 0.48540  0.03130  0.09550  Biso   1.000  H
  H58      1.0000 0.51460  0.46870  0.59550  Biso   1.000  H
  H59      1.0000 0.98540  0.96870  0.40450  Biso   1.000  H
  H60      1.0000 0.01460  0.53130  0.90450  Biso   1.000  H
  H61      1.0000 0.51460  0.96870  0.90450  Biso   1.000  H
  H62      1.0000 0.48540  0.53130  0.40450  Biso   1.000  H
  H63      1.0000 0.01460  0.03130  0.59550  Biso   1.000  H
  H64      1.0000 0.98540  0.46870  0.09550  Biso   1.000  H
  C105     1.0000 0.06430  0.03005  0.87655  Biso   1.000  C
  C106     1.0000 0.93570  0.46995  0.37655  Biso   1.000  C
  C107     1.0000 0.56430  0.96995  0.62345  Biso   1.000  C
  C108     1.0000 0.43570  0.53005  0.12345  Biso   1.000  C
  C109     1.0000 0.93570  0.96995  0.12345  Biso   1.000  C
  C110     1.0000 0.06430  0.53005  0.62345  Biso   1.000  C
  C111     1.0000 0.43570  0.03005  0.37655  Biso   1.000  C
  C112     1.0000 0.56430  0.46995  0.87655  Biso   1.000  C
  C113     1.0000 0.99210  0.06530  0.86194  Biso   1.000  C
  C114     1.0000 0.00790  0.43470  0.36194  Biso   1.000  C
  C115     1.0000 0.49210  0.93470  0.63806  Biso   1.000  C
  C116     1.0000 0.50790  0.56530  0.13806  Biso   1.000  C
  C117     1.0000 0.00790  0.93470  0.13806  Biso   1.000  C
  C118     1.0000 0.99210  0.56530  0.63806  Biso   1.000  C
  C119     1.0000 0.50790  0.06530  0.36194  Biso   1.000  C
  C120     1.0000 0.49210  0.43470  0.86194  Biso   1.000  C
  H65      1.0000 0.98580  0.10490  0.87500  Biso   1.000  H
  H66      1.0000 0.01420  0.39510  0.37500  Biso   1.000  H
  H67      1.0000 0.48580  0.89510  0.62500  Biso   1.000  H
  H68      1.0000 0.51420  0.60490  0.12500  Biso   1.000  H
  H69      1.0000 0.01420  0.89510  0.12500  Biso   1.000  H
  H70      1.0000 0.98580  0.60490  0.62500  Biso   1.000  H
  H71      1.0000 0.51420  0.10490  0.37500  Biso   1.000  H
  H72      1.0000 0.48580  0.39510  0.87500  Biso   1.000  H
  C121     1.0000 0.92940  0.03960  0.82716  Biso   1.000  C
  C122     1.0000 0.07060  0.46040  0.32716  Biso   1.000  C
  C123     1.0000 0.42940  0.96040  0.67284  Biso   1.000  C
  C124     1.0000 0.57060  0.53960  0.17284  Biso   1.000  C
  C125     1.0000 0.07060  0.96040  0.17284  Biso   1.000  C
  C126     1.0000 0.92940  0.53960  0.67284  Biso   1.000  C
  C127     1.0000 0.57060  0.03960  0.32716  Biso   1.000  C
  C128     1.0000 0.42940  0.46040  0.82716  Biso   1.000  C
  H73      1.0000 0.87920  0.06160  0.81720  Biso   1.000  H
  H74      1.0000 0.12080  0.43840  0.31720  Biso   1.000  H
  H75      1.0000 0.37920  0.93840  0.68280  Biso   1.000  H
  H76      1.0000 0.62080  0.56160  0.18280  Biso   1.000  H
  H77      1.0000 0.12080  0.93840  0.18280  Biso   1.000  H
  H78      1.0000 0.87920  0.56160  0.68280  Biso   1.000  H
  H79      1.0000 0.62080  0.06160  0.31720  Biso   1.000  H
  H80      1.0000 0.37920  0.43840  0.81720  Biso   1.000  H
  C129     1.0000 0.94190  0.98190  0.80763  Biso   1.000  C
  C130     1.0000 0.05810  0.51810  0.30763  Biso   1.000  C
  C131     1.0000 0.44190  0.01810  0.69237  Biso   1.000  C
  C132     1.0000 0.55810  0.48190  0.19237  Biso   1.000  C
  C133     1.0000 0.05810  0.01810  0.19237  Biso   1.000  C
  C134     1.0000 0.94190  0.48190  0.69237  Biso   1.000  C
  C135     1.0000 0.55810  0.98190  0.30763  Biso   1.000  C
  C136     1.0000 0.44190  0.51810  0.80763  Biso   1.000  C
  H81      1.0000 0.90020  0.96410  0.78450  Biso   1.000  H
  H82      1.0000 0.09980  0.53590  0.28450  Biso   1.000  H
  H83      1.0000 0.40020  0.03590  0.71550  Biso   1.000  H
  H84      1.0000 0.59980  0.46410  0.21550  Biso   1.000  H
  H85      1.0000 0.09980  0.03590  0.21550  Biso   1.000  H
  H86      1.0000 0.90020  0.46410  0.71550  Biso   1.000  H
  H87      1.0000 0.59980  0.96410  0.28450  Biso   1.000  H
  H88      1.0000 0.40020  0.53590  0.78450  Biso   1.000  H
  C137     1.0000 0.01690  0.95050  0.82261  Biso   1.000  C
  C138     1.0000 0.98310  0.54950  0.32261  Biso   1.000  C
  C139     1.0000 0.51690  0.04950  0.67739  Biso   1.000  C
  C140     1.0000 0.48310  0.45050  0.17739  Biso   1.000  C
  C141     1.0000 0.98310  0.04950  0.17739  Biso   1.000  C
  C142     1.0000 0.01690  0.45050  0.67739  Biso   1.000  C
  C143     1.0000 0.48310  0.95050  0.32261  Biso   1.000  C
  C144     1.0000 0.51690  0.54950  0.82261  Biso   1.000  C
  H89      1.0000 0.02580  0.91170  0.80830  Biso   1.000  H
  H90      1.0000 0.97420  0.58830  0.30830  Biso   1.000  H
  H91      1.0000 0.52580  0.08830  0.69170  Biso   1.000  H
  H92      1.0000 0.47420  0.41170  0.19170  Biso   1.000  H
  H93      1.0000 0.97420  0.08830  0.19170  Biso   1.000  H
  H94      1.0000 0.02580  0.41170  0.69170  Biso   1.000  H
  H95      1.0000 0.47420  0.91170  0.30830  Biso   1.000  H
  H96      1.0000 0.52580  0.58830  0.80830  Biso   1.000  H
  C145     1.0000 0.21790  0.05981  0.89048  Biso   1.000  C
  C146     1.0000 0.78210  0.44019  0.39048  Biso   1.000  C
  C147     1.0000 0.71790  0.94019  0.60952  Biso   1.000  C
  C148     1.0000 0.28210  0.55981  0.10952  Biso   1.000  C
  C149     1.0000 0.78210  0.94019  0.10952  Biso   1.000  C
  C150     1.0000 0.21790  0.55981  0.60952  Biso   1.000  C
  C151     1.0000 0.28210  0.05981  0.39048  Biso   1.000  C
  C152     1.0000 0.71790  0.44019  0.89048  Biso   1.000  C
  C153     1.0000 0.25810  0.11630  0.88978  Biso   1.000  C
  C154     1.0000 0.74190  0.38370  0.38978  Biso   1.000  C
  C155     1.0000 0.75810  0.88370  0.61022  Biso   1.000  C
  C156     1.0000 0.24190  0.61630  0.11022  Biso   1.000  C
  C157     1.0000 0.74190  0.88370  0.11022  Biso   1.000  C
  C158     1.0000 0.25810  0.61630  0.61022  Biso   1.000  C
  C159     1.0000 0.24190  0.11630  0.38978  Biso   1.000  C
  C160     1.0000 0.75810  0.38370  0.88978  Biso   1.000  C
  H97      1.0000 0.22890  0.15050  0.90320  Biso   1.000  H
  H98      1.0000 0.77110  0.34950  0.40320  Biso   1.000  H
  H99      1.0000 0.72890  0.84950  0.59680  Biso   1.000  H
  H100     1.0000 0.27110  0.65050  0.09680  Biso   1.000  H
  H101     1.0000 0.77110  0.84950  0.09680  Biso   1.000  H
  H102     1.0000 0.22890  0.65050  0.59680  Biso   1.000  H
  H103     1.0000 0.27110  0.15050  0.40320  Biso   1.000  H
  H104     1.0000 0.72890  0.34950  0.90320  Biso   1.000  H
  C161     1.0000 0.34230  0.12110  0.86886  Biso   1.000  C
  C162     1.0000 0.65770  0.37890  0.36886  Biso   1.000  C
  C163     1.0000 0.84230  0.87890  0.63114  Biso   1.000  C
  C164     1.0000 0.15770  0.62110  0.13114  Biso   1.000  C
  C165     1.0000 0.65770  0.87890  0.13114  Biso   1.000  C
  C166     1.0000 0.34230  0.62110  0.63114  Biso   1.000  C
  C167     1.0000 0.15770  0.12110  0.36886  Biso   1.000  C
  C168     1.0000 0.84230  0.37890  0.86886  Biso   1.000  C
  H105     1.0000 0.37190  0.15820  0.86960  Biso   1.000  H
  H106     1.0000 0.62810  0.34180  0.36960  Biso   1.000  H
  H107     1.0000 0.87190  0.84180  0.63040  Biso   1.000  H
  H108     1.0000 0.12810  0.65820  0.13040  Biso   1.000  H
  H109     1.0000 0.62810  0.84180  0.13040  Biso   1.000  H
  H110     1.0000 0.37190  0.65820  0.63040  Biso   1.000  H
  H111     1.0000 0.12810  0.15820  0.36960  Biso   1.000  H
  H112     1.0000 0.87190  0.34180  0.86960  Biso   1.000  H
  C169     1.0000 0.38280  0.07000  0.84665  Biso   1.000  C
  C170     1.0000 0.61720  0.43000  0.34665  Biso   1.000  C
  C171     1.0000 0.88280  0.93000  0.65335  Biso   1.000  C
  C172     1.0000 0.11720  0.57000  0.15335  Biso   1.000  C
  C173     1.0000 0.61720  0.93000  0.15335  Biso   1.000  C
  C174     1.0000 0.38280  0.57000  0.65335  Biso   1.000  C
  C175     1.0000 0.11720  0.07000  0.34665  Biso   1.000  C
  C176     1.0000 0.88280  0.43000  0.84665  Biso   1.000  C
  H113     1.0000 0.43950  0.07250  0.83190  Biso   1.000  H
  H114     1.0000 0.56050  0.42750  0.33190  Biso   1.000  H
  H115     1.0000 0.93950  0.92750  0.66810  Biso   1.000  H
  H116     1.0000 0.06050  0.57250  0.16810  Biso   1.000  H
  H117     1.0000 0.56050  0.92750  0.16810  Biso   1.000  H
  H118     1.0000 0.43950  0.57250  0.66810  Biso   1.000  H
  H119     1.0000 0.06050  0.07250  0.33190  Biso   1.000  H
  H120     1.0000 0.93950  0.42750  0.83190  Biso   1.000  H
  C177     1.0000 0.33800  0.01600  0.84678  Biso   1.000  C
  C178     1.0000 0.66200  0.48400  0.34678  Biso   1.000  C
  C179     1.0000 0.83800  0.98400  0.65322  Biso   1.000  C
  C180     1.0000 0.16200  0.51600  0.15322  Biso   1.000  C
  C181     1.0000 0.66200  0.98400  0.15322  Biso   1.000  C
  C182     1.0000 0.33800  0.51600  0.65322  Biso   1.000  C
  C183     1.0000 0.16200  0.01600  0.34678  Biso   1.000  C
  C184     1.0000 0.83800  0.48400  0.84678  Biso   1.000  C
  H121     1.0000 0.36420  0.98210  0.83070  Biso   1.000  H
  H122     1.0000 0.63580  0.51790  0.33070  Biso   1.000  H
  H123     1.0000 0.86420  0.01790  0.66930  Biso   1.000  H
  H124     1.0000 0.13580  0.48210  0.16930  Biso   1.000  H
  H125     1.0000 0.63580  0.01790  0.16930  Biso   1.000  H
  H126     1.0000 0.36420  0.48210  0.66930  Biso   1.000  H
  H127     1.0000 0.13580  0.98210  0.33070  Biso   1.000  H
  H128     1.0000 0.86420  0.51790  0.83070  Biso   1.000  H
  C185     1.0000 0.85760  0.10810  0.00858  Biso   1.000  C
  C186     1.0000 0.14240  0.39190  0.50858  Biso   1.000  C
  C187     1.0000 0.35760  0.89190  0.49142  Biso   1.000  C
  C188     1.0000 0.64240  0.60810  0.99142  Biso   1.000  C
  C189     1.0000 0.14240  0.89190  0.99142  Biso   1.000  C
  C190     1.0000 0.85760  0.60810  0.49142  Biso   1.000  C
  C191     1.0000 0.64240  0.10810  0.50858  Biso   1.000  C
  C192     1.0000 0.35760  0.39190  0.00858  Biso   1.000  C
  C193     1.0000 0.84580  0.13230  0.95651  Biso   1.000  C
  C194     1.0000 0.15420  0.36770  0.45651  Biso   1.000  C
  C195     1.0000 0.34580  0.86770  0.54349  Biso   1.000  C
  C196     1.0000 0.65420  0.63230  0.04349  Biso   1.000  C
  C197     1.0000 0.15420  0.86770  0.04349  Biso   1.000  C
  C198     1.0000 0.84580  0.63230  0.54349  Biso   1.000  C
  C199     1.0000 0.65420  0.13230  0.45651  Biso   1.000  C
  C200     1.0000 0.34580  0.36770  0.95651  Biso   1.000  C
  H129     1.0000 0.88660  0.15910  0.94130  Biso   1.000  H
  H130     1.0000 0.11340  0.34090  0.44130  Biso   1.000  H
  H131     1.0000 0.38660  0.84090  0.55870  Biso   1.000  H
  H132     1.0000 0.61340  0.65910  0.05870  Biso   1.000  H
  H133     1.0000 0.11340  0.84090  0.05870  Biso   1.000  H
  H134     1.0000 0.88660  0.65910  0.55870  Biso   1.000  H
  H135     1.0000 0.61340  0.15910  0.44130  Biso   1.000  H
  H136     1.0000 0.38660  0.34090  0.94130  Biso   1.000  H
  C201     1.0000 0.77080  0.11470  0.92820  Biso   1.000  C
  C202     1.0000 0.22920  0.38530  0.42820  Biso   1.000  C
  C203     1.0000 0.27080  0.88530  0.57180  Biso   1.000  C
  C204     1.0000 0.72920  0.61470  0.07180  Biso   1.000  C
  C205     1.0000 0.22920  0.88530  0.07180  Biso   1.000  C
  C206     1.0000 0.77080  0.61470  0.57180  Biso   1.000  C
  C207     1.0000 0.72920  0.11470  0.42820  Biso   1.000  C
  C208     1.0000 0.27080  0.38530  0.92820  Biso   1.000  C
  H137     1.0000 0.76000  0.12990  0.89310  Biso   1.000  H
  H138     1.0000 0.24000  0.37010  0.39310  Biso   1.000  H
  H139     1.0000 0.26000  0.87010  0.60690  Biso   1.000  H
  H140     1.0000 0.74000  0.62990  0.10690  Biso   1.000  H
  H141     1.0000 0.24000  0.87010  0.10690  Biso   1.000  H
  H142     1.0000 0.76000  0.62990  0.60690  Biso   1.000  H
  H143     1.0000 0.74000  0.12990  0.39310  Biso   1.000  H
  H144     1.0000 0.26000  0.37010  0.89310  Biso   1.000  H
  C209     1.0000 0.71260  0.07520  0.95180  Biso   1.000  C
  C210     1.0000 0.28740  0.42480  0.45180  Biso   1.000  C
  C211     1.0000 0.21260  0.92480  0.54820  Biso   1.000  C
  C212     1.0000 0.78740  0.57520  0.04820  Biso   1.000  C
  C213     1.0000 0.28740  0.92480  0.04820  Biso   1.000  C
  C214     1.0000 0.71260  0.57520  0.54820  Biso   1.000  C
  C215     1.0000 0.78740  0.07520  0.45180  Biso   1.000  C
  C216     1.0000 0.21260  0.42480  0.95180  Biso   1.000  C
  H145     1.0000 0.66250  0.06260  0.93270  Biso   1.000  H
  H146     1.0000 0.33750  0.43740  0.43270  Biso   1.000  H
  H147     1.0000 0.16250  0.93740  0.56730  Biso   1.000  H
  H148     1.0000 0.83750  0.56260  0.06730  Biso   1.000  H
  H149     1.0000 0.33750  0.93740  0.06730  Biso   1.000  H
  H150     1.0000 0.66250  0.56260  0.56730  Biso   1.000  H
  H151     1.0000 0.83750  0.06260  0.43270  Biso   1.000  H
  H152     1.0000 0.16250  0.43740  0.93270  Biso   1.000  H
  C217     1.0000 0.72910  0.05360  0.00489  Biso   1.000  C
  C218     1.0000 0.27090  0.44640  0.50489  Biso   1.000  C
  C219     1.0000 0.22910  0.94640  0.49511  Biso   1.000  C
  C220     1.0000 0.77090  0.55360  0.99511  Biso   1.000  C
  C221     1.0000 0.27090  0.94640  0.99511  Biso   1.000  C
  C222     1.0000 0.72910  0.55360  0.49511  Biso   1.000  C
  C223     1.0000 0.77090  0.05360  0.50489  Biso   1.000  C
  C224     1.0000 0.22910  0.44640  0.00489  Biso   1.000  C
  H153     1.0000 0.68950  0.02660  0.02100  Biso   1.000  H
  H154     1.0000 0.31050  0.47340  0.52100  Biso   1.000  H
  H155     1.0000 0.18950  0.97340  0.47900  Biso   1.000  H
  H156     1.0000 0.81050  0.52660  0.97900  Biso   1.000  H
  H157     1.0000 0.31050  0.97340  0.97900  Biso   1.000  H
  H158     1.0000 0.68950  0.52660  0.47900  Biso   1.000  H
  H159     1.0000 0.81050  0.02660  0.52100  Biso   1.000  H
  H160     1.0000 0.18950  0.47340  0.02100  Biso   1.000  H
  C225     1.0000 0.91900  0.16891  0.08425  Biso   1.000  C
  C226     1.0000 0.08100  0.33109  0.58425  Biso   1.000  C
  C227     1.0000 0.41900  0.83109  0.41575  Biso   1.000  C
  C228     1.0000 0.58100  0.66891  0.91575  Biso   1.000  C
  C229     1.0000 0.08100  0.83109  0.91575  Biso   1.000  C
  C230     1.0000 0.91900  0.66891  0.41575  Biso   1.000  C
  C231     1.0000 0.58100  0.16891  0.58425  Biso   1.000  C
  C232     1.0000 0.41900  0.33109  0.08425  Biso   1.000  C
  C233     1.0000 0.95840  0.22500  0.08123  Biso   1.000  C
  C234     1.0000 0.04160  0.27500  0.58123  Biso   1.000  C
  C235     1.0000 0.45840  0.77500  0.41877  Biso   1.000  C
  C236     1.0000 0.54160  0.72500  0.91877  Biso   1.000  C
  C237     1.0000 0.04160  0.77500  0.91877  Biso   1.000  C
  C238     1.0000 0.95840  0.72500  0.41877  Biso   1.000  C
  C239     1.0000 0.54160  0.22500  0.58123  Biso   1.000  C
  C240     1.0000 0.45840  0.27500  0.08123  Biso   1.000  C
  H161     1.0000 0.99360  0.23520  0.05130  Biso   1.000  H
  H162     1.0000 0.00640  0.26480  0.55130  Biso   1.000  H
  H163     1.0000 0.49360  0.76480  0.44870  Biso   1.000  H
  H164     1.0000 0.50640  0.73520  0.94870  Biso   1.000  H
  H165     1.0000 0.00640  0.76480  0.94870  Biso   1.000  H
  H166     1.0000 0.99360  0.73520  0.44870  Biso   1.000  H
  H167     1.0000 0.50640  0.23520  0.55130  Biso   1.000  H
  H168     1.0000 0.49360  0.26480  0.05130  Biso   1.000  H
  C241     1.0000 0.94480  0.26630  0.12359  Biso   1.000  C
  C242     1.0000 0.05520  0.23370  0.62359  Biso   1.000  C
  C243     1.0000 0.44480  0.73370  0.37641  Biso   1.000  C
  C244     1.0000 0.55520  0.76630  0.87641  Biso   1.000  C
  C245     1.0000 0.05520  0.73370  0.87641  Biso   1.000  C
  C246     1.0000 0.94480  0.76630  0.37641  Biso   1.000  C
  C247     1.0000 0.55520  0.26630  0.62359  Biso   1.000  C
  C248     1.0000 0.44480  0.23370  0.12359  Biso   1.000  C
  H169     1.0000 0.97160  0.30440  0.12300  Biso   1.000  H
  H170     1.0000 0.02840  0.19560  0.62300  Biso   1.000  H
  H171     1.0000 0.47160  0.69560  0.37700  Biso   1.000  H
  H172     1.0000 0.52840  0.80440  0.87700  Biso   1.000  H
  H173     1.0000 0.02840  0.69560  0.87700  Biso   1.000  H
  H174     1.0000 0.97160  0.80440  0.37700  Biso   1.000  H
  H175     1.0000 0.52840  0.30440  0.62300  Biso   1.000  H
  H176     1.0000 0.47160  0.19560  0.12300  Biso   1.000  H
  C249     1.0000 0.89070  0.24940  0.16645  Biso   1.000  C
  C250     1.0000 0.10930  0.25060  0.66645  Biso   1.000  C
  C251     1.0000 0.39070  0.75060  0.33355  Biso   1.000  C
  C252     1.0000 0.60930  0.74940  0.83355  Biso   1.000  C
  C253     1.0000 0.10930  0.75060  0.83355  Biso   1.000  C
  C254     1.0000 0.89070  0.74940  0.33355  Biso   1.000  C
  C255     1.0000 0.60930  0.24940  0.66645  Biso   1.000  C
  C256     1.0000 0.39070  0.25060  0.16645  Biso   1.000  C
  H177     1.0000 0.88080  0.27590  0.19560  Biso   1.000  H
  H178     1.0000 0.11920  0.22410  0.69560  Biso   1.000  H
  H179     1.0000 0.38080  0.72410  0.30440  Biso   1.000  H
  H180     1.0000 0.61920  0.77590  0.80440  Biso   1.000  H
  H181     1.0000 0.11920  0.72410  0.80440  Biso   1.000  H
  H182     1.0000 0.88080  0.77590  0.30440  Biso   1.000  H
  H183     1.0000 0.61920  0.27590  0.69560  Biso   1.000  H
  H184     1.0000 0.38080  0.22410  0.19560  Biso   1.000  H
  C257     1.0000 0.85140  0.19301  0.16577  Biso   1.000  C
  C258     1.0000 0.14860  0.30699  0.66577  Biso   1.000  C
  C259     1.0000 0.35140  0.80699  0.33423  Biso   1.000  C
  C260     1.0000 0.64860  0.69301  0.83423  Biso   1.000  C
  C261     1.0000 0.14860  0.80699  0.83423  Biso   1.000  C
  C262     1.0000 0.85140  0.69301  0.33423  Biso   1.000  C
  C263     1.0000 0.64860  0.19301  0.66577  Biso   1.000  C
  C264     1.0000 0.35140  0.30699  0.16577  Biso   1.000  C
  H185     1.0000 0.81330  0.18260  0.19430  Biso   1.000  H
  H186     1.0000 0.18670  0.31740  0.69430  Biso   1.000  H
  H187     1.0000 0.31330  0.81740  0.30570  Biso   1.000  H
  H188     1.0000 0.68670  0.68260  0.80570  Biso   1.000  H
  H189     1.0000 0.18670  0.81740  0.80570  Biso   1.000  H
  H190     1.0000 0.81330  0.68260  0.30570  Biso   1.000  H
  H191     1.0000 0.68670  0.18260  0.69430  Biso   1.000  H
  H192     1.0000 0.31330  0.31740  0.19430  Biso   1.000  H
  C265     1.0000 0.37030  0.92620  0.19655  Biso   1.000  C
  C266     1.0000 0.62970  0.57380  0.69655  Biso   1.000  C
  C267     1.0000 0.87030  0.07380  0.30345  Biso   1.000  C
  C268     1.0000 0.12970  0.42620  0.80345  Biso   1.000  C
  C269     1.0000 0.62970  0.07380  0.80345  Biso   1.000  C
  C270     1.0000 0.37030  0.42620  0.30345  Biso   1.000  C
  C271     1.0000 0.12970  0.92620  0.69655  Biso   1.000  C
  C272     1.0000 0.87030  0.57380  0.19655  Biso   1.000  C
  C273     1.0000 0.30470  0.95100  0.24016  Biso   1.000  C
  C274     1.0000 0.69530  0.54900  0.74016  Biso   1.000  C
  C275     1.0000 0.80470  0.04900  0.25984  Biso   1.000  C
  C276     1.0000 0.19530  0.45100  0.75984  Biso   1.000  C
  C277     1.0000 0.69530  0.04900  0.75984  Biso   1.000  C
  C278     1.0000 0.30470  0.45100  0.25984  Biso   1.000  C
  C279     1.0000 0.19530  0.95100  0.74016  Biso   1.000  C
  C280     1.0000 0.80470  0.54900  0.24016  Biso   1.000  C
  N1       1.0000 0.02793  0.08284  0.97739  Biso   1.000  N
  N2       1.0000 0.97207  0.41716  0.47739  Biso   1.000  N
  N3       1.0000 0.52793  0.91716  0.52261  Biso   1.000  N
  N4       1.0000 0.47207  0.58284  0.02261  Biso   1.000  N
  N5       1.0000 0.97207  0.91716  0.02261  Biso   1.000  N
  N6       1.0000 0.02793  0.58284  0.52261  Biso   1.000  N
  N7       1.0000 0.47207  0.08284  0.47739  Biso   1.000  N
  N8       1.0000 0.52793  0.41716  0.97739  Biso   1.000  N
  N9       1.0000 0.08054  0.12207  0.06294  Biso   1.000  N
  N10      1.0000 0.91946  0.37793  0.56294  Biso   1.000  N
  N11      1.0000 0.58054  0.87793  0.43706  Biso   1.000  N
  N12      1.0000 0.41946  0.62207  0.93706  Biso   1.000  N
  N13      1.0000 0.91946  0.87793  0.93706  Biso   1.000  N
  N14      1.0000 0.08054  0.62207  0.43706  Biso   1.000  N
  N15      1.0000 0.41946  0.12207  0.56294  Biso   1.000  N
  N16      1.0000 0.58054  0.37793  0.06294  Biso   1.000  N
  N17      1.0000 0.18254  0.08498  0.99652  Biso   1.000  N
  N18      1.0000 0.81746  0.41502  0.49652  Biso   1.000  N
  N19      1.0000 0.68254  0.91502  0.50348  Biso   1.000  N
  N20      1.0000 0.31746  0.58498  0.00348  Biso   1.000  N
  N21      1.0000 0.81746  0.91502  0.00348  Biso   1.000  N
  N22      1.0000 0.18254  0.58498  0.50348  Biso   1.000  N
  N23      1.0000 0.31746  0.08498  0.49652  Biso   1.000  N
  N24      1.0000 0.68254  0.41502  0.99652  Biso   1.000  N
  N25      1.0000 0.23170  0.11884  0.08176  Biso   1.000  N
  N26      1.0000 0.76830  0.38116  0.58176  Biso   1.000  N
  N27      1.0000 0.73170  0.88116  0.41824  Biso   1.000  N
  N28      1.0000 0.26830  0.61884  0.91824  Biso   1.000  N
  N29      1.0000 0.76830  0.88116  0.91824  Biso   1.000  N
  N30      1.0000 0.23170  0.61884  0.41824  Biso   1.000  N
  N31      1.0000 0.26830  0.11884  0.58176  Biso   1.000  N
  N32      1.0000 0.73170  0.38116  0.08176  Biso   1.000  N
  N33      1.0000 0.13133  0.05282  0.91237  Biso   1.000  N
  N34      1.0000 0.86867  0.44718  0.41237  Biso   1.000  N
  N35      1.0000 0.63133  0.94718  0.58763  Biso   1.000  N
  N36      1.0000 0.36867  0.55282  0.08763  Biso   1.000  N
  N37      1.0000 0.86867  0.94718  0.08763  Biso   1.000  N
  N38      1.0000 0.13133  0.55282  0.58763  Biso   1.000  N
  N39      1.0000 0.36867  0.05282  0.41237  Biso   1.000  N
  N40      1.0000 0.63133  0.44718  0.91237  Biso   1.000  N
  N41      1.0000 0.93287  0.12525  0.04131  Biso   1.000  N
  N42      1.0000 0.06713  0.37475  0.54131  Biso   1.000  N
  N43      1.0000 0.43287  0.87475  0.45869  Biso   1.000  N
  N44      1.0000 0.56713  0.62525  0.95869  Biso   1.000  N
  N45      1.0000 0.06713  0.87475  0.95869  Biso   1.000  N
  N46      1.0000 0.93287  0.62525  0.45869  Biso   1.000  N
  N47      1.0000 0.56713  0.12525  0.54131  Biso   1.000  N
  N48      1.0000 0.43287  0.37475  0.04131  Biso   1.000  N
  N49      1.0000 0.25450  0.11415  0.17673  Biso   1.000  N
  N50      1.0000 0.74550  0.38585  0.67673  Biso   1.000  N
  N51      1.0000 0.75450  0.88585  0.32327  Biso   1.000  N
  N52      1.0000 0.24550  0.61415  0.82327  Biso   1.000  N
  N53      1.0000 0.74550  0.88585  0.82327  Biso   1.000  N
  N54      1.0000 0.25450  0.61415  0.32327  Biso   1.000  N
  N55      1.0000 0.24550  0.11415  0.67673  Biso   1.000  N
  N56      1.0000 0.75450  0.38585  0.17673  Biso   1.000  N
  N57      1.0000 0.36810  0.07026  0.09296  Biso   1.000  N
  N58      1.0000 0.63190  0.42974  0.59296  Biso   1.000  N
  N59      1.0000 0.86810  0.92974  0.40704  Biso   1.000  N
  N60      1.0000 0.13190  0.57026  0.90704  Biso   1.000  N
  N61      1.0000 0.63190  0.92974  0.90704  Biso   1.000  N
  N62      1.0000 0.36810  0.57026  0.40704  Biso   1.000  N
  N63      1.0000 0.13190  0.07026  0.59296  Biso   1.000  N
  N64      1.0000 0.86810  0.42974  0.09296  Biso   1.000  N
  N65      1.0000 0.07776  0.97354  0.85707  Biso   1.000  N
  N66      1.0000 0.92224  0.52646  0.35707  Biso   1.000  N
  N67      1.0000 0.57776  0.02646  0.64293  Biso   1.000  N
  N68      1.0000 0.42224  0.47354  0.14293  Biso   1.000  N
  N69      1.0000 0.92224  0.02646  0.14293  Biso   1.000  N
  N70      1.0000 0.07776  0.47354  0.64293  Biso   1.000  N
  N71      1.0000 0.42224  0.97354  0.35707  Biso   1.000  N
  N72      1.0000 0.57776  0.52646  0.85707  Biso   1.000  N
  N73      1.0000 0.25634  0.01025  0.86964  Biso   1.000  N
  N74      1.0000 0.74366  0.48975  0.36964  Biso   1.000  N
  N75      1.0000 0.75634  0.98975  0.63036  Biso   1.000  N
  N76      1.0000 0.24366  0.51025  0.13036  Biso   1.000  N
  N77      1.0000 0.74366  0.98975  0.13036  Biso   1.000  N
  N78      1.0000 0.25634  0.51025  0.63036  Biso   1.000  N
  N79      1.0000 0.24366  0.01025  0.36964  Biso   1.000  N
  N80      1.0000 0.75634  0.48975  0.86964  Biso   1.000  N
  N81      1.0000 0.80141  0.07118  0.03313  Biso   1.000  N
  N82      1.0000 0.19859  0.42882  0.53313  Biso   1.000  N
  N83      1.0000 0.30141  0.92882  0.46687  Biso   1.000  N
  N84      1.0000 0.69859  0.57118  0.96687  Biso   1.000  N
  N85      1.0000 0.19859  0.92882  0.96687  Biso   1.000  N
  N86      1.0000 0.80141  0.57118  0.46687  Biso   1.000  N
  N87      1.0000 0.69859  0.07118  0.53313  Biso   1.000  N
  N88      1.0000 0.30141  0.42882  0.03313  Biso   1.000  N
  N89      1.0000 0.86577  0.15204  0.12528  Biso   1.000  N
  N90      1.0000 0.13423  0.34796  0.62528  Biso   1.000  N
  N91      1.0000 0.36577  0.84796  0.37472  Biso   1.000  N
  N92      1.0000 0.63423  0.65204  0.87472  Biso   1.000  N
  N93      1.0000 0.13423  0.84796  0.87472  Biso   1.000  N
  N94      1.0000 0.86577  0.65204  0.37472  Biso   1.000  N
  N95      1.0000 0.63423  0.15204  0.62528  Biso   1.000  N
  N96      1.0000 0.36577  0.34796  0.12528  Biso   1.000  N
  N97      1.0000 0.17950  0.27190  0.01500  Biso   1.000  N
  N98      1.0000 0.82050  0.22810  0.51500  Biso   1.000  N
  N99      1.0000 0.67950  0.72810  0.48500  Biso   1.000  N
  N100     1.0000 0.32050  0.77190  0.98500  Biso   1.000  N
  N101     1.0000 0.82050  0.72810  0.98500  Biso   1.000  N
  N102     1.0000 0.17950  0.77190  0.48500  Biso   1.000  N
  N103     1.0000 0.32050  0.27190  0.51500  Biso   1.000  N
  N104     1.0000 0.67950  0.22810  0.01500  Biso   1.000  N
  N105     1.0000 0.49990  0.11950  0.22197  Biso   1.000  N
  N106     1.0000 0.50010  0.38050  0.72197  Biso   1.000  N
  N107     1.0000 0.99990  0.88050  0.27803  Biso   1.000  N
  N108     1.0000 0.00010  0.61950  0.77803  Biso   1.000  N
  N109     1.0000 0.50010  0.88050  0.77803  Biso   1.000  N
  N110     1.0000 0.49990  0.61950  0.27803  Biso   1.000  N
  N111     1.0000 0.00010  0.11950  0.72197  Biso   1.000  N
  N112     1.0000 0.99990  0.38050  0.22197  Biso   1.000  N
  O1       1.0000 0.38810  0.96294  0.15782  Biso   1.000  O
  O2       1.0000 0.61190  0.53706  0.65782  Biso   1.000  O
  O3       1.0000 0.88810  0.03706  0.34218  Biso   1.000  O
  O4       1.0000 0.11190  0.46294  0.84218  Biso   1.000  O
  O5       1.0000 0.61190  0.03706  0.84218  Biso   1.000  O
  O6       1.0000 0.38810  0.46294  0.34218  Biso   1.000  O
  O7       1.0000 0.11190  0.96294  0.65782  Biso   1.000  O
  O8       1.0000 0.88810  0.53706  0.15782  Biso   1.000  O
  O9       1.0000 0.27860  0.00449  0.23206  Biso   1.000  O
  O10      1.0000 0.72140  0.49551  0.73206  Biso   1.000  O
  O11      1.0000 0.77860  0.99551  0.26794  Biso   1.000  O
  O12      1.0000 0.22140  0.50449  0.76794  Biso   1.000  O
  O13      1.0000 0.72140  0.99551  0.76794  Biso   1.000  O
  O14      1.0000 0.27860  0.50449  0.26794  Biso   1.000  O
  O15      1.0000 0.22140  0.00449  0.73206  Biso   1.000  O
  O16      1.0000 0.77860  0.49551  0.23206  Biso   1.000  O
  O17      1.0000 0.40200  0.87570  0.20170  Biso   1.000  O
  O18      1.0000 0.59800  0.62430  0.70170  Biso   1.000  O
  O19      1.0000 0.90200  0.12430  0.29830  Biso   1.000  O
  O20      1.0000 0.09800  0.37570  0.79830  Biso   1.000  O
  O21      1.0000 0.59800  0.12430  0.79830  Biso   1.000  O
  O22      1.0000 0.40200  0.37570  0.29830  Biso   1.000  O
  O23      1.0000 0.09800  0.87570  0.70170  Biso   1.000  O
  O24      1.0000 0.90200  0.62430  0.20170  Biso   1.000  O
  O25      1.0000 0.28190  0.91867  0.27900  Biso   1.000  O
  O26      1.0000 0.71810  0.58133  0.77900  Biso   1.000  O
  O27      1.0000 0.78190  0.08133  0.22100  Biso   1.000  O
  O28      1.0000 0.21810  0.41867  0.72100  Biso   1.000  O
  O29      1.0000 0.71810  0.08133  0.72100  Biso   1.000  O
  O30      1.0000 0.28190  0.41867  0.22100  Biso   1.000  O
  O31      1.0000 0.21810  0.91867  0.77900  Biso   1.000  O
  O32      1.0000 0.78190  0.58133  0.27900  Biso   1.000  O
  O33      1.0000 0.16440  0.23830  0.97610  Biso   1.000  O
  O34      1.0000 0.83560  0.26170  0.47610  Biso   1.000  O
  O35      1.0000 0.66440  0.76170  0.52390  Biso   1.000  O
  O36      1.0000 0.33560  0.73830  0.02390  Biso   1.000  O
  O37      1.0000 0.83560  0.76170  0.02390  Biso   1.000  O
  O38      1.0000 0.16440  0.73830  0.52390  Biso   1.000  O
  O39      1.0000 0.33560  0.23830  0.47610  Biso   1.000  O
  O40      1.0000 0.66440  0.26170  0.97610  Biso   1.000  O
  O41      1.0000 0.12410  0.30480  0.03490  Biso   1.000  O
  O42      1.0000 0.87590  0.19520  0.53490  Biso   1.000  O
  O43      1.0000 0.62410  0.69520  0.46510  Biso   1.000  O
  O44      1.0000 0.37590  0.80480  0.96510  Biso   1.000  O
  O45      1.0000 0.87590  0.69520  0.96510  Biso   1.000  O
  O46      1.0000 0.12410  0.80480  0.46510  Biso   1.000  O
  O47      1.0000 0.37590  0.30480  0.53490  Biso   1.000  O
  O48      1.0000 0.62410  0.19520  0.03490  Biso   1.000  O
  O49      1.0000 0.24970  0.27220  0.03910  Biso   1.000  O
  O50      1.0000 0.75030  0.22780  0.53910  Biso   1.000  O
  O51      1.0000 0.74970  0.72780  0.46090  Biso   1.000  O
  O52      1.0000 0.25030  0.77220  0.96090  Biso   1.000  O
  O53      1.0000 0.75030  0.72780  0.96090  Biso   1.000  O
  O54      1.0000 0.24970  0.77220  0.46090  Biso   1.000  O
  O55      1.0000 0.25030  0.27220  0.53910  Biso   1.000  O
  O56      1.0000 0.74970  0.22780  0.03910  Biso   1.000  O
  O57      1.0000 0.45080  0.14270  0.25660  Biso   1.000  O
  O58      1.0000 0.54920  0.35730  0.75660  Biso   1.000  O
  O59      1.0000 0.95080  0.85730  0.24340  Biso   1.000  O
  O60      1.0000 0.04920  0.64270  0.74340  Biso   1.000  O
  O61      1.0000 0.54920  0.85730  0.74340  Biso   1.000  O
  O62      1.0000 0.45080  0.64270  0.24340  Biso   1.000  O
  O63      1.0000 0.04920  0.14270  0.75660  Biso   1.000  O
  O64      1.0000 0.95080  0.35730  0.25660  Biso   1.000  O
  O65      1.0000 0.47390  0.07460  0.19520  Biso   1.000  O
  O66      1.0000 0.52610  0.42540  0.69520  Biso   1.000  O
  O67      1.0000 0.97390  0.92540  0.30480  Biso   1.000  O
  O68      1.0000 0.02610  0.57460  0.80480  Biso   1.000  O
  O69      1.0000 0.52610  0.92540  0.80480  Biso   1.000  O
  O70      1.0000 0.47390  0.57460  0.30480  Biso   1.000  O
  O71      1.0000 0.02610  0.07460  0.69520  Biso   1.000  O
  O72      1.0000 0.97390  0.42540  0.19520  Biso   1.000  O
  O73      1.0000 0.57670  0.13870  0.21470  Biso   1.000  O
  O74      1.0000 0.42330  0.36130  0.71470  Biso   1.000  O
  O75      1.0000 0.07670  0.86130  0.28530  Biso   1.000  O
  O76      1.0000 0.92330  0.63870  0.78530  Biso   1.000  O
  O77      1.0000 0.42330  0.86130  0.78530  Biso   1.000  O
  O78      1.0000 0.57670  0.63870  0.28530  Biso   1.000  O
  O79      1.0000 0.92330  0.13870  0.71470  Biso   1.000  O
  O80      1.0000 0.07670  0.36130  0.21470  Biso   1.000  O
  O81      1.0000 0.42260  0.09580  0.22810  Biso   1.000  O
  O82      1.0000 0.57740  0.40420  0.72810  Biso   1.000  O
  O83      1.0000 0.92260  0.90420  0.27190  Biso   1.000  O
  O84      1.0000 0.07740  0.59580  0.77190  Biso   1.000  O
  O85      1.0000 0.57740  0.90420  0.77190  Biso   1.000  O
  O86      1.0000 0.42260  0.59580  0.27190  Biso   1.000  O
  O87      1.0000 0.07740  0.09580  0.72810  Biso   1.000  O
  O88      1.0000 0.92260  0.40420  0.22810  Biso   1.000  O
  O89      1.0000 0.54900  0.10300  0.19010  Biso   1.000  O
  O90      1.0000 0.45100  0.39700  0.69010  Biso   1.000  O
  O91      1.0000 0.04900  0.89700  0.30990  Biso   1.000  O
  O92      1.0000 0.95100  0.60300  0.80990  Biso   1.000  O
  O93      1.0000 0.45100  0.89700  0.80990  Biso   1.000  O
  O94      1.0000 0.54900  0.60300  0.30990  Biso   1.000  O
  O95      1.0000 0.95100  0.10300  0.69010  Biso   1.000  O
  O96      1.0000 0.04900  0.39700  0.19010  Biso   1.000  O
  O97      1.0000 0.55000  0.16010  0.23880  Biso   1.000  O
  O98      1.0000 0.45000  0.33990  0.73880  Biso   1.000  O
  O99      1.0000 0.05000  0.83990  0.26120  Biso   1.000  O
  O100     1.0000 0.95000  0.66010  0.76120  Biso   1.000  O
  O101     1.0000 0.45000  0.83990  0.76120  Biso   1.000  O
  O102     1.0000 0.55000  0.66010  0.26120  Biso   1.000  O
  O103     1.0000 0.95000  0.16010  0.73880  Biso   1.000  O
  O104     1.0000 0.05000  0.33990  0.23880  Biso   1.000  O
  O105     1.0000 0.31780  0.88351  0.87938  Biso   1.000  O
  O106     1.0000 0.68220  0.61649  0.37938  Biso   1.000  O
  O107     1.0000 0.81780  0.11649  0.62062  Biso   1.000  O
  O108     1.0000 0.18220  0.38351  0.12062  Biso   1.000  O
  O109     1.0000 0.68220  0.11649  0.12062  Biso   1.000  O
  O110     1.0000 0.31780  0.38351  0.62062  Biso   1.000  O
  O111     1.0000 0.18220  0.88351  0.37938  Biso   1.000  O
  O112     1.0000 0.81780  0.61649  0.87938  Biso   1.000  O
  O113     1.0000 0.46420  0.80070  0.11060  Biso   1.000  O
  O114     1.0000 0.53580  0.69930  0.61060  Biso   1.000  O
  O115     1.0000 0.96420  0.19930  0.38940  Biso   1.000  O
  O116     1.0000 0.03580  0.30070  0.88940  Biso   1.000  O
  O117     1.0000 0.53580  0.19930  0.88940  Biso   1.000  O
  O118     1.0000 0.46420  0.30070  0.38940  Biso   1.000  O
  O119     1.0000 0.03580  0.80070  0.61060  Biso   1.000  O
  O120     1.0000 0.96420  0.69930  0.11060  Biso   1.000  O
  O121     1.0000 0.49060  0.73100  0.07900  Biso   1.000  O
  O122     1.0000 0.50940  0.76900  0.57900  Biso   1.000  O
  O123     1.0000 0.99060  0.26900  0.42100  Biso   1.000  O
  O124     1.0000 0.00940  0.23100  0.92100  Biso   1.000  O
  O125     1.0000 0.50940  0.26900  0.92100  Biso   1.000  O
  O126     1.0000 0.49060  0.23100  0.42100  Biso   1.000  O
  O127     1.0000 0.00940  0.73100  0.57900  Biso   1.000  O
  O128     1.0000 0.99060  0.76900  0.07900  Biso   1.000  O
  O129     1.0000 0.87700  0.19850  0.82400  Biso   1.000  O
  O130     1.0000 0.12300  0.30150  0.32400  Biso   1.000  O
  O131     1.0000 0.37700  0.80150  0.67600  Biso   1.000  O
  O132     1.0000 0.62300  0.69850  0.17600  Biso   1.000  O
  O133     1.0000 0.12300  0.80150  0.17600  Biso   1.000  O
  O134     1.0000 0.87700  0.69850  0.67600  Biso   1.000  O
  O135     1.0000 0.62300  0.19850  0.32400  Biso   1.000  O
  O136     1.0000 0.37700  0.30150  0.82400  Biso   1.000  O
