data_image0
_cell_length_a       32.986
_cell_length_b       17.323
_cell_length_c       28.382
_cell_angle_alpha    90
_cell_angle_beta     148.758
_cell_angle_gamma    90

_symmetry_space_group_name_H-M    "P 1"
_symmetry_int_tables_number       1

loop_
  _symmetry_equiv_pos_as_xyz
  'x, y, z'

loop_
  _atom_site_label
  _atom_site_occupancy
  _atom_site_fract_x
  _atom_site_fract_y
  _atom_site_fract_z
  _atom_site_thermal_displace_type
  _atom_site_B_iso_or_equiv
  _atom_site_type_symbol
  Cu1      1.0000 0.24802  0.00024  0.37389  Biso   1.000  Cu
  Cu2      1.0000 0.75198  0.00024  0.12611  Biso   1.000  Cu
  Cu3      1.0000 0.74802  0.50024  0.37389  Biso   1.000  Cu
  Cu4      1.0000 0.25198  0.50024  0.12611  Biso   1.000  Cu
  Cu5      1.0000 0.75198  0.99976  0.62611  Biso   1.000  Cu
  Cu6      1.0000 0.24802  0.99976  0.87389  Biso   1.000  Cu
  Cu7      1.0000 0.25198  0.49976  0.62611  Biso   1.000  Cu
  Cu8      1.0000 0.74802  0.49976  0.87389  Biso   1.000  Cu
  N1       1.0000 0.15790  0.99910  0.23730  Biso   1.000  N
  N2       1.0000 0.84210  0.99910  0.26270  Biso   1.000  N
  N3       1.0000 0.65790  0.49910  0.23730  Biso   1.000  N
  N4       1.0000 0.34210  0.49910  0.26270  Biso   1.000  N
  N5       1.0000 0.84210  0.00090  0.76270  Biso   1.000  N
  N6       1.0000 0.15790  0.00090  0.73730  Biso   1.000  N
  N7       1.0000 0.34210  0.50090  0.76270  Biso   1.000  N
  N8       1.0000 0.65790  0.50090  0.73730  Biso   1.000  N
  C1       1.0000 0.09160  0.04230  0.18170  Biso   1.000  C
  C2       1.0000 0.90840  0.04230  0.31830  Biso   1.000  C
  C3       1.0000 0.59160  0.54230  0.18170  Biso   1.000  C
  C4       1.0000 0.40840  0.54230  0.31830  Biso   1.000  C
  C5       1.0000 0.90840  0.95770  0.81830  Biso   1.000  C
  C6       1.0000 0.09160  0.95770  0.68170  Biso   1.000  C
  C7       1.0000 0.40840  0.45770  0.81830  Biso   1.000  C
  C8       1.0000 0.59160  0.45770  0.68170  Biso   1.000  C
  H1       1.0000 0.08940  0.07130  0.20700  Biso   1.000  H
  H2       1.0000 0.91060  0.07130  0.29300  Biso   1.000  H
  H3       1.0000 0.58940  0.57130  0.20700  Biso   1.000  H
  H4       1.0000 0.41060  0.57130  0.29300  Biso   1.000  H
  H5       1.0000 0.91060  0.92870  0.79300  Biso   1.000  H
  H6       1.0000 0.08940  0.92870  0.70700  Biso   1.000  H
  H7       1.0000 0.41060  0.42870  0.79300  Biso   1.000  H
  H8       1.0000 0.58940  0.42870  0.70700  Biso   1.000  H
  C9       1.0000 0.02850  0.04210  0.08810  Biso   1.000  C
  C10      1.0000 0.97150  0.04210  0.41190  Biso   1.000  C
  C11      1.0000 0.52850  0.54210  0.08810  Biso   1.000  C
  C12      1.0000 0.47150  0.54210  0.41190  Biso   1.000  C
  C13      1.0000 0.97150  0.95790  0.91190  Biso   1.000  C
  C14      1.0000 0.02850  0.95790  0.58810  Biso   1.000  C
  C15      1.0000 0.47150  0.45790  0.91190  Biso   1.000  C
  C16      1.0000 0.52850  0.45790  0.58810  Biso   1.000  C
  H9       1.0000 0.98420  0.07100  0.05090  Biso   1.000  H
  H10      1.0000 0.01580  0.07100  0.44910  Biso   1.000  H
  H11      1.0000 0.48420  0.57100  0.05090  Biso   1.000  H
  H12      1.0000 0.51580  0.57100  0.44910  Biso   1.000  H
  H13      1.0000 0.01580  0.92900  0.94910  Biso   1.000  H
  H14      1.0000 0.98420  0.92900  0.55090  Biso   1.000  H
  H15      1.0000 0.51580  0.42900  0.94910  Biso   1.000  H
  H16      1.0000 0.48420  0.42900  0.55090  Biso   1.000  H
  C17      1.0000 0.03180  0.99870  0.05020  Biso   1.000  C
  C18      1.0000 0.96820  0.99870  0.44980  Biso   1.000  C
  C19      1.0000 0.53180  0.49870  0.05020  Biso   1.000  C
  C20      1.0000 0.46820  0.49870  0.44980  Biso   1.000  C
  C21      1.0000 0.96820  0.00130  0.94980  Biso   1.000  C
  C22      1.0000 0.03180  0.00130  0.55020  Biso   1.000  C
  C23      1.0000 0.46820  0.50130  0.94980  Biso   1.000  C
  C24      1.0000 0.53180  0.50130  0.55020  Biso   1.000  C
  C25      1.0000 0.09810  0.95540  0.10590  Biso   1.000  C
  C26      1.0000 0.90190  0.95540  0.39410  Biso   1.000  C
  C27      1.0000 0.59810  0.45540  0.10590  Biso   1.000  C
  C28      1.0000 0.40190  0.45540  0.39410  Biso   1.000  C
  C29      1.0000 0.90190  0.04460  0.89410  Biso   1.000  C
  C30      1.0000 0.09810  0.04460  0.60590  Biso   1.000  C
  C31      1.0000 0.40190  0.54460  0.89410  Biso   1.000  C
  C32      1.0000 0.59810  0.54460  0.60590  Biso   1.000  C
  H17      1.0000 0.10020  0.92640  0.08050  Biso   1.000  H
  H18      1.0000 0.89980  0.92640  0.41950  Biso   1.000  H
  H19      1.0000 0.60020  0.42640  0.08050  Biso   1.000  H
  H20      1.0000 0.39980  0.42640  0.41950  Biso   1.000  H
  H21      1.0000 0.89980  0.07360  0.91950  Biso   1.000  H
  H22      1.0000 0.10020  0.07360  0.58050  Biso   1.000  H
  H23      1.0000 0.39980  0.57360  0.91950  Biso   1.000  H
  H24      1.0000 0.60020  0.57360  0.58050  Biso   1.000  H
  C33      1.0000 0.16110  0.95560  0.19940  Biso   1.000  C
  C34      1.0000 0.83890  0.95560  0.30060  Biso   1.000  C
  C35      1.0000 0.66110  0.45560  0.19940  Biso   1.000  C
  C36      1.0000 0.33890  0.45560  0.30060  Biso   1.000  C
  C37      1.0000 0.83890  0.04440  0.80060  Biso   1.000  C
  C38      1.0000 0.16110  0.04440  0.69940  Biso   1.000  C
  C39      1.0000 0.33890  0.54440  0.80060  Biso   1.000  C
  C40      1.0000 0.66110  0.54440  0.69940  Biso   1.000  C
  H25      1.0000 0.20550  0.92670  0.23660  Biso   1.000  H
  H26      1.0000 0.79450  0.92670  0.26340  Biso   1.000  H
  H27      1.0000 0.70550  0.42670  0.23660  Biso   1.000  H
  H28      1.0000 0.29450  0.42670  0.26340  Biso   1.000  H
  H29      1.0000 0.79450  0.07330  0.76340  Biso   1.000  H
  H30      1.0000 0.20550  0.07330  0.73660  Biso   1.000  H
  H31      1.0000 0.29450  0.57330  0.76340  Biso   1.000  H
  H32      1.0000 0.70550  0.57330  0.73660  Biso   1.000  H
  C41      1.0000 0.37860  0.93660  0.44780  Biso   1.000  C
  C42      1.0000 0.62140  0.93660  0.05220  Biso   1.000  C
  C43      1.0000 0.87860  0.43660  0.44780  Biso   1.000  C
  C44      1.0000 0.12140  0.43660  0.05220  Biso   1.000  C
  C45      1.0000 0.62140  0.06340  0.55220  Biso   1.000  C
  C46      1.0000 0.37860  0.06340  0.94780  Biso   1.000  C
  C47      1.0000 0.12140  0.56340  0.55220  Biso   1.000  C
  C48      1.0000 0.87860  0.56340  0.94780  Biso   1.000  C
  H33      1.0000 0.35840  0.89000  0.43870  Biso   1.000  H
  H34      1.0000 0.64160  0.89000  0.06130  Biso   1.000  H
  H35      1.0000 0.85840  0.39000  0.43870  Biso   1.000  H
  H36      1.0000 0.14160  0.39000  0.06130  Biso   1.000  H
  H37      1.0000 0.64160  0.11000  0.56130  Biso   1.000  H
  H38      1.0000 0.35840  0.11000  0.93870  Biso   1.000  H
  H39      1.0000 0.14160  0.61000  0.56130  Biso   1.000  H
  H40      1.0000 0.85840  0.61000  0.93870  Biso   1.000  H
  C49      1.0000 0.44000  0.93370  0.47910  Biso   1.000  C
  C50      1.0000 0.56000  0.93370  0.02090  Biso   1.000  C
  C51      1.0000 0.94000  0.43370  0.47910  Biso   1.000  C
  C52      1.0000 0.06000  0.43370  0.02090  Biso   1.000  C
  C53      1.0000 0.56000  0.06630  0.52090  Biso   1.000  C
  C54      1.0000 0.44000  0.06630  0.97910  Biso   1.000  C
  C55      1.0000 0.06000  0.56630  0.52090  Biso   1.000  C
  C56      1.0000 0.94000  0.56630  0.97910  Biso   1.000  C
  H41      1.0000 0.46390  0.88660  0.49650  Biso   1.000  H
  H42      1.0000 0.53610  0.88660  0.00350  Biso   1.000  H
  H43      1.0000 0.96390  0.38660  0.49650  Biso   1.000  H
  H44      1.0000 0.03610  0.38660  0.00350  Biso   1.000  H
  H45      1.0000 0.53610  0.11340  0.50350  Biso   1.000  H
  H46      1.0000 0.46390  0.11340  0.99650  Biso   1.000  H
  H47      1.0000 0.03610  0.61340  0.50350  Biso   1.000  H
  H48      1.0000 0.96390  0.61340  0.99650  Biso   1.000  H
  C57      1.0000 0.46680  0.99820  0.48500  Biso   1.000  C
  C58      1.0000 0.53320  0.99820  0.01500  Biso   1.000  C
  C59      1.0000 0.96680  0.49820  0.48500  Biso   1.000  C
  C60      1.0000 0.03320  0.49820  0.01500  Biso   1.000  C
  C61      1.0000 0.53320  0.00180  0.51500  Biso   1.000  C
  C62      1.0000 0.46680  0.00180  0.98500  Biso   1.000  C
  C63      1.0000 0.03320  0.50180  0.51500  Biso   1.000  C
  C64      1.0000 0.96680  0.50180  0.98500  Biso   1.000  C
  C65      1.0000 0.43060  0.06770  0.46380  Biso   1.000  C
  C66      1.0000 0.56940  0.06770  0.03620  Biso   1.000  C
  C67      1.0000 0.93060  0.56770  0.46380  Biso   1.000  C
  C68      1.0000 0.06940  0.56770  0.03620  Biso   1.000  C
  C69      1.0000 0.56940  0.93230  0.53620  Biso   1.000  C
  C70      1.0000 0.43060  0.93230  0.96380  Biso   1.000  C
  C71      1.0000 0.06940  0.43230  0.53620  Biso   1.000  C
  C72      1.0000 0.93060  0.43230  0.96380  Biso   1.000  C
  H49      1.0000 0.44640  0.11490  0.46700  Biso   1.000  H
  H50      1.0000 0.55360  0.11490  0.03300  Biso   1.000  H
  H51      1.0000 0.94640  0.61490  0.46700  Biso   1.000  H
  H52      1.0000 0.05360  0.61490  0.03300  Biso   1.000  H
  H53      1.0000 0.55360  0.88510  0.53300  Biso   1.000  H
  H54      1.0000 0.44640  0.88510  0.96700  Biso   1.000  H
  H55      1.0000 0.05360  0.38510  0.53300  Biso   1.000  H
  H56      1.0000 0.94640  0.38510  0.96700  Biso   1.000  H
  C73      1.0000 0.37390  0.06420  0.43920  Biso   1.000  C
  C74      1.0000 0.62610  0.06420  0.06080  Biso   1.000  C
  C75      1.0000 0.87390  0.56420  0.43920  Biso   1.000  C
  C76      1.0000 0.12610  0.56420  0.06080  Biso   1.000  C
  C77      1.0000 0.62610  0.93580  0.56080  Biso   1.000  C
  C78      1.0000 0.37390  0.93580  0.93920  Biso   1.000  C
  C79      1.0000 0.12610  0.43580  0.56080  Biso   1.000  C
  C80      1.0000 0.87390  0.43580  0.93920  Biso   1.000  C
  H57      1.0000 0.35240  0.11070  0.42790  Biso   1.000  H
  H58      1.0000 0.64760  0.11070  0.07210  Biso   1.000  H
  H59      1.0000 0.85240  0.61070  0.42790  Biso   1.000  H
  H60      1.0000 0.14760  0.61070  0.07210  Biso   1.000  H
  H61      1.0000 0.64760  0.88930  0.57210  Biso   1.000  H
  H62      1.0000 0.35240  0.88930  0.92790  Biso   1.000  H
  H63      1.0000 0.14760  0.38930  0.57210  Biso   1.000  H
  H64      1.0000 0.85240  0.38930  0.92790  Biso   1.000  H
  N9       1.0000 0.24600  0.09650  0.41450  Biso   1.000  N
  N10      1.0000 0.75400  0.09650  0.08550  Biso   1.000  N
  N11      1.0000 0.74600  0.59650  0.41450  Biso   1.000  N
  N12      1.0000 0.25400  0.59650  0.08550  Biso   1.000  N
  N13      1.0000 0.75400  0.90350  0.58550  Biso   1.000  N
  N14      1.0000 0.24600  0.90350  0.91450  Biso   1.000  N
  N15      1.0000 0.25400  0.40350  0.58550  Biso   1.000  N
  N16      1.0000 0.74600  0.40350  0.91450  Biso   1.000  N
  C81      1.0000 0.31760  0.12430  0.50140  Biso   1.000  C
  C82      1.0000 0.68240  0.12430  0.99860  Biso   1.000  C
  C83      1.0000 0.81760  0.62430  0.50140  Biso   1.000  C
  C84      1.0000 0.18240  0.62430  0.99860  Biso   1.000  C
  C85      1.0000 0.68240  0.87570  0.49860  Biso   1.000  C
  C86      1.0000 0.31760  0.87570  0.00140  Biso   1.000  C
  C87      1.0000 0.18240  0.37570  0.49860  Biso   1.000  C
  C88      1.0000 0.81760  0.37570  0.00140  Biso   1.000  C
  H65      1.0000 0.36380  0.10330  0.53570  Biso   1.000  H
  H66      1.0000 0.63620  0.10330  0.96430  Biso   1.000  H
  H67      1.0000 0.86380  0.60330  0.53570  Biso   1.000  H
  H68      1.0000 0.13620  0.60330  0.96430  Biso   1.000  H
  H69      1.0000 0.63620  0.89670  0.46430  Biso   1.000  H
  H70      1.0000 0.36380  0.89670  0.03570  Biso   1.000  H
  H71      1.0000 0.13620  0.39670  0.46430  Biso   1.000  H
  H72      1.0000 0.86380  0.39670  0.03570  Biso   1.000  H
  C89      1.0000 0.32010  0.18340  0.53700  Biso   1.000  C
  C90      1.0000 0.67990  0.18340  0.96300  Biso   1.000  C
  C91      1.0000 0.82010  0.68340  0.53700  Biso   1.000  C
  C92      1.0000 0.17990  0.68340  0.96300  Biso   1.000  C
  C93      1.0000 0.67990  0.81660  0.46300  Biso   1.000  C
  C94      1.0000 0.32010  0.81660  0.03700  Biso   1.000  C
  C95      1.0000 0.17990  0.31660  0.46300  Biso   1.000  C
  C96      1.0000 0.82010  0.31660  0.03700  Biso   1.000  C
  H73      1.0000 0.36800  0.20190  0.59520  Biso   1.000  H
  H74      1.0000 0.63200  0.20190  0.90480  Biso   1.000  H
  H75      1.0000 0.86800  0.70190  0.59520  Biso   1.000  H
  H76      1.0000 0.13200  0.70190  0.90480  Biso   1.000  H
  H77      1.0000 0.63200  0.79810  0.40480  Biso   1.000  H
  H78      1.0000 0.36800  0.79810  0.09520  Biso   1.000  H
  H79      1.0000 0.13200  0.29810  0.40480  Biso   1.000  H
  H80      1.0000 0.86800  0.29810  0.09520  Biso   1.000  H
  C97      1.0000 0.25100  0.21470  0.48570  Biso   1.000  C
  C98      1.0000 0.74900  0.21470  0.01430  Biso   1.000  C
  C99      1.0000 0.75100  0.71470  0.48570  Biso   1.000  C
  C100     1.0000 0.24900  0.71470  0.01430  Biso   1.000  C
  C101     1.0000 0.74900  0.78530  0.51430  Biso   1.000  C
  C102     1.0000 0.25100  0.78530  0.98570  Biso   1.000  C
  C103     1.0000 0.24900  0.28530  0.51430  Biso   1.000  C
  C104     1.0000 0.75100  0.28530  0.98570  Biso   1.000  C
  C105     1.0000 0.17940  0.18690  0.39870  Biso   1.000  C
  C106     1.0000 0.82060  0.18690  0.10130  Biso   1.000  C
  C107     1.0000 0.67940  0.68690  0.39870  Biso   1.000  C
  C108     1.0000 0.32060  0.68690  0.10130  Biso   1.000  C
  C109     1.0000 0.82060  0.81310  0.60130  Biso   1.000  C
  C110     1.0000 0.17940  0.81310  0.89870  Biso   1.000  C
  C111     1.0000 0.32060  0.31310  0.60130  Biso   1.000  C
  C112     1.0000 0.67940  0.31310  0.89870  Biso   1.000  C
  H81      1.0000 0.13320  0.20790  0.36440  Biso   1.000  H
  H82      1.0000 0.86680  0.20790  0.13560  Biso   1.000  H
  H83      1.0000 0.63320  0.70790  0.36440  Biso   1.000  H
  H84      1.0000 0.36680  0.70790  0.13560  Biso   1.000  H
  H85      1.0000 0.86680  0.79210  0.63560  Biso   1.000  H
  H86      1.0000 0.13320  0.79210  0.86440  Biso   1.000  H
  H87      1.0000 0.36680  0.29210  0.63560  Biso   1.000  H
  H88      1.0000 0.63320  0.29210  0.86440  Biso   1.000  H
  C113     1.0000 0.17690  0.12780  0.36310  Biso   1.000  C
  C114     1.0000 0.82310  0.12780  0.13690  Biso   1.000  C
  C115     1.0000 0.67690  0.62780  0.36310  Biso   1.000  C
  C116     1.0000 0.32310  0.62780  0.13690  Biso   1.000  C
  C117     1.0000 0.82310  0.87220  0.63690  Biso   1.000  C
  C118     1.0000 0.17690  0.87220  0.86310  Biso   1.000  C
  C119     1.0000 0.32310  0.37220  0.63690  Biso   1.000  C
  C120     1.0000 0.67690  0.37220  0.86310  Biso   1.000  C
  H89      1.0000 0.12900  0.10930  0.30500  Biso   1.000  H
  H90      1.0000 0.87100  0.10930  0.19500  Biso   1.000  H
  H91      1.0000 0.62900  0.60930  0.30500  Biso   1.000  H
  H92      1.0000 0.37100  0.60930  0.19500  Biso   1.000  H
  H93      1.0000 0.87100  0.89070  0.69500  Biso   1.000  H
  H94      1.0000 0.12900  0.89070  0.80500  Biso   1.000  H
  H95      1.0000 0.37100  0.39070  0.69500  Biso   1.000  H
  H96      1.0000 0.62900  0.39070  0.80500  Biso   1.000  H
  N17      1.0000 0.24800  0.90730  0.41830  Biso   1.000  N
  N18      1.0000 0.75200  0.90730  0.08170  Biso   1.000  N
  N19      1.0000 0.74800  0.40730  0.41830  Biso   1.000  N
  N20      1.0000 0.25200  0.40730  0.08170  Biso   1.000  N
  N21      1.0000 0.75200  0.09270  0.58170  Biso   1.000  N
  N22      1.0000 0.24800  0.09270  0.91830  Biso   1.000  N
  N23      1.0000 0.25200  0.59270  0.58170  Biso   1.000  N
  N24      1.0000 0.74800  0.59270  0.91830  Biso   1.000  N
  C121     1.0000 0.28910  0.91200  0.50130  Biso   1.000  C
  C122     1.0000 0.71090  0.91200  0.99870  Biso   1.000  C
  C123     1.0000 0.78910  0.41200  0.50130  Biso   1.000  C
  C124     1.0000 0.21090  0.41200  0.99870  Biso   1.000  C
  C125     1.0000 0.71090  0.08800  0.49870  Biso   1.000  C
  C126     1.0000 0.28910  0.08800  0.00130  Biso   1.000  C
  C127     1.0000 0.21090  0.58800  0.49870  Biso   1.000  C
  C128     1.0000 0.78910  0.58800  0.00130  Biso   1.000  C
  H97      1.0000 0.31650  0.95680  0.53600  Biso   1.000  H
  H98      1.0000 0.68350  0.95680  0.96400  Biso   1.000  H
  H99      1.0000 0.81650  0.45680  0.53600  Biso   1.000  H
  H100     1.0000 0.18350  0.45680  0.96400  Biso   1.000  H
  H101     1.0000 0.68350  0.04320  0.46400  Biso   1.000  H
  H102     1.0000 0.31650  0.04320  0.03600  Biso   1.000  H
  H103     1.0000 0.18350  0.54320  0.46400  Biso   1.000  H
  H104     1.0000 0.81650  0.54320  0.03600  Biso   1.000  H
  C129     1.0000 0.28930  0.84990  0.53250  Biso   1.000  C
  C130     1.0000 0.71070  0.84990  0.96750  Biso   1.000  C
  C131     1.0000 0.78930  0.34990  0.53250  Biso   1.000  C
  C132     1.0000 0.21070  0.34990  0.96750  Biso   1.000  C
  C133     1.0000 0.71070  0.15010  0.46750  Biso   1.000  C
  C134     1.0000 0.28930  0.15010  0.03250  Biso   1.000  C
  C135     1.0000 0.21070  0.65010  0.46750  Biso   1.000  C
  C136     1.0000 0.78930  0.65010  0.03250  Biso   1.000  C
  H105     1.0000 0.31680  0.85310  0.58800  Biso   1.000  H
  H106     1.0000 0.68320  0.85310  0.91200  Biso   1.000  H
  H107     1.0000 0.81680  0.35310  0.58800  Biso   1.000  H
  H108     1.0000 0.18320  0.35310  0.91200  Biso   1.000  H
  H109     1.0000 0.68320  0.14690  0.41200  Biso   1.000  H
  H110     1.0000 0.31680  0.14690  0.08800  Biso   1.000  H
  H111     1.0000 0.18320  0.64690  0.41200  Biso   1.000  H
  H112     1.0000 0.81680  0.64690  0.08800  Biso   1.000  H
  C137     1.0000 0.24830  0.78310  0.48070  Biso   1.000  C
  C138     1.0000 0.75170  0.78310  0.01930  Biso   1.000  C
  C139     1.0000 0.74830  0.28310  0.48070  Biso   1.000  C
  C140     1.0000 0.25170  0.28310  0.01930  Biso   1.000  C
  C141     1.0000 0.75170  0.21690  0.51930  Biso   1.000  C
  C142     1.0000 0.24830  0.21690  0.98070  Biso   1.000  C
  C143     1.0000 0.25170  0.71690  0.51930  Biso   1.000  C
  C144     1.0000 0.74830  0.71690  0.98070  Biso   1.000  C
  C145     1.0000 0.20720  0.77830  0.39770  Biso   1.000  C
  C146     1.0000 0.79280  0.77830  0.10230  Biso   1.000  C
  C147     1.0000 0.70720  0.27830  0.39770  Biso   1.000  C
  C148     1.0000 0.29280  0.27830  0.10230  Biso   1.000  C
  C149     1.0000 0.79280  0.22170  0.60230  Biso   1.000  C
  C150     1.0000 0.20720  0.22170  0.89770  Biso   1.000  C
  C151     1.0000 0.29280  0.72170  0.60230  Biso   1.000  C
  C152     1.0000 0.70720  0.72170  0.89770  Biso   1.000  C
  H113     1.0000 0.17980  0.73360  0.36300  Biso   1.000  H
  H114     1.0000 0.82020  0.73360  0.13700  Biso   1.000  H
  H115     1.0000 0.67980  0.23360  0.36300  Biso   1.000  H
  H116     1.0000 0.32020  0.23360  0.13700  Biso   1.000  H
  H117     1.0000 0.82020  0.26640  0.63700  Biso   1.000  H
  H118     1.0000 0.17980  0.26640  0.86300  Biso   1.000  H
  H119     1.0000 0.32020  0.76640  0.63700  Biso   1.000  H
  H120     1.0000 0.67980  0.76640  0.86300  Biso   1.000  H
  C153     1.0000 0.20700  0.84040  0.36650  Biso   1.000  C
  C154     1.0000 0.79300  0.84040  0.13350  Biso   1.000  C
  C155     1.0000 0.70700  0.34040  0.36650  Biso   1.000  C
  C156     1.0000 0.29300  0.34040  0.13350  Biso   1.000  C
  C157     1.0000 0.79300  0.15960  0.63350  Biso   1.000  C
  C158     1.0000 0.20700  0.15960  0.86650  Biso   1.000  C
  C159     1.0000 0.29300  0.65960  0.63350  Biso   1.000  C
  C160     1.0000 0.70700  0.65960  0.86650  Biso   1.000  C
  H121     1.0000 0.17950  0.83720  0.31100  Biso   1.000  H
  H122     1.0000 0.82050  0.83720  0.18900  Biso   1.000  H
  H123     1.0000 0.67950  0.33720  0.31100  Biso   1.000  H
  H124     1.0000 0.32050  0.33720  0.18900  Biso   1.000  H
  H125     1.0000 0.82050  0.16280  0.68900  Biso   1.000  H
  H126     1.0000 0.17950  0.16280  0.81100  Biso   1.000  H
  H127     1.0000 0.32050  0.66280  0.68900  Biso   1.000  H
  H128     1.0000 0.67950  0.66280  0.81100  Biso   1.000  H
  N25      1.0000 0.34540  0.00020  0.42950  Biso   1.000  N
  N26      1.0000 0.65460  0.00020  0.07050  Biso   1.000  N
  N27      1.0000 0.84540  0.50020  0.42950  Biso   1.000  N
  N28      1.0000 0.15460  0.50020  0.07050  Biso   1.000  N
  N29      1.0000 0.65460  0.99980  0.57050  Biso   1.000  N
  N30      1.0000 0.34540  0.99980  0.92950  Biso   1.000  N
  N31      1.0000 0.15460  0.49980  0.57050  Biso   1.000  N
  N32      1.0000 0.84540  0.49980  0.92950  Biso   1.000  N
  C161     1.0000 0.00990  0.87470  0.28340  Biso   1.000  C
  C162     1.0000 0.99010  0.87470  0.21660  Biso   1.000  C
  C163     1.0000 0.50990  0.37470  0.28340  Biso   1.000  C
  C164     1.0000 0.49010  0.37470  0.21660  Biso   1.000  C
  C165     1.0000 0.99010  0.12530  0.71660  Biso   1.000  C
  C166     1.0000 0.00990  0.12530  0.78340  Biso   1.000  C
  C167     1.0000 0.49010  0.62530  0.71660  Biso   1.000  C
  C168     1.0000 0.50990  0.62530  0.78340  Biso   1.000  C
  C169     1.0000 0.01590  0.80430  0.31870  Biso   1.000  C
  C170     1.0000 0.98410  0.80430  0.18130  Biso   1.000  C
  C171     1.0000 0.51590  0.30430  0.31870  Biso   1.000  C
  C172     1.0000 0.48410  0.30430  0.18130  Biso   1.000  C
  C173     1.0000 0.98410  0.19570  0.68130  Biso   1.000  C
  C174     1.0000 0.01590  0.19570  0.81870  Biso   1.000  C
  C175     1.0000 0.48410  0.69570  0.68130  Biso   1.000  C
  C176     1.0000 0.51590  0.69570  0.81870  Biso   1.000  C
  C177     1.0000 0.00400  0.73250  0.27770  Biso   1.000  C
  C178     1.0000 0.99600  0.73250  0.22230  Biso   1.000  C
  C179     1.0000 0.50400  0.23250  0.27770  Biso   1.000  C
  C180     1.0000 0.49600  0.23250  0.22230  Biso   1.000  C
  C181     1.0000 0.99600  0.26750  0.72230  Biso   1.000  C
  C182     1.0000 0.00400  0.26750  0.77770  Biso   1.000  C
  C183     1.0000 0.49600  0.76750  0.72230  Biso   1.000  C
  C184     1.0000 0.50400  0.76750  0.77770  Biso   1.000  C
  C185     1.0000 0.01730  0.95200  0.31640  Biso   1.000  C
  C186     1.0000 0.98270  0.95200  0.18360  Biso   1.000  C
  C187     1.0000 0.51730  0.45200  0.31640  Biso   1.000  C
  C188     1.0000 0.48270  0.45200  0.18360  Biso   1.000  C
  C189     1.0000 0.98270  0.04800  0.68360  Biso   1.000  C
  C190     1.0000 0.01730  0.04800  0.81640  Biso   1.000  C
  C191     1.0000 0.48270  0.54800  0.68360  Biso   1.000  C
  C192     1.0000 0.51730  0.54800  0.81640  Biso   1.000  C
  H129     1.0000 0.98340  0.99090  0.26910  Biso   1.000  H
  H130     1.0000 0.01660  0.99090  0.23090  Biso   1.000  H
  H131     1.0000 0.48340  0.49090  0.26910  Biso   1.000  H
  H132     1.0000 0.51660  0.49090  0.23090  Biso   1.000  H
  H133     1.0000 0.01660  0.00910  0.73090  Biso   1.000  H
  H134     1.0000 0.98340  0.00910  0.76910  Biso   1.000  H
  H135     1.0000 0.51660  0.50910  0.73090  Biso   1.000  H
  H136     1.0000 0.48340  0.50910  0.76910  Biso   1.000  H
  H137     1.0000 0.00650  0.94710  0.33910  Biso   1.000  H
  H138     1.0000 0.99350  0.94710  0.16090  Biso   1.000  H
  H139     1.0000 0.50650  0.44710  0.33910  Biso   1.000  H
  H140     1.0000 0.49350  0.44710  0.16090  Biso   1.000  H
  H141     1.0000 0.99350  0.05290  0.66090  Biso   1.000  H
  H142     1.0000 0.00650  0.05290  0.83910  Biso   1.000  H
  H143     1.0000 0.49350  0.55290  0.66090  Biso   1.000  H
  H144     1.0000 0.50650  0.55290  0.83910  Biso   1.000  H
  C193     1.0000 0.00290  0.80660  0.35980  Biso   1.000  C
  C194     1.0000 0.99710  0.80660  0.14020  Biso   1.000  C
  C195     1.0000 0.50290  0.30660  0.35980  Biso   1.000  C
  C196     1.0000 0.49710  0.30660  0.14020  Biso   1.000  C
  C197     1.0000 0.99710  0.19340  0.64020  Biso   1.000  C
  C198     1.0000 0.00290  0.19340  0.85980  Biso   1.000  C
  C199     1.0000 0.49710  0.69340  0.64020  Biso   1.000  C
  C200     1.0000 0.50290  0.69340  0.85980  Biso   1.000  C
  H145     1.0000 0.98090  0.85510  0.34870  Biso   1.000  H
  H146     1.0000 0.01910  0.85510  0.15130  Biso   1.000  H
  H147     1.0000 0.48090  0.35510  0.34870  Biso   1.000  H
  H148     1.0000 0.51910  0.35510  0.15130  Biso   1.000  H
  H149     1.0000 0.01910  0.14490  0.65130  Biso   1.000  H
  H150     1.0000 0.98090  0.14490  0.84870  Biso   1.000  H
  H151     1.0000 0.51910  0.64490  0.65130  Biso   1.000  H
  H152     1.0000 0.48090  0.64490  0.84870  Biso   1.000  H
  H153     1.0000 0.97210  0.76360  0.34070  Biso   1.000  H
  H154     1.0000 0.02790  0.76360  0.15930  Biso   1.000  H
  H155     1.0000 0.47210  0.26360  0.34070  Biso   1.000  H
  H156     1.0000 0.52790  0.26360  0.15930  Biso   1.000  H
  H157     1.0000 0.02790  0.23640  0.65930  Biso   1.000  H
  H158     1.0000 0.97210  0.23640  0.84070  Biso   1.000  H
  H159     1.0000 0.52790  0.73640  0.65930  Biso   1.000  H
  H160     1.0000 0.47210  0.73640  0.84070  Biso   1.000  H
  C201     1.0000 0.00470  0.66090  0.30880  Biso   1.000  C
  C202     1.0000 0.99530  0.66090  0.19120  Biso   1.000  C
  C203     1.0000 0.50470  0.16090  0.30880  Biso   1.000  C
  C204     1.0000 0.49530  0.16090  0.19120  Biso   1.000  C
  C205     1.0000 0.99530  0.33910  0.69120  Biso   1.000  C
  C206     1.0000 0.00470  0.33910  0.80880  Biso   1.000  C
  C207     1.0000 0.49530  0.83910  0.69120  Biso   1.000  C
  C208     1.0000 0.50470  0.83910  0.80880  Biso   1.000  C
  H161     1.0000 0.01430  0.61550  0.29930  Biso   1.000  H
  H162     1.0000 0.98570  0.61550  0.20070  Biso   1.000  H
  H163     1.0000 0.51430  0.11550  0.29930  Biso   1.000  H
  H164     1.0000 0.48570  0.11550  0.20070  Biso   1.000  H
  H165     1.0000 0.98570  0.38450  0.70070  Biso   1.000  H
  H166     1.0000 0.01430  0.38450  0.79930  Biso   1.000  H
  H167     1.0000 0.48570  0.88450  0.70070  Biso   1.000  H
  H168     1.0000 0.51430  0.88450  0.79930  Biso   1.000  H
  H169     1.0000 0.04550  0.66450  0.37300  Biso   1.000  H
  H170     1.0000 0.95450  0.66450  0.12700  Biso   1.000  H
  H171     1.0000 0.54550  0.16450  0.37300  Biso   1.000  H
  H172     1.0000 0.45450  0.16450  0.12700  Biso   1.000  H
  H173     1.0000 0.95450  0.33550  0.62700  Biso   1.000  H
  H174     1.0000 0.04550  0.33550  0.87300  Biso   1.000  H
  H175     1.0000 0.45450  0.83550  0.62700  Biso   1.000  H
  H176     1.0000 0.54550  0.83550  0.87300  Biso   1.000  H
  C209     1.0000 0.12930  0.03050  0.44130  Biso   1.000  C
  C210     1.0000 0.87070  0.03050  0.05870  Biso   1.000  C
  C211     1.0000 0.62930  0.53050  0.44130  Biso   1.000  C
  C212     1.0000 0.37070  0.53050  0.05870  Biso   1.000  C
  C213     1.0000 0.87070  0.96950  0.55870  Biso   1.000  C
  C214     1.0000 0.12930  0.96950  0.94130  Biso   1.000  C
  C215     1.0000 0.37070  0.46950  0.55870  Biso   1.000  C
  C216     1.0000 0.62930  0.46950  0.94130  Biso   1.000  C
  C217     1.0000 0.21300  0.03760  0.52140  Biso   1.000  C
  C218     1.0000 0.78700  0.03760  0.97860  Biso   1.000  C
  C219     1.0000 0.71300  0.53760  0.52140  Biso   1.000  C
  C220     1.0000 0.28700  0.53760  0.97860  Biso   1.000  C
  C221     1.0000 0.78700  0.96240  0.47860  Biso   1.000  C
  C222     1.0000 0.21300  0.96240  0.02140  Biso   1.000  C
  C223     1.0000 0.28700  0.46240  0.47860  Biso   1.000  C
  C224     1.0000 0.71300  0.46240  0.02140  Biso   1.000  C
  H177     1.0000 0.24280  0.00110  0.53510  Biso   1.000  H
  H178     1.0000 0.75720  0.00110  0.96490  Biso   1.000  H
  H179     1.0000 0.74280  0.50110  0.53510  Biso   1.000  H
  H180     1.0000 0.25720  0.50110  0.96490  Biso   1.000  H
  H181     1.0000 0.75720  0.99890  0.46490  Biso   1.000  H
  H182     1.0000 0.24280  0.99890  0.03510  Biso   1.000  H
  H183     1.0000 0.25720  0.49890  0.46490  Biso   1.000  H
  H184     1.0000 0.74280  0.49890  0.03510  Biso   1.000  H
  C225     1.0000 0.24730  0.10010  0.57680  Biso   1.000  C
  C226     1.0000 0.75270  0.10010  0.92320  Biso   1.000  C
  C227     1.0000 0.74730  0.60010  0.57680  Biso   1.000  C
  C228     1.0000 0.25270  0.60010  0.92320  Biso   1.000  C
  C229     1.0000 0.75270  0.89990  0.42320  Biso   1.000  C
  C230     1.0000 0.24730  0.89990  0.07680  Biso   1.000  C
  C231     1.0000 0.25270  0.39990  0.42320  Biso   1.000  C
  C232     1.0000 0.74730  0.39990  0.07680  Biso   1.000  C
  H185     1.0000 0.30060  0.10780  0.62570  Biso   1.000  H
  H186     1.0000 0.69940  0.10780  0.87430  Biso   1.000  H
  H187     1.0000 0.80060  0.60780  0.62570  Biso   1.000  H
  H188     1.0000 0.19940  0.60780  0.87430  Biso   1.000  H
  H189     1.0000 0.69940  0.89220  0.37430  Biso   1.000  H
  H190     1.0000 0.30060  0.89220  0.12570  Biso   1.000  H
  H191     1.0000 0.19940  0.39220  0.37430  Biso   1.000  H
  H192     1.0000 0.80060  0.39220  0.12570  Biso   1.000  H
  C233     1.0000 0.20420  0.15470  0.56270  Biso   1.000  C
  C234     1.0000 0.79580  0.15470  0.93730  Biso   1.000  C
  C235     1.0000 0.70420  0.65470  0.56270  Biso   1.000  C
  C236     1.0000 0.29580  0.65470  0.93730  Biso   1.000  C
  C237     1.0000 0.79580  0.84530  0.43730  Biso   1.000  C
  C238     1.0000 0.20420  0.84530  0.06270  Biso   1.000  C
  C239     1.0000 0.29580  0.34530  0.43730  Biso   1.000  C
  C240     1.0000 0.70420  0.34530  0.06270  Biso   1.000  C
  H193     1.0000 0.22920  0.19500  0.60310  Biso   1.000  H
  H194     1.0000 0.77080  0.19500  0.89690  Biso   1.000  H
  H195     1.0000 0.72920  0.69500  0.60310  Biso   1.000  H
  H196     1.0000 0.27080  0.69500  0.89690  Biso   1.000  H
  H197     1.0000 0.77080  0.80500  0.39690  Biso   1.000  H
  H198     1.0000 0.22920  0.80500  0.10310  Biso   1.000  H
  H199     1.0000 0.27080  0.30500  0.39690  Biso   1.000  H
  H200     1.0000 0.72920  0.30500  0.10310  Biso   1.000  H
  C241     1.0000 0.12150  0.14380  0.48400  Biso   1.000  C
  C242     1.0000 0.87850  0.14380  0.01600  Biso   1.000  C
  C243     1.0000 0.62150  0.64380  0.48400  Biso   1.000  C
  C244     1.0000 0.37850  0.64380  0.01600  Biso   1.000  C
  C245     1.0000 0.87850  0.85620  0.51600  Biso   1.000  C
  C246     1.0000 0.12150  0.85620  0.98400  Biso   1.000  C
  C247     1.0000 0.37850  0.35620  0.51600  Biso   1.000  C
  C248     1.0000 0.62150  0.35620  0.98400  Biso   1.000  C
  C249     1.0000 0.08540  0.08460  0.42470  Biso   1.000  C
  C250     1.0000 0.91460  0.08460  0.07530  Biso   1.000  C
  C251     1.0000 0.58540  0.58460  0.42470  Biso   1.000  C
  C252     1.0000 0.41460  0.58460  0.07530  Biso   1.000  C
  C253     1.0000 0.91460  0.91540  0.57530  Biso   1.000  C
  C254     1.0000 0.08540  0.91540  0.92470  Biso   1.000  C
  C255     1.0000 0.41460  0.41540  0.57530  Biso   1.000  C
  C256     1.0000 0.58540  0.41540  0.92470  Biso   1.000  C
  H201     1.0000 0.03140  0.07960  0.37270  Biso   1.000  H
  H202     1.0000 0.96860  0.07960  0.12730  Biso   1.000  H
  H203     1.0000 0.53140  0.57960  0.37270  Biso   1.000  H
  H204     1.0000 0.46860  0.57960  0.12730  Biso   1.000  H
  H205     1.0000 0.96860  0.92040  0.62730  Biso   1.000  H
  H206     1.0000 0.03140  0.92040  0.87270  Biso   1.000  H
  H207     1.0000 0.46860  0.42040  0.62730  Biso   1.000  H
  H208     1.0000 0.53140  0.42040  0.87270  Biso   1.000  H
  C257     1.0000 0.07930  0.20190  0.46790  Biso   1.000  C
  C258     1.0000 0.92070  0.20190  0.03210  Biso   1.000  C
  C259     1.0000 0.57930  0.70190  0.46790  Biso   1.000  C
  C260     1.0000 0.42070  0.70190  0.03210  Biso   1.000  C
  C261     1.0000 0.92070  0.79810  0.53210  Biso   1.000  C
  C262     1.0000 0.07930  0.79810  0.96790  Biso   1.000  C
  C263     1.0000 0.42070  0.29810  0.53210  Biso   1.000  C
  C264     1.0000 0.57930  0.29810  0.96790  Biso   1.000  C
  C265     1.0000 0.07890  0.78990  0.49680  Biso   1.000  C
  C266     1.0000 0.92110  0.78990  0.00320  Biso   1.000  C
  C267     1.0000 0.57890  0.28990  0.49680  Biso   1.000  C
  C268     1.0000 0.42110  0.28990  0.00320  Biso   1.000  C
  C269     1.0000 0.92110  0.21010  0.50320  Biso   1.000  C
  C270     1.0000 0.07890  0.21010  0.99680  Biso   1.000  C
  C271     1.0000 0.42110  0.71010  0.50320  Biso   1.000  C
  C272     1.0000 0.57890  0.71010  0.99680  Biso   1.000  C
  C273     1.0000 0.01590  0.78670  0.46470  Biso   1.000  C
  C274     1.0000 0.98410  0.78670  0.03530  Biso   1.000  C
  C275     1.0000 0.51590  0.28670  0.46470  Biso   1.000  C
  C276     1.0000 0.48410  0.28670  0.03530  Biso   1.000  C
  C277     1.0000 0.98410  0.21330  0.53530  Biso   1.000  C
  C278     1.0000 0.01590  0.21330  0.96470  Biso   1.000  C
  C279     1.0000 0.48410  0.71330  0.53530  Biso   1.000  C
  C280     1.0000 0.51590  0.71330  0.96470  Biso   1.000  C
  H209     1.0000 0.96460  0.79160  0.40330  Biso   1.000  H
  H210     1.0000 0.03540  0.79160  0.09670  Biso   1.000  H
  H211     1.0000 0.46460  0.29160  0.40330  Biso   1.000  H
  H212     1.0000 0.53540  0.29160  0.09670  Biso   1.000  H
  H213     1.0000 0.03540  0.20840  0.59670  Biso   1.000  H
  H214     1.0000 0.96460  0.20840  0.90330  Biso   1.000  H
  H215     1.0000 0.53540  0.70840  0.59670  Biso   1.000  H
  H216     1.0000 0.46460  0.70840  0.90330  Biso   1.000  H
  C281     1.0000 0.03570  0.77500  0.53540  Biso   1.000  C
  C282     1.0000 0.96430  0.77500  0.96460  Biso   1.000  C
  C283     1.0000 0.53570  0.27500  0.53540  Biso   1.000  C
  C284     1.0000 0.46430  0.27500  0.96460  Biso   1.000  C
  C285     1.0000 0.96430  0.22500  0.46460  Biso   1.000  C
  C286     1.0000 0.03570  0.22500  0.03540  Biso   1.000  C
  C287     1.0000 0.46430  0.72500  0.46460  Biso   1.000  C
  C288     1.0000 0.53570  0.72500  0.03540  Biso   1.000  C
  H217     1.0000 0.99640  0.77460  0.51900  Biso   1.000  H
  H218     1.0000 0.00360  0.77460  0.98100  Biso   1.000  H
  H219     1.0000 0.49640  0.27460  0.51900  Biso   1.000  H
  H220     1.0000 0.50360  0.27460  0.98100  Biso   1.000  H
  H221     1.0000 0.00360  0.22540  0.48100  Biso   1.000  H
  H222     1.0000 0.99640  0.22540  0.01900  Biso   1.000  H
  H223     1.0000 0.50360  0.72540  0.48100  Biso   1.000  H
  H224     1.0000 0.49640  0.72540  0.01900  Biso   1.000  H
  C289     1.0000 0.11300  0.76490  0.62530  Biso   1.000  C
  C290     1.0000 0.88700  0.76490  0.87470  Biso   1.000  C
  C291     1.0000 0.61300  0.26490  0.62530  Biso   1.000  C
  C292     1.0000 0.38700  0.26490  0.87470  Biso   1.000  C
  C293     1.0000 0.88700  0.23510  0.37470  Biso   1.000  C
  C294     1.0000 0.11300  0.23510  0.12530  Biso   1.000  C
  C295     1.0000 0.38700  0.73510  0.37470  Biso   1.000  C
  C296     1.0000 0.61300  0.73510  0.12530  Biso   1.000  C
  H225     1.0000 0.12550  0.75510  0.66910  Biso   1.000  H
  H226     1.0000 0.87450  0.75510  0.83090  Biso   1.000  H
  H227     1.0000 0.62550  0.25510  0.66910  Biso   1.000  H
  H228     1.0000 0.37450  0.25510  0.83090  Biso   1.000  H
  H229     1.0000 0.87450  0.24490  0.33090  Biso   1.000  H
  H230     1.0000 0.12550  0.24490  0.16910  Biso   1.000  H
  H231     1.0000 0.37450  0.74490  0.33090  Biso   1.000  H
  H232     1.0000 0.62550  0.74490  0.16910  Biso   1.000  H
  C297     1.0000 0.17060  0.76910  0.64980  Biso   1.000  C
  C298     1.0000 0.82940  0.76910  0.85020  Biso   1.000  C
  C299     1.0000 0.67060  0.26910  0.64980  Biso   1.000  C
  C300     1.0000 0.32940  0.26910  0.85020  Biso   1.000  C
  C301     1.0000 0.82940  0.23090  0.35020  Biso   1.000  C
  C302     1.0000 0.17060  0.23090  0.14980  Biso   1.000  C
  C303     1.0000 0.32940  0.73090  0.35020  Biso   1.000  C
  C304     1.0000 0.67060  0.73090  0.14980  Biso   1.000  C
  C305     1.0000 0.15110  0.78000  0.58080  Biso   1.000  C
  C306     1.0000 0.84890  0.78000  0.91920  Biso   1.000  C
  C307     1.0000 0.65110  0.28000  0.58080  Biso   1.000  C
  C308     1.0000 0.34890  0.28000  0.91920  Biso   1.000  C
  C309     1.0000 0.84890  0.22000  0.41920  Biso   1.000  C
  C310     1.0000 0.15110  0.22000  0.08080  Biso   1.000  C
  C311     1.0000 0.34890  0.72000  0.41920  Biso   1.000  C
  C312     1.0000 0.65110  0.72000  0.08080  Biso   1.000  C
  H233     1.0000 0.19030  0.77990  0.59710  Biso   1.000  H
  H234     1.0000 0.80970  0.77990  0.90290  Biso   1.000  H
  H235     1.0000 0.69030  0.27990  0.59710  Biso   1.000  H
  H236     1.0000 0.30970  0.27990  0.90290  Biso   1.000  H
  H237     1.0000 0.80970  0.22010  0.40290  Biso   1.000  H
  H238     1.0000 0.19030  0.22010  0.09710  Biso   1.000  H
  H239     1.0000 0.30970  0.72010  0.40290  Biso   1.000  H
  H240     1.0000 0.69030  0.72010  0.09710  Biso   1.000  H
  C313     1.0000 0.25610  0.75600  0.75000  Biso   1.000  C
  C314     1.0000 0.74390  0.75600  0.75000  Biso   1.000  C
  C315     1.0000 0.75610  0.25600  0.75000  Biso   1.000  C
  C316     1.0000 0.24390  0.25600  0.75000  Biso   1.000  C
  C317     1.0000 0.74390  0.24400  0.25000  Biso   1.000  C
  C318     1.0000 0.25610  0.24400  0.25000  Biso   1.000  C
  C319     1.0000 0.24390  0.74400  0.25000  Biso   1.000  C
  C320     1.0000 0.75610  0.74400  0.25000  Biso   1.000  C
  C321     1.0000 0.91710  0.59100  0.27170  Biso   1.000  C
  C322     1.0000 0.08290  0.59100  0.22830  Biso   1.000  C
  C323     1.0000 0.41710  0.09100  0.27170  Biso   1.000  C
  C324     1.0000 0.58290  0.09100  0.22830  Biso   1.000  C
  C325     1.0000 0.08290  0.40900  0.72830  Biso   1.000  C
  C326     1.0000 0.91710  0.40900  0.77170  Biso   1.000  C
  C327     1.0000 0.58290  0.90900  0.72830  Biso   1.000  C
  C328     1.0000 0.41710  0.90900  0.77170  Biso   1.000  C
  C329     1.0000 0.86510  0.60560  0.25720  Biso   1.000  C
  C330     1.0000 0.13490  0.60560  0.24280  Biso   1.000  C
  C331     1.0000 0.36510  0.10560  0.25720  Biso   1.000  C
  C332     1.0000 0.63490  0.10560  0.24280  Biso   1.000  C
  C333     1.0000 0.13490  0.39440  0.74280  Biso   1.000  C
  C334     1.0000 0.86510  0.39440  0.75720  Biso   1.000  C
  C335     1.0000 0.63490  0.89440  0.74280  Biso   1.000  C
  C336     1.0000 0.36510  0.89440  0.75720  Biso   1.000  C
  H241     1.0000 0.84580  0.65500  0.24350  Biso   1.000  H
  H242     1.0000 0.15420  0.65500  0.25650  Biso   1.000  H
  H243     1.0000 0.34580  0.15500  0.24350  Biso   1.000  H
  H244     1.0000 0.65420  0.15500  0.25650  Biso   1.000  H
  H245     1.0000 0.15420  0.34500  0.75650  Biso   1.000  H
  H246     1.0000 0.84580  0.34500  0.74350  Biso   1.000  H
  H247     1.0000 0.65420  0.84500  0.75650  Biso   1.000  H
  H248     1.0000 0.34580  0.84500  0.74350  Biso   1.000  H
  C337     1.0000 0.84380  0.54510  0.26370  Biso   1.000  C
  C338     1.0000 0.15620  0.54510  0.23630  Biso   1.000  C
  C339     1.0000 0.34380  0.04510  0.26370  Biso   1.000  C
  C340     1.0000 0.65620  0.04510  0.23630  Biso   1.000  C
  C341     1.0000 0.15620  0.45490  0.73630  Biso   1.000  C
  C342     1.0000 0.84380  0.45490  0.76370  Biso   1.000  C
  C343     1.0000 0.65620  0.95490  0.73630  Biso   1.000  C
  C344     1.0000 0.34380  0.95490  0.76370  Biso   1.000  C
  H249     1.0000 0.80890  0.55270  0.25370  Biso   1.000  H
  H250     1.0000 0.19110  0.55270  0.24630  Biso   1.000  H
  H251     1.0000 0.30890  0.05270  0.25370  Biso   1.000  H
  H252     1.0000 0.69110  0.05270  0.24630  Biso   1.000  H
  H253     1.0000 0.19110  0.44730  0.74630  Biso   1.000  H
  H254     1.0000 0.80890  0.44730  0.75370  Biso   1.000  H
  H255     1.0000 0.69110  0.94730  0.74630  Biso   1.000  H
  H256     1.0000 0.30890  0.94730  0.75370  Biso   1.000  H
  C345     1.0000 0.87270  0.47490  0.28420  Biso   1.000  C
  C346     1.0000 0.12730  0.47490  0.21580  Biso   1.000  C
  C347     1.0000 0.37270  0.97490  0.28420  Biso   1.000  C
  C348     1.0000 0.62730  0.97490  0.21580  Biso   1.000  C
  C349     1.0000 0.12730  0.52510  0.71580  Biso   1.000  C
  C350     1.0000 0.87270  0.52510  0.78420  Biso   1.000  C
  C351     1.0000 0.62730  0.02510  0.71580  Biso   1.000  C
  C352     1.0000 0.37270  0.02510  0.78420  Biso   1.000  C
  H257     1.0000 0.85590  0.43330  0.28570  Biso   1.000  H
  H258     1.0000 0.14410  0.43330  0.21430  Biso   1.000  H
  H259     1.0000 0.35590  0.93330  0.28570  Biso   1.000  H
  H260     1.0000 0.64410  0.93330  0.21430  Biso   1.000  H
  H261     1.0000 0.14410  0.56670  0.71430  Biso   1.000  H
  H262     1.0000 0.85590  0.56670  0.78570  Biso   1.000  H
  H263     1.0000 0.64410  0.06670  0.71430  Biso   1.000  H
  H264     1.0000 0.35590  0.06670  0.78570  Biso   1.000  H
  C353     1.0000 0.92800  0.46340  0.30360  Biso   1.000  C
  C354     1.0000 0.07200  0.46340  0.19640  Biso   1.000  C
  C355     1.0000 0.42800  0.96340  0.30360  Biso   1.000  C
  C356     1.0000 0.57200  0.96340  0.19640  Biso   1.000  C
  C357     1.0000 0.07200  0.53660  0.69640  Biso   1.000  C
  C358     1.0000 0.92800  0.53660  0.80360  Biso   1.000  C
  C359     1.0000 0.57200  0.03660  0.69640  Biso   1.000  C
  C360     1.0000 0.42800  0.03660  0.80360  Biso   1.000  C
  C361     1.0000 0.95030  0.52270  0.29790  Biso   1.000  C
  C362     1.0000 0.04970  0.52270  0.20210  Biso   1.000  C
  C363     1.0000 0.45030  0.02270  0.29790  Biso   1.000  C
  C364     1.0000 0.54970  0.02270  0.20210  Biso   1.000  C
  C365     1.0000 0.04970  0.47730  0.70210  Biso   1.000  C
  C366     1.0000 0.95030  0.47730  0.79790  Biso   1.000  C
  C367     1.0000 0.54970  0.97730  0.70210  Biso   1.000  C
  C368     1.0000 0.45030  0.97730  0.79790  Biso   1.000  C
  H265     1.0000 0.98790  0.51580  0.31190  Biso   1.000  H
  H266     1.0000 0.01210  0.51580  0.18810  Biso   1.000  H
  H267     1.0000 0.48790  0.01580  0.31190  Biso   1.000  H
  H268     1.0000 0.51210  0.01580  0.18810  Biso   1.000  H
  H269     1.0000 0.01210  0.48420  0.68810  Biso   1.000  H
  H270     1.0000 0.98790  0.48420  0.81190  Biso   1.000  H
  H271     1.0000 0.51210  0.98420  0.68810  Biso   1.000  H
  H272     1.0000 0.48790  0.98420  0.81190  Biso   1.000  H
  C369     1.0000 0.95710  0.38420  0.32160  Biso   1.000  C
  C370     1.0000 0.04290  0.38420  0.17840  Biso   1.000  C
  C371     1.0000 0.45710  0.88420  0.32160  Biso   1.000  C
  C372     1.0000 0.54290  0.88420  0.17840  Biso   1.000  C
  C373     1.0000 0.04290  0.61580  0.67840  Biso   1.000  C
  C374     1.0000 0.95710  0.61580  0.82160  Biso   1.000  C
  C375     1.0000 0.54290  0.11580  0.67840  Biso   1.000  C
  C376     1.0000 0.45710  0.11580  0.82160  Biso   1.000  C
  O1       1.0000 0.09750  0.96820  0.38730  Biso   1.000  O
  O2       1.0000 0.90250  0.96820  0.11270  Biso   1.000  O
  O3       1.0000 0.59750  0.46820  0.38730  Biso   1.000  O
  O4       1.0000 0.40250  0.46820  0.11270  Biso   1.000  O
  O5       1.0000 0.90250  0.03180  0.61270  Biso   1.000  O
  O6       1.0000 0.09750  0.03180  0.88730  Biso   1.000  O
  O7       1.0000 0.40250  0.53180  0.61270  Biso   1.000  O
  O8       1.0000 0.59750  0.53180  0.88730  Biso   1.000  O
  O9       1.0000 0.10570  0.24410  0.52450  Biso   1.000  O
  O10      1.0000 0.89430  0.24410  0.97550  Biso   1.000  O
  O11      1.0000 0.60570  0.74410  0.52450  Biso   1.000  O
  O12      1.0000 0.39430  0.74410  0.97550  Biso   1.000  O
  O13      1.0000 0.89430  0.75590  0.47550  Biso   1.000  O
  O14      1.0000 0.10570  0.75590  0.02450  Biso   1.000  O
  O15      1.0000 0.39430  0.25590  0.47550  Biso   1.000  O
  O16      1.0000 0.60570  0.25590  0.02450  Biso   1.000  O
  O17      1.0000 0.07610  0.80000  0.44180  Biso   1.000  O
  O18      1.0000 0.92390  0.80000  0.05820  Biso   1.000  O
  O19      1.0000 0.57610  0.30000  0.44180  Biso   1.000  O
  O20      1.0000 0.42390  0.30000  0.05820  Biso   1.000  O
  O21      1.0000 0.92390  0.20000  0.55820  Biso   1.000  O
  O22      1.0000 0.07610  0.20000  0.94180  Biso   1.000  O
  O23      1.0000 0.42390  0.70000  0.55820  Biso   1.000  O
  O24      1.0000 0.57610  0.70000  0.94180  Biso   1.000  O
  O25      1.0000 0.25930  0.75380  0.79760  Biso   1.000  O
  O26      1.0000 0.74070  0.75380  0.70240  Biso   1.000  O
  O27      1.0000 0.75930  0.25380  0.79760  Biso   1.000  O
  O28      1.0000 0.24070  0.25380  0.70240  Biso   1.000  O
  O29      1.0000 0.74070  0.24620  0.20240  Biso   1.000  O
  O30      1.0000 0.25930  0.24620  0.29760  Biso   1.000  O
  O31      1.0000 0.24070  0.74620  0.20240  Biso   1.000  O
  O32      1.0000 0.75930  0.74620  0.29760  Biso   1.000  O
  O33      1.0000 0.30700  0.75060  0.77310  Biso   1.000  O
  O34      1.0000 0.69300  0.75060  0.72690  Biso   1.000  O
  O35      1.0000 0.80700  0.25060  0.77310  Biso   1.000  O
  O36      1.0000 0.19300  0.25060  0.72690  Biso   1.000  O
  O37      1.0000 0.69300  0.24940  0.22690  Biso   1.000  O
  O38      1.0000 0.30700  0.24940  0.27310  Biso   1.000  O
  O39      1.0000 0.19300  0.74940  0.22690  Biso   1.000  O
  O40      1.0000 0.80700  0.74940  0.27310  Biso   1.000  O
  O41      1.0000 0.93260  0.65590  0.25840  Biso   1.000  O
  O42      1.0000 0.06740  0.65590  0.24160  Biso   1.000  O
  O43      1.0000 0.43260  0.15590  0.25840  Biso   1.000  O
  O44      1.0000 0.56740  0.15590  0.24160  Biso   1.000  O
  O45      1.0000 0.06740  0.34410  0.74160  Biso   1.000  O
  O46      1.0000 0.93260  0.34410  0.75840  Biso   1.000  O
  O47      1.0000 0.56740  0.84410  0.74160  Biso   1.000  O
  O48      1.0000 0.43260  0.84410  0.75840  Biso   1.000  O
  O49      1.0000 0.94190  0.33040  0.33660  Biso   1.000  O
  O50      1.0000 0.05810  0.33040  0.16340  Biso   1.000  O
  O51      1.0000 0.44190  0.83040  0.33660  Biso   1.000  O
  O52      1.0000 0.55810  0.83040  0.16340  Biso   1.000  O
  O53      1.0000 0.05810  0.66960  0.66340  Biso   1.000  O
  O54      1.0000 0.94190  0.66960  0.83660  Biso   1.000  O
  O55      1.0000 0.55810  0.16960  0.66340  Biso   1.000  O
  O56      1.0000 0.44190  0.16960  0.83660  Biso   1.000  O
  O57      1.0000 0.99620  0.37330  0.32600  Biso   1.000  O
  O58      1.0000 0.00380  0.37330  0.17400  Biso   1.000  O
  O59      1.0000 0.49620  0.87330  0.32600  Biso   1.000  O
  O60      1.0000 0.50380  0.87330  0.17400  Biso   1.000  O
  O61      1.0000 0.00380  0.62670  0.67400  Biso   1.000  O
  O62      1.0000 0.99620  0.62670  0.82600  Biso   1.000  O
  O63      1.0000 0.50380  0.12670  0.67400  Biso   1.000  O
  O64      1.0000 0.49620  0.12670  0.82600  Biso   1.000  O
  O65      1.0000 0.00840  0.20560  0.38540  Biso   1.000  O
  O66      1.0000 0.99160  0.20560  0.11460  Biso   1.000  O
  O67      1.0000 0.50840  0.70560  0.38540  Biso   1.000  O
  O68      1.0000 0.49160  0.70560  0.11460  Biso   1.000  O
  O69      1.0000 0.99160  0.79440  0.61460  Biso   1.000  O
  O70      1.0000 0.00840  0.79440  0.88540  Biso   1.000  O
  O71      1.0000 0.49160  0.29440  0.61460  Biso   1.000  O
  O72      1.0000 0.50840  0.29440  0.88540  Biso   1.000  O
  H273     1.0000 0.95400  0.21200  0.34000  Biso   1.000  H
  H274     1.0000 0.04600  0.21200  0.16000  Biso   1.000  H
  H275     1.0000 0.45400  0.71200  0.34000  Biso   1.000  H
  H276     1.0000 0.54600  0.71200  0.16000  Biso   1.000  H
  H277     1.0000 0.04600  0.78800  0.66000  Biso   1.000  H
  H278     1.0000 0.95400  0.78800  0.84000  Biso   1.000  H
  H279     1.0000 0.54600  0.28800  0.66000  Biso   1.000  H
  H280     1.0000 0.45400  0.28800  0.84000  Biso   1.000  H
  O73      1.0000 0.50000  0.24600  0.75000  Biso   1.000  O
  O74      1.0000 0.00000  0.74600  0.75000  Biso   1.000  O
  O75      1.0000 0.50000  0.75400  0.25000  Biso   1.000  O
  O76      1.0000 0.00000  0.25400  0.25000  Biso   1.000  O
