data_image0
_cell_length_a       36.0387
_cell_length_b       36.0387
_cell_length_c       36.0387
_cell_angle_alpha    90
_cell_angle_beta     90
_cell_angle_gamma    90

_symmetry_space_group_name_H-M    "P 1"
_symmetry_int_tables_number       1

loop_
  _symmetry_equiv_pos_as_xyz
  'x, y, z'

loop_
  _atom_site_label
  _atom_site_occupancy
  _atom_site_fract_x
  _atom_site_fract_y
  _atom_site_fract_z
  _atom_site_thermal_displace_type
  _atom_site_B_iso_or_equiv
  _atom_site_type_symbol
  Cu1      1.0000 0.51017  0.27776  0.04827  Biso   1.000  Cu
  Cu2      1.0000 0.04827  0.51017  0.27776  Biso   1.000  Cu
  Cu3      1.0000 0.27776  0.04827  0.51017  Biso   1.000  Cu
  Cu4      1.0000 0.02776  0.76017  0.95173  Biso   1.000  Cu
  Cu5      1.0000 0.52776  0.48983  0.79827  Biso   1.000  Cu
  Cu6      1.0000 0.72224  0.26017  0.29827  Biso   1.000  Cu
  Cu7      1.0000 0.26017  0.29827  0.72224  Biso   1.000  Cu
  Cu8      1.0000 0.48983  0.79827  0.52776  Biso   1.000  Cu
  Cu9      1.0000 0.76017  0.95173  0.02776  Biso   1.000  Cu
  Cu10     1.0000 0.79827  0.52776  0.48983  Biso   1.000  Cu
  Cu11     1.0000 0.29827  0.72224  0.26017  Biso   1.000  Cu
  Cu12     1.0000 0.95173  0.02776  0.76017  Biso   1.000  Cu
  Cu13     1.0000 0.51017  0.77776  0.54827  Biso   1.000  Cu
  Cu14     1.0000 0.73983  0.97224  0.04827  Biso   1.000  Cu
  Cu15     1.0000 0.04827  0.01017  0.77776  Biso   1.000  Cu
  Cu16     1.0000 0.20173  0.73983  0.27776  Biso   1.000  Cu
  Cu17     1.0000 0.27776  0.54827  0.01017  Biso   1.000  Cu
  Cu18     1.0000 0.97224  0.20173  0.51017  Biso   1.000  Cu
  Cu19     1.0000 0.52776  0.98983  0.29827  Biso   1.000  Cu
  Cu20     1.0000 0.72224  0.76017  0.79827  Biso   1.000  Cu
  Cu21     1.0000 0.48983  0.29827  0.02776  Biso   1.000  Cu
  Cu22     1.0000 0.76017  0.45173  0.52776  Biso   1.000  Cu
  Cu23     1.0000 0.29827  0.22224  0.76017  Biso   1.000  Cu
  Cu24     1.0000 0.95173  0.52776  0.26017  Biso   1.000  Cu
  Cu25     1.0000 0.01017  0.27776  0.54827  Biso   1.000  Cu
  Cu26     1.0000 0.51017  0.97224  0.20173  Biso   1.000  Cu
  Cu27     1.0000 0.54827  0.51017  0.77776  Biso   1.000  Cu
  Cu28     1.0000 0.04827  0.73983  0.97224  Biso   1.000  Cu
  Cu29     1.0000 0.77776  0.04827  0.01017  Biso   1.000  Cu
  Cu30     1.0000 0.27776  0.20173  0.73983  Biso   1.000  Cu
  Cu31     1.0000 0.52776  0.76017  0.45173  Biso   1.000  Cu
  Cu32     1.0000 0.02776  0.48983  0.29827  Biso   1.000  Cu
  Cu33     1.0000 0.76017  0.29827  0.22224  Biso   1.000  Cu
  Cu34     1.0000 0.26017  0.95173  0.52776  Biso   1.000  Cu
  Cu35     1.0000 0.29827  0.52776  0.98983  Biso   1.000  Cu
  Cu36     1.0000 0.79827  0.72224  0.76017  Biso   1.000  Cu
  Cu37     1.0000 0.01017  0.77776  0.04827  Biso   1.000  Cu
  Cu38     1.0000 0.73983  0.27776  0.20173  Biso   1.000  Cu
  Cu39     1.0000 0.54827  0.01017  0.27776  Biso   1.000  Cu
  Cu40     1.0000 0.20173  0.51017  0.97224  Biso   1.000  Cu
  Cu41     1.0000 0.77776  0.54827  0.51017  Biso   1.000  Cu
  Cu42     1.0000 0.97224  0.04827  0.73983  Biso   1.000  Cu
  Cu43     1.0000 0.52776  0.26017  0.95173  Biso   1.000  Cu
  Cu44     1.0000 0.22224  0.76017  0.29827  Biso   1.000  Cu
  Cu45     1.0000 0.76017  0.79827  0.72224  Biso   1.000  Cu
  Cu46     1.0000 0.98983  0.29827  0.52776  Biso   1.000  Cu
  Cu47     1.0000 0.29827  0.02776  0.48983  Biso   1.000  Cu
  Cu48     1.0000 0.45173  0.52776  0.76017  Biso   1.000  Cu
  Cu49     1.0000 0.73983  0.47224  0.54827  Biso   1.000  Cu
  Cu50     1.0000 0.23983  0.77776  0.20173  Biso   1.000  Cu
  Cu51     1.0000 0.01017  0.97224  0.70173  Biso   1.000  Cu
  Cu52     1.0000 0.54827  0.73983  0.47224  Biso   1.000  Cu
  Cu53     1.0000 0.20173  0.23983  0.77776  Biso   1.000  Cu
  Cu54     1.0000 0.70173  0.01017  0.97224  Biso   1.000  Cu
  Cu55     1.0000 0.47224  0.54827  0.73983  Biso   1.000  Cu
  Cu56     1.0000 0.77776  0.20173  0.23983  Biso   1.000  Cu
  Cu57     1.0000 0.97224  0.70173  0.01017  Biso   1.000  Cu
  Cu58     1.0000 0.22224  0.98983  0.45173  Biso   1.000  Cu
  Cu59     1.0000 0.98983  0.45173  0.22224  Biso   1.000  Cu
  Cu60     1.0000 0.45173  0.22224  0.98983  Biso   1.000  Cu
  Cu61     1.0000 0.23983  0.27776  0.70173  Biso   1.000  Cu
  Cu62     1.0000 0.01017  0.47224  0.20173  Biso   1.000  Cu
  Cu63     1.0000 0.54827  0.23983  0.97224  Biso   1.000  Cu
  Cu64     1.0000 0.70173  0.51017  0.47224  Biso   1.000  Cu
  Cu65     1.0000 0.47224  0.04827  0.23983  Biso   1.000  Cu
  Cu66     1.0000 0.77776  0.70173  0.73983  Biso   1.000  Cu
  Cu67     1.0000 0.02776  0.26017  0.45173  Biso   1.000  Cu
  Cu68     1.0000 0.22224  0.48983  0.95173  Biso   1.000  Cu
  Cu69     1.0000 0.26017  0.79827  0.22224  Biso   1.000  Cu
  Cu70     1.0000 0.98983  0.95173  0.72224  Biso   1.000  Cu
  Cu71     1.0000 0.79827  0.02776  0.98983  Biso   1.000  Cu
  Cu72     1.0000 0.45173  0.72224  0.48983  Biso   1.000  Cu
  Cu73     1.0000 0.23983  0.47224  0.04827  Biso   1.000  Cu
  Cu74     1.0000 0.73983  0.77776  0.70173  Biso   1.000  Cu
  Cu75     1.0000 0.70173  0.23983  0.27776  Biso   1.000  Cu
  Cu76     1.0000 0.20173  0.01017  0.47224  Biso   1.000  Cu
  Cu77     1.0000 0.97224  0.54827  0.23983  Biso   1.000  Cu
  Cu78     1.0000 0.47224  0.70173  0.51017  Biso   1.000  Cu
  Cu79     1.0000 0.72224  0.98983  0.95173  Biso   1.000  Cu
  Cu80     1.0000 0.22224  0.26017  0.79827  Biso   1.000  Cu
  Cu81     1.0000 0.98983  0.79827  0.02776  Biso   1.000  Cu
  Cu82     1.0000 0.48983  0.45173  0.72224  Biso   1.000  Cu
  Cu83     1.0000 0.45173  0.02776  0.26017  Biso   1.000  Cu
  Cu84     1.0000 0.95173  0.22224  0.48983  Biso   1.000  Cu
  Cu85     1.0000 0.23983  0.97224  0.54827  Biso   1.000  Cu
  Cu86     1.0000 0.51017  0.47224  0.70173  Biso   1.000  Cu
  Cu87     1.0000 0.04827  0.23983  0.47224  Biso   1.000  Cu
  Cu88     1.0000 0.70173  0.73983  0.77776  Biso   1.000  Cu
  Cu89     1.0000 0.27776  0.70173  0.23983  Biso   1.000  Cu
  Cu90     1.0000 0.47224  0.20173  0.01017  Biso   1.000  Cu
  Cu91     1.0000 0.72224  0.48983  0.45173  Biso   1.000  Cu
  Cu92     1.0000 0.02776  0.98983  0.79827  Biso   1.000  Cu
  Cu93     1.0000 0.48983  0.95173  0.22224  Biso   1.000  Cu
  Cu94     1.0000 0.26017  0.45173  0.02776  Biso   1.000  Cu
  Cu95     1.0000 0.79827  0.22224  0.26017  Biso   1.000  Cu
  Cu96     1.0000 0.95173  0.72224  0.98983  Biso   1.000  Cu
  Cu97     1.0000 0.48983  0.72224  0.95173  Biso   1.000  Cu
  Cu98     1.0000 0.95173  0.48983  0.72224  Biso   1.000  Cu
  Cu99     1.0000 0.72224  0.95173  0.48983  Biso   1.000  Cu
  Cu100    1.0000 0.47224  0.73983  0.04827  Biso   1.000  Cu
  Cu101    1.0000 0.97224  0.51017  0.70173  Biso   1.000  Cu
  Cu102    1.0000 0.27776  0.23983  0.20173  Biso   1.000  Cu
  Cu103    1.0000 0.23983  0.20173  0.27776  Biso   1.000  Cu
  Cu104    1.0000 0.51017  0.70173  0.97224  Biso   1.000  Cu
  Cu105    1.0000 0.73983  0.04827  0.47224  Biso   1.000  Cu
  Cu106    1.0000 0.70173  0.97224  0.51017  Biso   1.000  Cu
  Cu107    1.0000 0.20173  0.27776  0.23983  Biso   1.000  Cu
  Cu108    1.0000 0.04827  0.47224  0.73983  Biso   1.000  Cu
  Cu109    1.0000 0.48983  0.22224  0.45173  Biso   1.000  Cu
  Cu110    1.0000 0.76017  0.52776  0.95173  Biso   1.000  Cu
  Cu111    1.0000 0.95173  0.98983  0.22224  Biso   1.000  Cu
  Cu112    1.0000 0.29827  0.76017  0.72224  Biso   1.000  Cu
  Cu113    1.0000 0.72224  0.45173  0.98983  Biso   1.000  Cu
  Cu114    1.0000 0.52776  0.29827  0.48983  Biso   1.000  Cu
  Cu115    1.0000 0.97224  0.01017  0.20173  Biso   1.000  Cu
  Cu116    1.0000 0.27776  0.73983  0.70173  Biso   1.000  Cu
  Cu117    1.0000 0.51017  0.20173  0.47224  Biso   1.000  Cu
  Cu118    1.0000 0.73983  0.54827  0.97224  Biso   1.000  Cu
  Cu119    1.0000 0.20173  0.77776  0.73983  Biso   1.000  Cu
  Cu120    1.0000 0.04827  0.97224  0.23983  Biso   1.000  Cu
  Cu121    1.0000 0.98983  0.72224  0.45173  Biso   1.000  Cu
  Cu122    1.0000 0.48983  0.52776  0.29827  Biso   1.000  Cu
  Cu123    1.0000 0.45173  0.48983  0.22224  Biso   1.000  Cu
  Cu124    1.0000 0.95173  0.76017  0.52776  Biso   1.000  Cu
  Cu125    1.0000 0.22224  0.95173  0.98983  Biso   1.000  Cu
  Cu126    1.0000 0.72224  0.29827  0.76017  Biso   1.000  Cu
  Cu127    1.0000 0.97224  0.73983  0.54827  Biso   1.000  Cu
  Cu128    1.0000 0.47224  0.51017  0.20173  Biso   1.000  Cu
  Cu129    1.0000 0.73983  0.20173  0.77776  Biso   1.000  Cu
  Cu130    1.0000 0.23983  0.04827  0.97224  Biso   1.000  Cu
  Cu131    1.0000 0.20173  0.97224  0.01017  Biso   1.000  Cu
  Cu132    1.0000 0.70173  0.27776  0.73983  Biso   1.000  Cu
  Cu133    1.0000 0.98983  0.22224  0.95173  Biso   1.000  Cu
  Cu134    1.0000 0.76017  0.72224  0.29827  Biso   1.000  Cu
  Cu135    1.0000 0.45173  0.98983  0.72224  Biso   1.000  Cu
  Cu136    1.0000 0.29827  0.48983  0.52776  Biso   1.000  Cu
  Cu137    1.0000 0.22224  0.45173  0.48983  Biso   1.000  Cu
  Cu138    1.0000 0.52776  0.95173  0.76017  Biso   1.000  Cu
  Cu139    1.0000 0.97224  0.23983  0.04827  Biso   1.000  Cu
  Cu140    1.0000 0.77776  0.73983  0.20173  Biso   1.000  Cu
  Cu141    1.0000 0.73983  0.70173  0.27776  Biso   1.000  Cu
  Cu142    1.0000 0.01017  0.20173  0.97224  Biso   1.000  Cu
  Cu143    1.0000 0.20173  0.47224  0.51017  Biso   1.000  Cu
  Cu144    1.0000 0.54827  0.97224  0.73983  Biso   1.000  Cu
  Cu145    1.0000 0.76017  0.02776  0.45173  Biso   1.000  Cu
  Cu146    1.0000 0.26017  0.22224  0.29827  Biso   1.000  Cu
  Cu147    1.0000 0.98983  0.52776  0.79827  Biso   1.000  Cu
  Cu148    1.0000 0.45173  0.76017  0.02776  Biso   1.000  Cu
  Cu149    1.0000 0.29827  0.26017  0.22224  Biso   1.000  Cu
  Cu150    1.0000 0.79827  0.98983  0.52776  Biso   1.000  Cu
  Cu151    1.0000 0.02776  0.45173  0.76017  Biso   1.000  Cu
  Cu152    1.0000 0.22224  0.29827  0.26017  Biso   1.000  Cu
  Cu153    1.0000 0.52776  0.79827  0.98983  Biso   1.000  Cu
  Cu154    1.0000 0.77776  0.01017  0.54827  Biso   1.000  Cu
  Cu155    1.0000 0.01017  0.54827  0.77776  Biso   1.000  Cu
  Cu156    1.0000 0.54827  0.77776  0.01017  Biso   1.000  Cu
  Cu157    1.0000 0.26017  0.72224  0.79827  Biso   1.000  Cu
  Cu158    1.0000 0.98983  0.02776  0.29827  Biso   1.000  Cu
  Cu159    1.0000 0.45173  0.26017  0.52776  Biso   1.000  Cu
  Cu160    1.0000 0.79827  0.48983  0.02776  Biso   1.000  Cu
  Cu161    1.0000 0.02776  0.95173  0.26017  Biso   1.000  Cu
  Cu162    1.0000 0.22224  0.79827  0.76017  Biso   1.000  Cu
  Cu163    1.0000 0.47224  0.23983  0.54827  Biso   1.000  Cu
  Cu164    1.0000 0.77776  0.51017  0.04827  Biso   1.000  Cu
  Cu165    1.0000 0.23983  0.70173  0.77776  Biso   1.000  Cu
  Cu166    1.0000 0.01017  0.04827  0.27776  Biso   1.000  Cu
  Cu167    1.0000 0.70173  0.47224  0.01017  Biso   1.000  Cu
  Cu168    1.0000 0.54827  0.27776  0.51017  Biso   1.000  Cu
  Cu169    1.0000 0.26017  0.02776  0.95173  Biso   1.000  Cu
  Cu170    1.0000 0.76017  0.22224  0.79827  Biso   1.000  Cu
  Cu171    1.0000 0.79827  0.26017  0.72224  Biso   1.000  Cu
  Cu172    1.0000 0.29827  0.98983  0.02776  Biso   1.000  Cu
  Cu173    1.0000 0.52776  0.45173  0.26017  Biso   1.000  Cu
  Cu174    1.0000 0.02776  0.79827  0.48983  Biso   1.000  Cu
  Cu175    1.0000 0.27776  0.01017  0.04827  Biso   1.000  Cu
  Cu176    1.0000 0.77776  0.23983  0.70173  Biso   1.000  Cu
  Cu177    1.0000 0.01017  0.70173  0.47224  Biso   1.000  Cu
  Cu178    1.0000 0.51017  0.54827  0.27776  Biso   1.000  Cu
  Cu179    1.0000 0.54827  0.47224  0.23983  Biso   1.000  Cu
  Cu180    1.0000 0.04827  0.77776  0.51017  Biso   1.000  Cu
  Cu181    1.0000 0.26017  0.52776  0.45173  Biso   1.000  Cu
  Cu182    1.0000 0.48983  0.02776  0.79827  Biso   1.000  Cu
  Cu183    1.0000 0.95173  0.26017  0.02776  Biso   1.000  Cu
  Cu184    1.0000 0.79827  0.76017  0.22224  Biso   1.000  Cu
  Cu185    1.0000 0.72224  0.79827  0.26017  Biso   1.000  Cu
  Cu186    1.0000 0.02776  0.29827  0.98983  Biso   1.000  Cu
  Cu187    1.0000 0.27776  0.51017  0.54827  Biso   1.000  Cu
  Cu188    1.0000 0.47224  0.01017  0.70173  Biso   1.000  Cu
  Cu189    1.0000 0.51017  0.04827  0.77776  Biso   1.000  Cu
  Cu190    1.0000 0.23983  0.54827  0.47224  Biso   1.000  Cu
  Cu191    1.0000 0.70173  0.77776  0.23983  Biso   1.000  Cu
  Cu192    1.0000 0.04827  0.27776  0.01017  Biso   1.000  Cu
  N1       1.0000 0.55210  0.30190  0.02150  Biso   1.000  N
  N2       1.0000 0.02150  0.55210  0.30190  Biso   1.000  N
  N3       1.0000 0.30190  0.02150  0.55210  Biso   1.000  N
  N4       1.0000 0.05190  0.80210  0.97850  Biso   1.000  N
  N5       1.0000 0.55190  0.44790  0.77150  Biso   1.000  N
  N6       1.0000 0.69810  0.30210  0.27150  Biso   1.000  N
  N7       1.0000 0.30210  0.27150  0.69810  Biso   1.000  N
  N8       1.0000 0.44790  0.77150  0.55190  Biso   1.000  N
  N9       1.0000 0.80210  0.97850  0.05190  Biso   1.000  N
  N10      1.0000 0.77150  0.55190  0.44790  Biso   1.000  N
  N11      1.0000 0.27150  0.69810  0.30210  Biso   1.000  N
  N12      1.0000 0.97850  0.05190  0.80210  Biso   1.000  N
  N13      1.0000 0.55210  0.80190  0.52150  Biso   1.000  N
  N14      1.0000 0.69790  0.94810  0.02150  Biso   1.000  N
  N15      1.0000 0.02150  0.05210  0.80190  Biso   1.000  N
  N16      1.0000 0.22850  0.69790  0.30190  Biso   1.000  N
  N17      1.0000 0.30190  0.52150  0.05210  Biso   1.000  N
  N18      1.0000 0.94810  0.22850  0.55210  Biso   1.000  N
  N19      1.0000 0.55190  0.94790  0.27150  Biso   1.000  N
  N20      1.0000 0.69810  0.80210  0.77150  Biso   1.000  N
  N21      1.0000 0.44790  0.27150  0.05190  Biso   1.000  N
  N22      1.0000 0.80210  0.47850  0.55190  Biso   1.000  N
  N23      1.0000 0.27150  0.19810  0.80210  Biso   1.000  N
  N24      1.0000 0.97850  0.55190  0.30210  Biso   1.000  N
  N25      1.0000 0.05210  0.30190  0.52150  Biso   1.000  N
  N26      1.0000 0.55210  0.94810  0.22850  Biso   1.000  N
  N27      1.0000 0.52150  0.55210  0.80190  Biso   1.000  N
  N28      1.0000 0.02150  0.69790  0.94810  Biso   1.000  N
  N29      1.0000 0.80190  0.02150  0.05210  Biso   1.000  N
  N30      1.0000 0.30190  0.22850  0.69790  Biso   1.000  N
  N31      1.0000 0.55190  0.80210  0.47850  Biso   1.000  N
  N32      1.0000 0.05190  0.44790  0.27150  Biso   1.000  N
  N33      1.0000 0.80210  0.27150  0.19810  Biso   1.000  N
  N34      1.0000 0.30210  0.97850  0.55190  Biso   1.000  N
  N35      1.0000 0.27150  0.55190  0.94790  Biso   1.000  N
  N36      1.0000 0.77150  0.69810  0.80210  Biso   1.000  N
  N37      1.0000 0.05210  0.80190  0.02150  Biso   1.000  N
  N38      1.0000 0.69790  0.30190  0.22850  Biso   1.000  N
  N39      1.0000 0.52150  0.05210  0.30190  Biso   1.000  N
  N40      1.0000 0.22850  0.55210  0.94810  Biso   1.000  N
  N41      1.0000 0.80190  0.52150  0.55210  Biso   1.000  N
  N42      1.0000 0.94810  0.02150  0.69790  Biso   1.000  N
  N43      1.0000 0.55190  0.30210  0.97850  Biso   1.000  N
  N44      1.0000 0.19810  0.80210  0.27150  Biso   1.000  N
  N45      1.0000 0.80210  0.77150  0.69810  Biso   1.000  N
  N46      1.0000 0.94790  0.27150  0.55190  Biso   1.000  N
  N47      1.0000 0.27150  0.05190  0.44790  Biso   1.000  N
  N48      1.0000 0.47850  0.55190  0.80210  Biso   1.000  N
  N49      1.0000 0.69790  0.44810  0.52150  Biso   1.000  N
  N50      1.0000 0.19790  0.80190  0.22850  Biso   1.000  N
  N51      1.0000 0.05210  0.94810  0.72850  Biso   1.000  N
  N52      1.0000 0.52150  0.69790  0.44810  Biso   1.000  N
  N53      1.0000 0.22850  0.19790  0.80190  Biso   1.000  N
  N54      1.0000 0.72850  0.05210  0.94810  Biso   1.000  N
  N55      1.0000 0.44810  0.52150  0.69790  Biso   1.000  N
  N56      1.0000 0.80190  0.22850  0.19790  Biso   1.000  N
  N57      1.0000 0.94810  0.72850  0.05210  Biso   1.000  N
  N58      1.0000 0.19810  0.94790  0.47850  Biso   1.000  N
  N59      1.0000 0.94790  0.47850  0.19810  Biso   1.000  N
  N60      1.0000 0.47850  0.19810  0.94790  Biso   1.000  N
  N61      1.0000 0.19790  0.30190  0.72850  Biso   1.000  N
  N62      1.0000 0.05210  0.44810  0.22850  Biso   1.000  N
  N63      1.0000 0.52150  0.19790  0.94810  Biso   1.000  N
  N64      1.0000 0.72850  0.55210  0.44810  Biso   1.000  N
  N65      1.0000 0.44810  0.02150  0.19790  Biso   1.000  N
  N66      1.0000 0.80190  0.72850  0.69790  Biso   1.000  N
  N67      1.0000 0.05190  0.30210  0.47850  Biso   1.000  N
  N68      1.0000 0.19810  0.44790  0.97850  Biso   1.000  N
  N69      1.0000 0.30210  0.77150  0.19810  Biso   1.000  N
  N70      1.0000 0.94790  0.97850  0.69810  Biso   1.000  N
  N71      1.0000 0.77150  0.05190  0.94790  Biso   1.000  N
  N72      1.0000 0.47850  0.69810  0.44790  Biso   1.000  N
  N73      1.0000 0.19790  0.44810  0.02150  Biso   1.000  N
  N74      1.0000 0.69790  0.80190  0.72850  Biso   1.000  N
  N75      1.0000 0.72850  0.19790  0.30190  Biso   1.000  N
  N76      1.0000 0.22850  0.05210  0.44810  Biso   1.000  N
  N77      1.0000 0.94810  0.52150  0.19790  Biso   1.000  N
  N78      1.0000 0.44810  0.72850  0.55210  Biso   1.000  N
  N79      1.0000 0.69810  0.94790  0.97850  Biso   1.000  N
  N80      1.0000 0.19810  0.30210  0.77150  Biso   1.000  N
  N81      1.0000 0.94790  0.77150  0.05190  Biso   1.000  N
  N82      1.0000 0.44790  0.47850  0.69810  Biso   1.000  N
  N83      1.0000 0.47850  0.05190  0.30210  Biso   1.000  N
  N84      1.0000 0.97850  0.19810  0.44790  Biso   1.000  N
  N85      1.0000 0.19790  0.94810  0.52150  Biso   1.000  N
  N86      1.0000 0.55210  0.44810  0.72850  Biso   1.000  N
  N87      1.0000 0.02150  0.19790  0.44810  Biso   1.000  N
  N88      1.0000 0.72850  0.69790  0.80190  Biso   1.000  N
  N89      1.0000 0.30190  0.72850  0.19790  Biso   1.000  N
  N90      1.0000 0.44810  0.22850  0.05210  Biso   1.000  N
  N91      1.0000 0.69810  0.44790  0.47850  Biso   1.000  N
  N92      1.0000 0.05190  0.94790  0.77150  Biso   1.000  N
  N93      1.0000 0.44790  0.97850  0.19810  Biso   1.000  N
  N94      1.0000 0.30210  0.47850  0.05190  Biso   1.000  N
  N95      1.0000 0.77150  0.19810  0.30210  Biso   1.000  N
  N96      1.0000 0.97850  0.69810  0.94790  Biso   1.000  N
  N97      1.0000 0.44790  0.69810  0.97850  Biso   1.000  N
  N98      1.0000 0.97850  0.44790  0.69810  Biso   1.000  N
  N99      1.0000 0.69810  0.97850  0.44790  Biso   1.000  N
  N100     1.0000 0.44810  0.69790  0.02150  Biso   1.000  N
  N101     1.0000 0.94810  0.55210  0.72850  Biso   1.000  N
  N102     1.0000 0.30190  0.19790  0.22850  Biso   1.000  N
  N103     1.0000 0.19790  0.22850  0.30190  Biso   1.000  N
  N104     1.0000 0.55210  0.72850  0.94810  Biso   1.000  N
  N105     1.0000 0.69790  0.02150  0.44810  Biso   1.000  N
  N106     1.0000 0.72850  0.94810  0.55210  Biso   1.000  N
  N107     1.0000 0.22850  0.30190  0.19790  Biso   1.000  N
  N108     1.0000 0.02150  0.44810  0.69790  Biso   1.000  N
  N109     1.0000 0.44790  0.19810  0.47850  Biso   1.000  N
  N110     1.0000 0.80210  0.55190  0.97850  Biso   1.000  N
  N111     1.0000 0.97850  0.94790  0.19810  Biso   1.000  N
  N112     1.0000 0.27150  0.80210  0.69810  Biso   1.000  N
  N113     1.0000 0.69810  0.47850  0.94790  Biso   1.000  N
  N114     1.0000 0.55190  0.27150  0.44790  Biso   1.000  N
  N115     1.0000 0.94810  0.05210  0.22850  Biso   1.000  N
  N116     1.0000 0.30190  0.69790  0.72850  Biso   1.000  N
  N117     1.0000 0.55210  0.22850  0.44810  Biso   1.000  N
  N118     1.0000 0.69790  0.52150  0.94810  Biso   1.000  N
  N119     1.0000 0.22850  0.80190  0.69790  Biso   1.000  N
  N120     1.0000 0.02150  0.94810  0.19790  Biso   1.000  N
  N121     1.0000 0.94790  0.69810  0.47850  Biso   1.000  N
  N122     1.0000 0.44790  0.55190  0.27150  Biso   1.000  N
  N123     1.0000 0.47850  0.44790  0.19810  Biso   1.000  N
  N124     1.0000 0.97850  0.80210  0.55190  Biso   1.000  N
  N125     1.0000 0.19810  0.97850  0.94790  Biso   1.000  N
  N126     1.0000 0.69810  0.27150  0.80210  Biso   1.000  N
  N127     1.0000 0.94810  0.69790  0.52150  Biso   1.000  N
  N128     1.0000 0.44810  0.55210  0.22850  Biso   1.000  N
  N129     1.0000 0.69790  0.22850  0.80190  Biso   1.000  N
  N130     1.0000 0.19790  0.02150  0.94810  Biso   1.000  N
  N131     1.0000 0.22850  0.94810  0.05210  Biso   1.000  N
  N132     1.0000 0.72850  0.30190  0.69790  Biso   1.000  N
  N133     1.0000 0.94790  0.19810  0.97850  Biso   1.000  N
  N134     1.0000 0.80210  0.69810  0.27150  Biso   1.000  N
  N135     1.0000 0.47850  0.94790  0.69810  Biso   1.000  N
  N136     1.0000 0.27150  0.44790  0.55190  Biso   1.000  N
  N137     1.0000 0.19810  0.47850  0.44790  Biso   1.000  N
  N138     1.0000 0.55190  0.97850  0.80210  Biso   1.000  N
  N139     1.0000 0.94810  0.19790  0.02150  Biso   1.000  N
  N140     1.0000 0.80190  0.69790  0.22850  Biso   1.000  N
  N141     1.0000 0.69790  0.72850  0.30190  Biso   1.000  N
  N142     1.0000 0.05210  0.22850  0.94810  Biso   1.000  N
  N143     1.0000 0.22850  0.44810  0.55210  Biso   1.000  N
  N144     1.0000 0.52150  0.94810  0.69790  Biso   1.000  N
  N145     1.0000 0.80210  0.05190  0.47850  Biso   1.000  N
  N146     1.0000 0.30210  0.19810  0.27150  Biso   1.000  N
  N147     1.0000 0.94790  0.55190  0.77150  Biso   1.000  N
  N148     1.0000 0.47850  0.80210  0.05190  Biso   1.000  N
  N149     1.0000 0.27150  0.30210  0.19810  Biso   1.000  N
  N150     1.0000 0.77150  0.94790  0.55190  Biso   1.000  N
  N151     1.0000 0.05190  0.47850  0.80210  Biso   1.000  N
  N152     1.0000 0.19810  0.27150  0.30210  Biso   1.000  N
  N153     1.0000 0.55190  0.77150  0.94790  Biso   1.000  N
  N154     1.0000 0.80190  0.05210  0.52150  Biso   1.000  N
  N155     1.0000 0.05210  0.52150  0.80190  Biso   1.000  N
  N156     1.0000 0.52150  0.80190  0.05210  Biso   1.000  N
  N157     1.0000 0.30210  0.69810  0.77150  Biso   1.000  N
  N158     1.0000 0.94790  0.05190  0.27150  Biso   1.000  N
  N159     1.0000 0.47850  0.30210  0.55190  Biso   1.000  N
  N160     1.0000 0.77150  0.44790  0.05190  Biso   1.000  N
  N161     1.0000 0.05190  0.97850  0.30210  Biso   1.000  N
  N162     1.0000 0.19810  0.77150  0.80210  Biso   1.000  N
  N163     1.0000 0.44810  0.19790  0.52150  Biso   1.000  N
  N164     1.0000 0.80190  0.55210  0.02150  Biso   1.000  N
  N165     1.0000 0.19790  0.72850  0.80190  Biso   1.000  N
  N166     1.0000 0.05210  0.02150  0.30190  Biso   1.000  N
  N167     1.0000 0.72850  0.44810  0.05210  Biso   1.000  N
  N168     1.0000 0.52150  0.30190  0.55210  Biso   1.000  N
  N169     1.0000 0.30210  0.05190  0.97850  Biso   1.000  N
  N170     1.0000 0.80210  0.19810  0.77150  Biso   1.000  N
  N171     1.0000 0.77150  0.30210  0.69810  Biso   1.000  N
  N172     1.0000 0.27150  0.94790  0.05190  Biso   1.000  N
  N173     1.0000 0.55190  0.47850  0.30210  Biso   1.000  N
  N174     1.0000 0.05190  0.77150  0.44790  Biso   1.000  N
  N175     1.0000 0.30190  0.05210  0.02150  Biso   1.000  N
  N176     1.0000 0.80190  0.19790  0.72850  Biso   1.000  N
  N177     1.0000 0.05210  0.72850  0.44810  Biso   1.000  N
  N178     1.0000 0.55210  0.52150  0.30190  Biso   1.000  N
  N179     1.0000 0.52150  0.44810  0.19790  Biso   1.000  N
  N180     1.0000 0.02150  0.80190  0.55210  Biso   1.000  N
  N181     1.0000 0.30210  0.55190  0.47850  Biso   1.000  N
  N182     1.0000 0.44790  0.05190  0.77150  Biso   1.000  N
  N183     1.0000 0.97850  0.30210  0.05190  Biso   1.000  N
  N184     1.0000 0.77150  0.80210  0.19810  Biso   1.000  N
  N185     1.0000 0.69810  0.77150  0.30210  Biso   1.000  N
  N186     1.0000 0.05190  0.27150  0.94790  Biso   1.000  N
  N187     1.0000 0.30190  0.55210  0.52150  Biso   1.000  N
  N188     1.0000 0.44810  0.05210  0.72850  Biso   1.000  N
  N189     1.0000 0.55210  0.02150  0.80190  Biso   1.000  N
  N190     1.0000 0.19790  0.52150  0.44810  Biso   1.000  N
  N191     1.0000 0.72850  0.80190  0.19790  Biso   1.000  N
  N192     1.0000 0.02150  0.30190  0.05210  Biso   1.000  N
  N193     1.0000 0.57130  0.33250  0.03030  Biso   1.000  N
  N194     1.0000 0.03030  0.57130  0.33250  Biso   1.000  N
  N195     1.0000 0.33250  0.03030  0.57130  Biso   1.000  N
  N196     1.0000 0.08250  0.82130  0.96970  Biso   1.000  N
  N197     1.0000 0.58250  0.42870  0.78030  Biso   1.000  N
  N198     1.0000 0.66750  0.32130  0.28030  Biso   1.000  N
  N199     1.0000 0.32130  0.28030  0.66750  Biso   1.000  N
  N200     1.0000 0.42870  0.78030  0.58250  Biso   1.000  N
  N201     1.0000 0.82130  0.96970  0.08250  Biso   1.000  N
  N202     1.0000 0.78030  0.58250  0.42870  Biso   1.000  N
  N203     1.0000 0.28030  0.66750  0.32130  Biso   1.000  N
  N204     1.0000 0.96970  0.08250  0.82130  Biso   1.000  N
  N205     1.0000 0.57130  0.83250  0.53030  Biso   1.000  N
  N206     1.0000 0.67870  0.91750  0.03030  Biso   1.000  N
  N207     1.0000 0.03030  0.07130  0.83250  Biso   1.000  N
  N208     1.0000 0.21970  0.67870  0.33250  Biso   1.000  N
  N209     1.0000 0.33250  0.53030  0.07130  Biso   1.000  N
  N210     1.0000 0.91750  0.21970  0.57130  Biso   1.000  N
  N211     1.0000 0.58250  0.92870  0.28030  Biso   1.000  N
  N212     1.0000 0.66750  0.82130  0.78030  Biso   1.000  N
  N213     1.0000 0.42870  0.28030  0.08250  Biso   1.000  N
  N214     1.0000 0.82130  0.46970  0.58250  Biso   1.000  N
  N215     1.0000 0.28030  0.16750  0.82130  Biso   1.000  N
  N216     1.0000 0.96970  0.58250  0.32130  Biso   1.000  N
  N217     1.0000 0.07130  0.33250  0.53030  Biso   1.000  N
  N218     1.0000 0.57130  0.91750  0.21970  Biso   1.000  N
  N219     1.0000 0.53030  0.57130  0.83250  Biso   1.000  N
  N220     1.0000 0.03030  0.67870  0.91750  Biso   1.000  N
  N221     1.0000 0.83250  0.03030  0.07130  Biso   1.000  N
  N222     1.0000 0.33250  0.21970  0.67870  Biso   1.000  N
  N223     1.0000 0.58250  0.82130  0.46970  Biso   1.000  N
  N224     1.0000 0.08250  0.42870  0.28030  Biso   1.000  N
  N225     1.0000 0.82130  0.28030  0.16750  Biso   1.000  N
  N226     1.0000 0.32130  0.96970  0.58250  Biso   1.000  N
  N227     1.0000 0.28030  0.58250  0.92870  Biso   1.000  N
  N228     1.0000 0.78030  0.66750  0.82130  Biso   1.000  N
  N229     1.0000 0.07130  0.83250  0.03030  Biso   1.000  N
  N230     1.0000 0.67870  0.33250  0.21970  Biso   1.000  N
  N231     1.0000 0.53030  0.07130  0.33250  Biso   1.000  N
  N232     1.0000 0.21970  0.57130  0.91750  Biso   1.000  N
  N233     1.0000 0.83250  0.53030  0.57130  Biso   1.000  N
  N234     1.0000 0.91750  0.03030  0.67870  Biso   1.000  N
  N235     1.0000 0.58250  0.32130  0.96970  Biso   1.000  N
  N236     1.0000 0.16750  0.82130  0.28030  Biso   1.000  N
  N237     1.0000 0.82130  0.78030  0.66750  Biso   1.000  N
  N238     1.0000 0.92870  0.28030  0.58250  Biso   1.000  N
  N239     1.0000 0.28030  0.08250  0.42870  Biso   1.000  N
  N240     1.0000 0.46970  0.58250  0.82130  Biso   1.000  N
  N241     1.0000 0.67870  0.41750  0.53030  Biso   1.000  N
  N242     1.0000 0.17870  0.83250  0.21970  Biso   1.000  N
  N243     1.0000 0.07130  0.91750  0.71970  Biso   1.000  N
  N244     1.0000 0.53030  0.67870  0.41750  Biso   1.000  N
  N245     1.0000 0.21970  0.17870  0.83250  Biso   1.000  N
  N246     1.0000 0.71970  0.07130  0.91750  Biso   1.000  N
  N247     1.0000 0.41750  0.53030  0.67870  Biso   1.000  N
  N248     1.0000 0.83250  0.21970  0.17870  Biso   1.000  N
  N249     1.0000 0.91750  0.71970  0.07130  Biso   1.000  N
  N250     1.0000 0.16750  0.92870  0.46970  Biso   1.000  N
  N251     1.0000 0.92870  0.46970  0.16750  Biso   1.000  N
  N252     1.0000 0.46970  0.16750  0.92870  Biso   1.000  N
  N253     1.0000 0.17870  0.33250  0.71970  Biso   1.000  N
  N254     1.0000 0.07130  0.41750  0.21970  Biso   1.000  N
  N255     1.0000 0.53030  0.17870  0.91750  Biso   1.000  N
  N256     1.0000 0.71970  0.57130  0.41750  Biso   1.000  N
  N257     1.0000 0.41750  0.03030  0.17870  Biso   1.000  N
  N258     1.0000 0.83250  0.71970  0.67870  Biso   1.000  N
  N259     1.0000 0.08250  0.32130  0.46970  Biso   1.000  N
  N260     1.0000 0.16750  0.42870  0.96970  Biso   1.000  N
  N261     1.0000 0.32130  0.78030  0.16750  Biso   1.000  N
  N262     1.0000 0.92870  0.96970  0.66750  Biso   1.000  N
  N263     1.0000 0.78030  0.08250  0.92870  Biso   1.000  N
  N264     1.0000 0.46970  0.66750  0.42870  Biso   1.000  N
  N265     1.0000 0.17870  0.41750  0.03030  Biso   1.000  N
  N266     1.0000 0.67870  0.83250  0.71970  Biso   1.000  N
  N267     1.0000 0.71970  0.17870  0.33250  Biso   1.000  N
  N268     1.0000 0.21970  0.07130  0.41750  Biso   1.000  N
  N269     1.0000 0.91750  0.53030  0.17870  Biso   1.000  N
  N270     1.0000 0.41750  0.71970  0.57130  Biso   1.000  N
  N271     1.0000 0.66750  0.92870  0.96970  Biso   1.000  N
  N272     1.0000 0.16750  0.32130  0.78030  Biso   1.000  N
  N273     1.0000 0.92870  0.78030  0.08250  Biso   1.000  N
  N274     1.0000 0.42870  0.46970  0.66750  Biso   1.000  N
  N275     1.0000 0.46970  0.08250  0.32130  Biso   1.000  N
  N276     1.0000 0.96970  0.16750  0.42870  Biso   1.000  N
  N277     1.0000 0.17870  0.91750  0.53030  Biso   1.000  N
  N278     1.0000 0.57130  0.41750  0.71970  Biso   1.000  N
  N279     1.0000 0.03030  0.17870  0.41750  Biso   1.000  N
  N280     1.0000 0.71970  0.67870  0.83250  Biso   1.000  N
  N281     1.0000 0.33250  0.71970  0.17870  Biso   1.000  N
  N282     1.0000 0.41750  0.21970  0.07130  Biso   1.000  N
  N283     1.0000 0.66750  0.42870  0.46970  Biso   1.000  N
  N284     1.0000 0.08250  0.92870  0.78030  Biso   1.000  N
  N285     1.0000 0.42870  0.96970  0.16750  Biso   1.000  N
  N286     1.0000 0.32130  0.46970  0.08250  Biso   1.000  N
  N287     1.0000 0.78030  0.16750  0.32130  Biso   1.000  N
  N288     1.0000 0.96970  0.66750  0.92870  Biso   1.000  N
  N289     1.0000 0.42870  0.66750  0.96970  Biso   1.000  N
  N290     1.0000 0.96970  0.42870  0.66750  Biso   1.000  N
  N291     1.0000 0.66750  0.96970  0.42870  Biso   1.000  N
  N292     1.0000 0.41750  0.67870  0.03030  Biso   1.000  N
  N293     1.0000 0.91750  0.57130  0.71970  Biso   1.000  N
  N294     1.0000 0.33250  0.17870  0.21970  Biso   1.000  N
  N295     1.0000 0.17870  0.21970  0.33250  Biso   1.000  N
  N296     1.0000 0.57130  0.71970  0.91750  Biso   1.000  N
  N297     1.0000 0.67870  0.03030  0.41750  Biso   1.000  N
  N298     1.0000 0.71970  0.91750  0.57130  Biso   1.000  N
  N299     1.0000 0.21970  0.33250  0.17870  Biso   1.000  N
  N300     1.0000 0.03030  0.41750  0.67870  Biso   1.000  N
  N301     1.0000 0.42870  0.16750  0.46970  Biso   1.000  N
  N302     1.0000 0.82130  0.58250  0.96970  Biso   1.000  N
  N303     1.0000 0.96970  0.92870  0.16750  Biso   1.000  N
  N304     1.0000 0.28030  0.82130  0.66750  Biso   1.000  N
  N305     1.0000 0.66750  0.46970  0.92870  Biso   1.000  N
  N306     1.0000 0.58250  0.28030  0.42870  Biso   1.000  N
  N307     1.0000 0.91750  0.07130  0.21970  Biso   1.000  N
  N308     1.0000 0.33250  0.67870  0.71970  Biso   1.000  N
  N309     1.0000 0.57130  0.21970  0.41750  Biso   1.000  N
  N310     1.0000 0.67870  0.53030  0.91750  Biso   1.000  N
  N311     1.0000 0.21970  0.83250  0.67870  Biso   1.000  N
  N312     1.0000 0.03030  0.91750  0.17870  Biso   1.000  N
  N313     1.0000 0.92870  0.66750  0.46970  Biso   1.000  N
  N314     1.0000 0.42870  0.58250  0.28030  Biso   1.000  N
  N315     1.0000 0.46970  0.42870  0.16750  Biso   1.000  N
  N316     1.0000 0.96970  0.82130  0.58250  Biso   1.000  N
  N317     1.0000 0.16750  0.96970  0.92870  Biso   1.000  N
  N318     1.0000 0.66750  0.28030  0.82130  Biso   1.000  N
  N319     1.0000 0.91750  0.67870  0.53030  Biso   1.000  N
  N320     1.0000 0.41750  0.57130  0.21970  Biso   1.000  N
  N321     1.0000 0.67870  0.21970  0.83250  Biso   1.000  N
  N322     1.0000 0.17870  0.03030  0.91750  Biso   1.000  N
  N323     1.0000 0.21970  0.91750  0.07130  Biso   1.000  N
  N324     1.0000 0.71970  0.33250  0.67870  Biso   1.000  N
  N325     1.0000 0.92870  0.16750  0.96970  Biso   1.000  N
  N326     1.0000 0.82130  0.66750  0.28030  Biso   1.000  N
  N327     1.0000 0.46970  0.92870  0.66750  Biso   1.000  N
  N328     1.0000 0.28030  0.42870  0.58250  Biso   1.000  N
  N329     1.0000 0.16750  0.46970  0.42870  Biso   1.000  N
  N330     1.0000 0.58250  0.96970  0.82130  Biso   1.000  N
  N331     1.0000 0.91750  0.17870  0.03030  Biso   1.000  N
  N332     1.0000 0.83250  0.67870  0.21970  Biso   1.000  N
  N333     1.0000 0.67870  0.71970  0.33250  Biso   1.000  N
  N334     1.0000 0.07130  0.21970  0.91750  Biso   1.000  N
  N335     1.0000 0.21970  0.41750  0.57130  Biso   1.000  N
  N336     1.0000 0.53030  0.91750  0.67870  Biso   1.000  N
  N337     1.0000 0.82130  0.08250  0.46970  Biso   1.000  N
  N338     1.0000 0.32130  0.16750  0.28030  Biso   1.000  N
  N339     1.0000 0.92870  0.58250  0.78030  Biso   1.000  N
  N340     1.0000 0.46970  0.82130  0.08250  Biso   1.000  N
  N341     1.0000 0.28030  0.32130  0.16750  Biso   1.000  N
  N342     1.0000 0.78030  0.92870  0.58250  Biso   1.000  N
  N343     1.0000 0.08250  0.46970  0.82130  Biso   1.000  N
  N344     1.0000 0.16750  0.28030  0.32130  Biso   1.000  N
  N345     1.0000 0.58250  0.78030  0.92870  Biso   1.000  N
  N346     1.0000 0.83250  0.07130  0.53030  Biso   1.000  N
  N347     1.0000 0.07130  0.53030  0.83250  Biso   1.000  N
  N348     1.0000 0.53030  0.83250  0.07130  Biso   1.000  N
  N349     1.0000 0.32130  0.66750  0.78030  Biso   1.000  N
  N350     1.0000 0.92870  0.08250  0.28030  Biso   1.000  N
  N351     1.0000 0.46970  0.32130  0.58250  Biso   1.000  N
  N352     1.0000 0.78030  0.42870  0.08250  Biso   1.000  N
  N353     1.0000 0.08250  0.96970  0.32130  Biso   1.000  N
  N354     1.0000 0.16750  0.78030  0.82130  Biso   1.000  N
  N355     1.0000 0.41750  0.17870  0.53030  Biso   1.000  N
  N356     1.0000 0.83250  0.57130  0.03030  Biso   1.000  N
  N357     1.0000 0.17870  0.71970  0.83250  Biso   1.000  N
  N358     1.0000 0.07130  0.03030  0.33250  Biso   1.000  N
  N359     1.0000 0.71970  0.41750  0.07130  Biso   1.000  N
  N360     1.0000 0.53030  0.33250  0.57130  Biso   1.000  N
  N361     1.0000 0.32130  0.08250  0.96970  Biso   1.000  N
  N362     1.0000 0.82130  0.16750  0.78030  Biso   1.000  N
  N363     1.0000 0.78030  0.32130  0.66750  Biso   1.000  N
  N364     1.0000 0.28030  0.92870  0.08250  Biso   1.000  N
  N365     1.0000 0.58250  0.46970  0.32130  Biso   1.000  N
  N366     1.0000 0.08250  0.78030  0.42870  Biso   1.000  N
  N367     1.0000 0.33250  0.07130  0.03030  Biso   1.000  N
  N368     1.0000 0.83250  0.17870  0.71970  Biso   1.000  N
  N369     1.0000 0.07130  0.71970  0.41750  Biso   1.000  N
  N370     1.0000 0.57130  0.53030  0.33250  Biso   1.000  N
  N371     1.0000 0.53030  0.41750  0.17870  Biso   1.000  N
  N372     1.0000 0.03030  0.83250  0.57130  Biso   1.000  N
  N373     1.0000 0.32130  0.58250  0.46970  Biso   1.000  N
  N374     1.0000 0.42870  0.08250  0.78030  Biso   1.000  N
  N375     1.0000 0.96970  0.32130  0.08250  Biso   1.000  N
  N376     1.0000 0.78030  0.82130  0.16750  Biso   1.000  N
  N377     1.0000 0.66750  0.78030  0.32130  Biso   1.000  N
  N378     1.0000 0.08250  0.28030  0.92870  Biso   1.000  N
  N379     1.0000 0.33250  0.57130  0.53030  Biso   1.000  N
  N380     1.0000 0.41750  0.07130  0.71970  Biso   1.000  N
  N381     1.0000 0.57130  0.03030  0.83250  Biso   1.000  N
  N382     1.0000 0.17870  0.53030  0.41750  Biso   1.000  N
  N383     1.0000 0.71970  0.83250  0.17870  Biso   1.000  N
  N384     1.0000 0.03030  0.33250  0.07130  Biso   1.000  N
  N385     1.0000 0.53660  0.31830  0.00680  Biso   1.000  N
  N386     1.0000 0.00680  0.53660  0.31830  Biso   1.000  N
  N387     1.0000 0.31830  0.00680  0.53660  Biso   1.000  N
  N388     1.0000 0.06830  0.78660  0.99320  Biso   1.000  N
  N389     1.0000 0.56830  0.46340  0.75680  Biso   1.000  N
  N390     1.0000 0.68170  0.28660  0.25680  Biso   1.000  N
  N391     1.0000 0.28660  0.25680  0.68170  Biso   1.000  N
  N392     1.0000 0.46340  0.75680  0.56830  Biso   1.000  N
  N393     1.0000 0.78660  0.99320  0.06830  Biso   1.000  N
  N394     1.0000 0.75680  0.56830  0.46340  Biso   1.000  N
  N395     1.0000 0.25680  0.68170  0.28660  Biso   1.000  N
  N396     1.0000 0.99320  0.06830  0.78660  Biso   1.000  N
  N397     1.0000 0.53660  0.81830  0.50680  Biso   1.000  N
  N398     1.0000 0.71340  0.93170  0.00680  Biso   1.000  N
  N399     1.0000 0.00680  0.03660  0.81830  Biso   1.000  N
  N400     1.0000 0.24320  0.71340  0.31830  Biso   1.000  N
  N401     1.0000 0.31830  0.50680  0.03660  Biso   1.000  N
  N402     1.0000 0.93170  0.24320  0.53660  Biso   1.000  N
  N403     1.0000 0.56830  0.96340  0.25680  Biso   1.000  N
  N404     1.0000 0.68170  0.78660  0.75680  Biso   1.000  N
  N405     1.0000 0.46340  0.25680  0.06830  Biso   1.000  N
  N406     1.0000 0.78660  0.49320  0.56830  Biso   1.000  N
  N407     1.0000 0.25680  0.18170  0.78660  Biso   1.000  N
  N408     1.0000 0.99320  0.56830  0.28660  Biso   1.000  N
  N409     1.0000 0.03660  0.31830  0.50680  Biso   1.000  N
  N410     1.0000 0.53660  0.93170  0.24320  Biso   1.000  N
  N411     1.0000 0.50680  0.53660  0.81830  Biso   1.000  N
  N412     1.0000 0.00680  0.71340  0.93170  Biso   1.000  N
  N413     1.0000 0.81830  0.00680  0.03660  Biso   1.000  N
  N414     1.0000 0.31830  0.24320  0.71340  Biso   1.000  N
  N415     1.0000 0.56830  0.78660  0.49320  Biso   1.000  N
  N416     1.0000 0.06830  0.46340  0.25680  Biso   1.000  N
  N417     1.0000 0.78660  0.25680  0.18170  Biso   1.000  N
  N418     1.0000 0.28660  0.99320  0.56830  Biso   1.000  N
  N419     1.0000 0.25680  0.56830  0.96340  Biso   1.000  N
  N420     1.0000 0.75680  0.68170  0.78660  Biso   1.000  N
  N421     1.0000 0.03660  0.81830  0.00680  Biso   1.000  N
  N422     1.0000 0.71340  0.31830  0.24320  Biso   1.000  N
  N423     1.0000 0.50680  0.03660  0.31830  Biso   1.000  N
  N424     1.0000 0.24320  0.53660  0.93170  Biso   1.000  N
  N425     1.0000 0.81830  0.50680  0.53660  Biso   1.000  N
  N426     1.0000 0.93170  0.00680  0.71340  Biso   1.000  N
  N427     1.0000 0.56830  0.28660  0.99320  Biso   1.000  N
  N428     1.0000 0.18170  0.78660  0.25680  Biso   1.000  N
  N429     1.0000 0.78660  0.75680  0.68170  Biso   1.000  N
  N430     1.0000 0.96340  0.25680  0.56830  Biso   1.000  N
  N431     1.0000 0.25680  0.06830  0.46340  Biso   1.000  N
  N432     1.0000 0.49320  0.56830  0.78660  Biso   1.000  N
  N433     1.0000 0.71340  0.43170  0.50680  Biso   1.000  N
  N434     1.0000 0.21340  0.81830  0.24320  Biso   1.000  N
  N435     1.0000 0.03660  0.93170  0.74320  Biso   1.000  N
  N436     1.0000 0.50680  0.71340  0.43170  Biso   1.000  N
  N437     1.0000 0.24320  0.21340  0.81830  Biso   1.000  N
  N438     1.0000 0.74320  0.03660  0.93170  Biso   1.000  N
  N439     1.0000 0.43170  0.50680  0.71340  Biso   1.000  N
  N440     1.0000 0.81830  0.24320  0.21340  Biso   1.000  N
  N441     1.0000 0.93170  0.74320  0.03660  Biso   1.000  N
  N442     1.0000 0.18170  0.96340  0.49320  Biso   1.000  N
  N443     1.0000 0.96340  0.49320  0.18170  Biso   1.000  N
  N444     1.0000 0.49320  0.18170  0.96340  Biso   1.000  N
  N445     1.0000 0.21340  0.31830  0.74320  Biso   1.000  N
  N446     1.0000 0.03660  0.43170  0.24320  Biso   1.000  N
  N447     1.0000 0.50680  0.21340  0.93170  Biso   1.000  N
  N448     1.0000 0.74320  0.53660  0.43170  Biso   1.000  N
  N449     1.0000 0.43170  0.00680  0.21340  Biso   1.000  N
  N450     1.0000 0.81830  0.74320  0.71340  Biso   1.000  N
  N451     1.0000 0.06830  0.28660  0.49320  Biso   1.000  N
  N452     1.0000 0.18170  0.46340  0.99320  Biso   1.000  N
  N453     1.0000 0.28660  0.75680  0.18170  Biso   1.000  N
  N454     1.0000 0.96340  0.99320  0.68170  Biso   1.000  N
  N455     1.0000 0.75680  0.06830  0.96340  Biso   1.000  N
  N456     1.0000 0.49320  0.68170  0.46340  Biso   1.000  N
  N457     1.0000 0.21340  0.43170  0.00680  Biso   1.000  N
  N458     1.0000 0.71340  0.81830  0.74320  Biso   1.000  N
  N459     1.0000 0.74320  0.21340  0.31830  Biso   1.000  N
  N460     1.0000 0.24320  0.03660  0.43170  Biso   1.000  N
  N461     1.0000 0.93170  0.50680  0.21340  Biso   1.000  N
  N462     1.0000 0.43170  0.74320  0.53660  Biso   1.000  N
  N463     1.0000 0.68170  0.96340  0.99320  Biso   1.000  N
  N464     1.0000 0.18170  0.28660  0.75680  Biso   1.000  N
  N465     1.0000 0.96340  0.75680  0.06830  Biso   1.000  N
  N466     1.0000 0.46340  0.49320  0.68170  Biso   1.000  N
  N467     1.0000 0.49320  0.06830  0.28660  Biso   1.000  N
  N468     1.0000 0.99320  0.18170  0.46340  Biso   1.000  N
  N469     1.0000 0.21340  0.93170  0.50680  Biso   1.000  N
  N470     1.0000 0.53660  0.43170  0.74320  Biso   1.000  N
  N471     1.0000 0.00680  0.21340  0.43170  Biso   1.000  N
  N472     1.0000 0.74320  0.71340  0.81830  Biso   1.000  N
  N473     1.0000 0.31830  0.74320  0.21340  Biso   1.000  N
  N474     1.0000 0.43170  0.24320  0.03660  Biso   1.000  N
  N475     1.0000 0.68170  0.46340  0.49320  Biso   1.000  N
  N476     1.0000 0.06830  0.96340  0.75680  Biso   1.000  N
  N477     1.0000 0.46340  0.99320  0.18170  Biso   1.000  N
  N478     1.0000 0.28660  0.49320  0.06830  Biso   1.000  N
  N479     1.0000 0.75680  0.18170  0.28660  Biso   1.000  N
  N480     1.0000 0.99320  0.68170  0.96340  Biso   1.000  N
  N481     1.0000 0.46340  0.68170  0.99320  Biso   1.000  N
  N482     1.0000 0.99320  0.46340  0.68170  Biso   1.000  N
  N483     1.0000 0.68170  0.99320  0.46340  Biso   1.000  N
  N484     1.0000 0.43170  0.71340  0.00680  Biso   1.000  N
  N485     1.0000 0.93170  0.53660  0.74320  Biso   1.000  N
  N486     1.0000 0.31830  0.21340  0.24320  Biso   1.000  N
  N487     1.0000 0.21340  0.24320  0.31830  Biso   1.000  N
  N488     1.0000 0.53660  0.74320  0.93170  Biso   1.000  N
  N489     1.0000 0.71340  0.00680  0.43170  Biso   1.000  N
  N490     1.0000 0.74320  0.93170  0.53660  Biso   1.000  N
  N491     1.0000 0.24320  0.31830  0.21340  Biso   1.000  N
  N492     1.0000 0.00680  0.43170  0.71340  Biso   1.000  N
  N493     1.0000 0.46340  0.18170  0.49320  Biso   1.000  N
  N494     1.0000 0.78660  0.56830  0.99320  Biso   1.000  N
  N495     1.0000 0.99320  0.96340  0.18170  Biso   1.000  N
  N496     1.0000 0.25680  0.78660  0.68170  Biso   1.000  N
  N497     1.0000 0.68170  0.49320  0.96340  Biso   1.000  N
  N498     1.0000 0.56830  0.25680  0.46340  Biso   1.000  N
  N499     1.0000 0.93170  0.03660  0.24320  Biso   1.000  N
  N500     1.0000 0.31830  0.71340  0.74320  Biso   1.000  N
  N501     1.0000 0.53660  0.24320  0.43170  Biso   1.000  N
  N502     1.0000 0.71340  0.50680  0.93170  Biso   1.000  N
  N503     1.0000 0.24320  0.81830  0.71340  Biso   1.000  N
  N504     1.0000 0.00680  0.93170  0.21340  Biso   1.000  N
  N505     1.0000 0.96340  0.68170  0.49320  Biso   1.000  N
  N506     1.0000 0.46340  0.56830  0.25680  Biso   1.000  N
  N507     1.0000 0.49320  0.46340  0.18170  Biso   1.000  N
  N508     1.0000 0.99320  0.78660  0.56830  Biso   1.000  N
  N509     1.0000 0.18170  0.99320  0.96340  Biso   1.000  N
  N510     1.0000 0.68170  0.25680  0.78660  Biso   1.000  N
  N511     1.0000 0.93170  0.71340  0.50680  Biso   1.000  N
  N512     1.0000 0.43170  0.53660  0.24320  Biso   1.000  N
  N513     1.0000 0.71340  0.24320  0.81830  Biso   1.000  N
  N514     1.0000 0.21340  0.00680  0.93170  Biso   1.000  N
  N515     1.0000 0.24320  0.93170  0.03660  Biso   1.000  N
  N516     1.0000 0.74320  0.31830  0.71340  Biso   1.000  N
  N517     1.0000 0.96340  0.18170  0.99320  Biso   1.000  N
  N518     1.0000 0.78660  0.68170  0.25680  Biso   1.000  N
  N519     1.0000 0.49320  0.96340  0.68170  Biso   1.000  N
  N520     1.0000 0.25680  0.46340  0.56830  Biso   1.000  N
  N521     1.0000 0.18170  0.49320  0.46340  Biso   1.000  N
  N522     1.0000 0.56830  0.99320  0.78660  Biso   1.000  N
  N523     1.0000 0.93170  0.21340  0.00680  Biso   1.000  N
  N524     1.0000 0.81830  0.71340  0.24320  Biso   1.000  N
  N525     1.0000 0.71340  0.74320  0.31830  Biso   1.000  N
  N526     1.0000 0.03660  0.24320  0.93170  Biso   1.000  N
  N527     1.0000 0.24320  0.43170  0.53660  Biso   1.000  N
  N528     1.0000 0.50680  0.93170  0.71340  Biso   1.000  N
  N529     1.0000 0.78660  0.06830  0.49320  Biso   1.000  N
  N530     1.0000 0.28660  0.18170  0.25680  Biso   1.000  N
  N531     1.0000 0.96340  0.56830  0.75680  Biso   1.000  N
  N532     1.0000 0.49320  0.78660  0.06830  Biso   1.000  N
  N533     1.0000 0.25680  0.28660  0.18170  Biso   1.000  N
  N534     1.0000 0.75680  0.96340  0.56830  Biso   1.000  N
  N535     1.0000 0.06830  0.49320  0.78660  Biso   1.000  N
  N536     1.0000 0.18170  0.25680  0.28660  Biso   1.000  N
  N537     1.0000 0.56830  0.75680  0.96340  Biso   1.000  N
  N538     1.0000 0.81830  0.03660  0.50680  Biso   1.000  N
  N539     1.0000 0.03660  0.50680  0.81830  Biso   1.000  N
  N540     1.0000 0.50680  0.81830  0.03660  Biso   1.000  N
  N541     1.0000 0.28660  0.68170  0.75680  Biso   1.000  N
  N542     1.0000 0.96340  0.06830  0.25680  Biso   1.000  N
  N543     1.0000 0.49320  0.28660  0.56830  Biso   1.000  N
  N544     1.0000 0.75680  0.46340  0.06830  Biso   1.000  N
  N545     1.0000 0.06830  0.99320  0.28660  Biso   1.000  N
  N546     1.0000 0.18170  0.75680  0.78660  Biso   1.000  N
  N547     1.0000 0.43170  0.21340  0.50680  Biso   1.000  N
  N548     1.0000 0.81830  0.53660  0.00680  Biso   1.000  N
  N549     1.0000 0.21340  0.74320  0.81830  Biso   1.000  N
  N550     1.0000 0.03660  0.00680  0.31830  Biso   1.000  N
  N551     1.0000 0.74320  0.43170  0.03660  Biso   1.000  N
  N552     1.0000 0.50680  0.31830  0.53660  Biso   1.000  N
  N553     1.0000 0.28660  0.06830  0.99320  Biso   1.000  N
  N554     1.0000 0.78660  0.18170  0.75680  Biso   1.000  N
  N555     1.0000 0.75680  0.28660  0.68170  Biso   1.000  N
  N556     1.0000 0.25680  0.96340  0.06830  Biso   1.000  N
  N557     1.0000 0.56830  0.49320  0.28660  Biso   1.000  N
  N558     1.0000 0.06830  0.75680  0.46340  Biso   1.000  N
  N559     1.0000 0.31830  0.03660  0.00680  Biso   1.000  N
  N560     1.0000 0.81830  0.21340  0.74320  Biso   1.000  N
  N561     1.0000 0.03660  0.74320  0.43170  Biso   1.000  N
  N562     1.0000 0.53660  0.50680  0.31830  Biso   1.000  N
  N563     1.0000 0.50680  0.43170  0.21340  Biso   1.000  N
  N564     1.0000 0.00680  0.81830  0.53660  Biso   1.000  N
  N565     1.0000 0.28660  0.56830  0.49320  Biso   1.000  N
  N566     1.0000 0.46340  0.06830  0.75680  Biso   1.000  N
  N567     1.0000 0.99320  0.28660  0.06830  Biso   1.000  N
  N568     1.0000 0.75680  0.78660  0.18170  Biso   1.000  N
  N569     1.0000 0.68170  0.75680  0.28660  Biso   1.000  N
  N570     1.0000 0.06830  0.25680  0.96340  Biso   1.000  N
  N571     1.0000 0.31830  0.53660  0.50680  Biso   1.000  N
  N572     1.0000 0.43170  0.03660  0.74320  Biso   1.000  N
  N573     1.0000 0.53660  0.00680  0.81830  Biso   1.000  N
  N574     1.0000 0.21340  0.50680  0.43170  Biso   1.000  N
  N575     1.0000 0.74320  0.81830  0.21340  Biso   1.000  N
  N576     1.0000 0.00680  0.31830  0.03660  Biso   1.000  N
  N577     1.0000 0.55590  0.34650  0.01960  Biso   1.000  N
  N578     1.0000 0.01960  0.55590  0.34650  Biso   1.000  N
  N579     1.0000 0.34650  0.01960  0.55590  Biso   1.000  N
  N580     1.0000 0.09650  0.80590  0.98040  Biso   1.000  N
  N581     1.0000 0.59650  0.44410  0.76960  Biso   1.000  N
  N582     1.0000 0.65350  0.30590  0.26960  Biso   1.000  N
  N583     1.0000 0.30590  0.26960  0.65350  Biso   1.000  N
  N584     1.0000 0.44410  0.76960  0.59650  Biso   1.000  N
  N585     1.0000 0.80590  0.98040  0.09650  Biso   1.000  N
  N586     1.0000 0.76960  0.59650  0.44410  Biso   1.000  N
  N587     1.0000 0.26960  0.65350  0.30590  Biso   1.000  N
  N588     1.0000 0.98040  0.09650  0.80590  Biso   1.000  N
  N589     1.0000 0.55590  0.84650  0.51960  Biso   1.000  N
  N590     1.0000 0.69410  0.90350  0.01960  Biso   1.000  N
  N591     1.0000 0.01960  0.05590  0.84650  Biso   1.000  N
  N592     1.0000 0.23040  0.69410  0.34650  Biso   1.000  N
  N593     1.0000 0.34650  0.51960  0.05590  Biso   1.000  N
  N594     1.0000 0.90350  0.23040  0.55590  Biso   1.000  N
  N595     1.0000 0.59650  0.94410  0.26960  Biso   1.000  N
  N596     1.0000 0.65350  0.80590  0.76960  Biso   1.000  N
  N597     1.0000 0.44410  0.26960  0.09650  Biso   1.000  N
  N598     1.0000 0.80590  0.48040  0.59650  Biso   1.000  N
  N599     1.0000 0.26960  0.15350  0.80590  Biso   1.000  N
  N600     1.0000 0.98040  0.59650  0.30590  Biso   1.000  N
  N601     1.0000 0.05590  0.34650  0.51960  Biso   1.000  N
  N602     1.0000 0.55590  0.90350  0.23040  Biso   1.000  N
  N603     1.0000 0.51960  0.55590  0.84650  Biso   1.000  N
  N604     1.0000 0.01960  0.69410  0.90350  Biso   1.000  N
  N605     1.0000 0.84650  0.01960  0.05590  Biso   1.000  N
  N606     1.0000 0.34650  0.23040  0.69410  Biso   1.000  N
  N607     1.0000 0.59650  0.80590  0.48040  Biso   1.000  N
  N608     1.0000 0.09650  0.44410  0.26960  Biso   1.000  N
  N609     1.0000 0.80590  0.26960  0.15350  Biso   1.000  N
  N610     1.0000 0.30590  0.98040  0.59650  Biso   1.000  N
  N611     1.0000 0.26960  0.59650  0.94410  Biso   1.000  N
  N612     1.0000 0.76960  0.65350  0.80590  Biso   1.000  N
  N613     1.0000 0.05590  0.84650  0.01960  Biso   1.000  N
  N614     1.0000 0.69410  0.34650  0.23040  Biso   1.000  N
  N615     1.0000 0.51960  0.05590  0.34650  Biso   1.000  N
  N616     1.0000 0.23040  0.55590  0.90350  Biso   1.000  N
  N617     1.0000 0.84650  0.51960  0.55590  Biso   1.000  N
  N618     1.0000 0.90350  0.01960  0.69410  Biso   1.000  N
  N619     1.0000 0.59650  0.30590  0.98040  Biso   1.000  N
  N620     1.0000 0.15350  0.80590  0.26960  Biso   1.000  N
  N621     1.0000 0.80590  0.76960  0.65350  Biso   1.000  N
  N622     1.0000 0.94410  0.26960  0.59650  Biso   1.000  N
  N623     1.0000 0.26960  0.09650  0.44410  Biso   1.000  N
  N624     1.0000 0.48040  0.59650  0.80590  Biso   1.000  N
  N625     1.0000 0.69410  0.40350  0.51960  Biso   1.000  N
  N626     1.0000 0.19410  0.84650  0.23040  Biso   1.000  N
  N627     1.0000 0.05590  0.90350  0.73040  Biso   1.000  N
  N628     1.0000 0.51960  0.69410  0.40350  Biso   1.000  N
  N629     1.0000 0.23040  0.19410  0.84650  Biso   1.000  N
  N630     1.0000 0.73040  0.05590  0.90350  Biso   1.000  N
  N631     1.0000 0.40350  0.51960  0.69410  Biso   1.000  N
  N632     1.0000 0.84650  0.23040  0.19410  Biso   1.000  N
  N633     1.0000 0.90350  0.73040  0.05590  Biso   1.000  N
  N634     1.0000 0.15350  0.94410  0.48040  Biso   1.000  N
  N635     1.0000 0.94410  0.48040  0.15350  Biso   1.000  N
  N636     1.0000 0.48040  0.15350  0.94410  Biso   1.000  N
  N637     1.0000 0.19410  0.34650  0.73040  Biso   1.000  N
  N638     1.0000 0.05590  0.40350  0.23040  Biso   1.000  N
  N639     1.0000 0.51960  0.19410  0.90350  Biso   1.000  N
  N640     1.0000 0.73040  0.55590  0.40350  Biso   1.000  N
  N641     1.0000 0.40350  0.01960  0.19410  Biso   1.000  N
  N642     1.0000 0.84650  0.73040  0.69410  Biso   1.000  N
  N643     1.0000 0.09650  0.30590  0.48040  Biso   1.000  N
  N644     1.0000 0.15350  0.44410  0.98040  Biso   1.000  N
  N645     1.0000 0.30590  0.76960  0.15350  Biso   1.000  N
  N646     1.0000 0.94410  0.98040  0.65350  Biso   1.000  N
  N647     1.0000 0.76960  0.09650  0.94410  Biso   1.000  N
  N648     1.0000 0.48040  0.65350  0.44410  Biso   1.000  N
  N649     1.0000 0.19410  0.40350  0.01960  Biso   1.000  N
  N650     1.0000 0.69410  0.84650  0.73040  Biso   1.000  N
  N651     1.0000 0.73040  0.19410  0.34650  Biso   1.000  N
  N652     1.0000 0.23040  0.05590  0.40350  Biso   1.000  N
  N653     1.0000 0.90350  0.51960  0.19410  Biso   1.000  N
  N654     1.0000 0.40350  0.73040  0.55590  Biso   1.000  N
  N655     1.0000 0.65350  0.94410  0.98040  Biso   1.000  N
  N656     1.0000 0.15350  0.30590  0.76960  Biso   1.000  N
  N657     1.0000 0.94410  0.76960  0.09650  Biso   1.000  N
  N658     1.0000 0.44410  0.48040  0.65350  Biso   1.000  N
  N659     1.0000 0.48040  0.09650  0.30590  Biso   1.000  N
  N660     1.0000 0.98040  0.15350  0.44410  Biso   1.000  N
  N661     1.0000 0.19410  0.90350  0.51960  Biso   1.000  N
  N662     1.0000 0.55590  0.40350  0.73040  Biso   1.000  N
  N663     1.0000 0.01960  0.19410  0.40350  Biso   1.000  N
  N664     1.0000 0.73040  0.69410  0.84650  Biso   1.000  N
  N665     1.0000 0.34650  0.73040  0.19410  Biso   1.000  N
  N666     1.0000 0.40350  0.23040  0.05590  Biso   1.000  N
  N667     1.0000 0.65350  0.44410  0.48040  Biso   1.000  N
  N668     1.0000 0.09650  0.94410  0.76960  Biso   1.000  N
  N669     1.0000 0.44410  0.98040  0.15350  Biso   1.000  N
  N670     1.0000 0.30590  0.48040  0.09650  Biso   1.000  N
  N671     1.0000 0.76960  0.15350  0.30590  Biso   1.000  N
  N672     1.0000 0.98040  0.65350  0.94410  Biso   1.000  N
  N673     1.0000 0.44410  0.65350  0.98040  Biso   1.000  N
  N674     1.0000 0.98040  0.44410  0.65350  Biso   1.000  N
  N675     1.0000 0.65350  0.98040  0.44410  Biso   1.000  N
  N676     1.0000 0.40350  0.69410  0.01960  Biso   1.000  N
  N677     1.0000 0.90350  0.55590  0.73040  Biso   1.000  N
  N678     1.0000 0.34650  0.19410  0.23040  Biso   1.000  N
  N679     1.0000 0.19410  0.23040  0.34650  Biso   1.000  N
  N680     1.0000 0.55590  0.73040  0.90350  Biso   1.000  N
  N681     1.0000 0.69410  0.01960  0.40350  Biso   1.000  N
  N682     1.0000 0.73040  0.90350  0.55590  Biso   1.000  N
  N683     1.0000 0.23040  0.34650  0.19410  Biso   1.000  N
  N684     1.0000 0.01960  0.40350  0.69410  Biso   1.000  N
  N685     1.0000 0.44410  0.15350  0.48040  Biso   1.000  N
  N686     1.0000 0.80590  0.59650  0.98040  Biso   1.000  N
  N687     1.0000 0.98040  0.94410  0.15350  Biso   1.000  N
  N688     1.0000 0.26960  0.80590  0.65350  Biso   1.000  N
  N689     1.0000 0.65350  0.48040  0.94410  Biso   1.000  N
  N690     1.0000 0.59650  0.26960  0.44410  Biso   1.000  N
  N691     1.0000 0.90350  0.05590  0.23040  Biso   1.000  N
  N692     1.0000 0.34650  0.69410  0.73040  Biso   1.000  N
  N693     1.0000 0.55590  0.23040  0.40350  Biso   1.000  N
  N694     1.0000 0.69410  0.51960  0.90350  Biso   1.000  N
  N695     1.0000 0.23040  0.84650  0.69410  Biso   1.000  N
  N696     1.0000 0.01960  0.90350  0.19410  Biso   1.000  N
  N697     1.0000 0.94410  0.65350  0.48040  Biso   1.000  N
  N698     1.0000 0.44410  0.59650  0.26960  Biso   1.000  N
  N699     1.0000 0.48040  0.44410  0.15350  Biso   1.000  N
  N700     1.0000 0.98040  0.80590  0.59650  Biso   1.000  N
  N701     1.0000 0.15350  0.98040  0.94410  Biso   1.000  N
  N702     1.0000 0.65350  0.26960  0.80590  Biso   1.000  N
  N703     1.0000 0.90350  0.69410  0.51960  Biso   1.000  N
  N704     1.0000 0.40350  0.55590  0.23040  Biso   1.000  N
  N705     1.0000 0.69410  0.23040  0.84650  Biso   1.000  N
  N706     1.0000 0.19410  0.01960  0.90350  Biso   1.000  N
  N707     1.0000 0.23040  0.90350  0.05590  Biso   1.000  N
  N708     1.0000 0.73040  0.34650  0.69410  Biso   1.000  N
  N709     1.0000 0.94410  0.15350  0.98040  Biso   1.000  N
  N710     1.0000 0.80590  0.65350  0.26960  Biso   1.000  N
  N711     1.0000 0.48040  0.94410  0.65350  Biso   1.000  N
  N712     1.0000 0.26960  0.44410  0.59650  Biso   1.000  N
  N713     1.0000 0.15350  0.48040  0.44410  Biso   1.000  N
  N714     1.0000 0.59650  0.98040  0.80590  Biso   1.000  N
  N715     1.0000 0.90350  0.19410  0.01960  Biso   1.000  N
  N716     1.0000 0.84650  0.69410  0.23040  Biso   1.000  N
  N717     1.0000 0.69410  0.73040  0.34650  Biso   1.000  N
  N718     1.0000 0.05590  0.23040  0.90350  Biso   1.000  N
  N719     1.0000 0.23040  0.40350  0.55590  Biso   1.000  N
  N720     1.0000 0.51960  0.90350  0.69410  Biso   1.000  N
  N721     1.0000 0.80590  0.09650  0.48040  Biso   1.000  N
  N722     1.0000 0.30590  0.15350  0.26960  Biso   1.000  N
  N723     1.0000 0.94410  0.59650  0.76960  Biso   1.000  N
  N724     1.0000 0.48040  0.80590  0.09650  Biso   1.000  N
  N725     1.0000 0.26960  0.30590  0.15350  Biso   1.000  N
  N726     1.0000 0.76960  0.94410  0.59650  Biso   1.000  N
  N727     1.0000 0.09650  0.48040  0.80590  Biso   1.000  N
  N728     1.0000 0.15350  0.26960  0.30590  Biso   1.000  N
  N729     1.0000 0.59650  0.76960  0.94410  Biso   1.000  N
  N730     1.0000 0.84650  0.05590  0.51960  Biso   1.000  N
  N731     1.0000 0.05590  0.51960  0.84650  Biso   1.000  N
  N732     1.0000 0.51960  0.84650  0.05590  Biso   1.000  N
  N733     1.0000 0.30590  0.65350  0.76960  Biso   1.000  N
  N734     1.0000 0.94410  0.09650  0.26960  Biso   1.000  N
  N735     1.0000 0.48040  0.30590  0.59650  Biso   1.000  N
  N736     1.0000 0.76960  0.44410  0.09650  Biso   1.000  N
  N737     1.0000 0.09650  0.98040  0.30590  Biso   1.000  N
  N738     1.0000 0.15350  0.76960  0.80590  Biso   1.000  N
  N739     1.0000 0.40350  0.19410  0.51960  Biso   1.000  N
  N740     1.0000 0.84650  0.55590  0.01960  Biso   1.000  N
  N741     1.0000 0.19410  0.73040  0.84650  Biso   1.000  N
  N742     1.0000 0.05590  0.01960  0.34650  Biso   1.000  N
  N743     1.0000 0.73040  0.40350  0.05590  Biso   1.000  N
  N744     1.0000 0.51960  0.34650  0.55590  Biso   1.000  N
  N745     1.0000 0.30590  0.09650  0.98040  Biso   1.000  N
  N746     1.0000 0.80590  0.15350  0.76960  Biso   1.000  N
  N747     1.0000 0.76960  0.30590  0.65350  Biso   1.000  N
  N748     1.0000 0.26960  0.94410  0.09650  Biso   1.000  N
  N749     1.0000 0.59650  0.48040  0.30590  Biso   1.000  N
  N750     1.0000 0.09650  0.76960  0.44410  Biso   1.000  N
  N751     1.0000 0.34650  0.05590  0.01960  Biso   1.000  N
  N752     1.0000 0.84650  0.19410  0.73040  Biso   1.000  N
  N753     1.0000 0.05590  0.73040  0.40350  Biso   1.000  N
  N754     1.0000 0.55590  0.51960  0.34650  Biso   1.000  N
  N755     1.0000 0.51960  0.40350  0.19410  Biso   1.000  N
  N756     1.0000 0.01960  0.84650  0.55590  Biso   1.000  N
  N757     1.0000 0.30590  0.59650  0.48040  Biso   1.000  N
  N758     1.0000 0.44410  0.09650  0.76960  Biso   1.000  N
  N759     1.0000 0.98040  0.30590  0.09650  Biso   1.000  N
  N760     1.0000 0.76960  0.80590  0.15350  Biso   1.000  N
  N761     1.0000 0.65350  0.76960  0.30590  Biso   1.000  N
  N762     1.0000 0.09650  0.26960  0.94410  Biso   1.000  N
  N763     1.0000 0.34650  0.55590  0.51960  Biso   1.000  N
  N764     1.0000 0.40350  0.05590  0.73040  Biso   1.000  N
  N765     1.0000 0.55590  0.01960  0.84650  Biso   1.000  N
  N766     1.0000 0.19410  0.51960  0.40350  Biso   1.000  N
  N767     1.0000 0.73040  0.84650  0.19410  Biso   1.000  N
  N768     1.0000 0.01960  0.34650  0.05590  Biso   1.000  N
  N769     1.0000 0.67340  0.42335  0.00000  Biso   1.000  N
  N770     1.0000 0.00000  0.67340  0.42335  Biso   1.000  N
  N771     1.0000 0.42335  0.00000  0.67340  Biso   1.000  N
  N772     1.0000 0.17335  0.92340  0.00000  Biso   1.000  N
  N773     1.0000 0.67335  0.32660  0.75000  Biso   1.000  N
  N774     1.0000 0.57665  0.42340  0.25000  Biso   1.000  N
  N775     1.0000 0.42340  0.25000  0.57665  Biso   1.000  N
  N776     1.0000 0.32660  0.75000  0.67335  Biso   1.000  N
  N777     1.0000 0.92340  0.00000  0.17335  Biso   1.000  N
  N778     1.0000 0.75000  0.67335  0.32660  Biso   1.000  N
  N779     1.0000 0.25000  0.57665  0.42340  Biso   1.000  N
  N780     1.0000 0.00000  0.17335  0.92340  Biso   1.000  N
  N781     1.0000 0.67340  0.92335  0.50000  Biso   1.000  N
  N782     1.0000 0.57660  0.82665  0.00000  Biso   1.000  N
  N783     1.0000 0.42335  0.50000  0.17340  Biso   1.000  N
  N784     1.0000 0.82665  0.25000  0.67340  Biso   1.000  N
  N785     1.0000 0.67335  0.82660  0.25000  Biso   1.000  N
  N786     1.0000 0.57665  0.92340  0.75000  Biso   1.000  N
  N787     1.0000 0.32660  0.25000  0.17335  Biso   1.000  N
  N788     1.0000 0.92340  0.50000  0.67335  Biso   1.000  N
  N789     1.0000 0.25000  0.07665  0.92340  Biso   1.000  N
  N790     1.0000 0.17340  0.42335  0.50000  Biso   1.000  N
  N791     1.0000 0.50000  0.67340  0.92335  Biso   1.000  N
  N792     1.0000 0.00000  0.57660  0.82665  Biso   1.000  N
  N793     1.0000 0.17335  0.32660  0.25000  Biso   1.000  N
  N794     1.0000 0.92340  0.25000  0.07665  Biso   1.000  N
  N795     1.0000 0.25000  0.67335  0.82660  Biso   1.000  N
  N796     1.0000 0.75000  0.57665  0.92340  Biso   1.000  N
  N797     1.0000 0.50000  0.17340  0.42335  Biso   1.000  N
  N798     1.0000 0.82665  0.00000  0.57660  Biso   1.000  N
  N799     1.0000 0.07665  0.92340  0.25000  Biso   1.000  N
  N800     1.0000 0.92340  0.75000  0.57665  Biso   1.000  N
  N801     1.0000 0.25000  0.17335  0.32660  Biso   1.000  N
  N802     1.0000 0.57660  0.32665  0.50000  Biso   1.000  N
  N803     1.0000 0.17340  0.82665  0.75000  Biso   1.000  N
  N804     1.0000 0.50000  0.57660  0.32665  Biso   1.000  N
  N805     1.0000 0.75000  0.17340  0.82665  Biso   1.000  N
  N806     1.0000 0.32665  0.50000  0.57660  Biso   1.000  N
  N807     1.0000 0.82665  0.75000  0.17340  Biso   1.000  N
  N808     1.0000 0.07665  0.82660  0.50000  Biso   1.000  N
  N809     1.0000 0.82660  0.50000  0.07665  Biso   1.000  N
  N810     1.0000 0.50000  0.07665  0.82660  Biso   1.000  N
  N811     1.0000 0.07660  0.42335  0.75000  Biso   1.000  N
  N812     1.0000 0.32665  0.00000  0.07660  Biso   1.000  N
  N813     1.0000 0.07665  0.32660  0.00000  Biso   1.000  N
  N814     1.0000 0.42340  0.75000  0.07665  Biso   1.000  N
  N815     1.0000 0.75000  0.07660  0.42335  Biso   1.000  N
  N816     1.0000 0.00000  0.07665  0.32660  Biso   1.000  N
  N817     1.0000 0.32660  0.57665  0.00000  Biso   1.000  N
  N818     1.0000 0.00000  0.32660  0.57665  Biso   1.000  N
  N819     1.0000 0.57665  0.00000  0.32660  Biso   1.000  N
  N820     1.0000 0.82665  0.67340  0.75000  Biso   1.000  N
  N821     1.0000 0.42335  0.07660  0.25000  Biso   1.000  N
  N822     1.0000 0.07660  0.25000  0.42335  Biso   1.000  N
  N823     1.0000 0.67340  0.75000  0.82665  Biso   1.000  N
  N824     1.0000 0.75000  0.82665  0.67340  Biso   1.000  N
  N825     1.0000 0.25000  0.42335  0.07660  Biso   1.000  N
  N826     1.0000 0.32660  0.07665  0.50000  Biso   1.000  N
  N827     1.0000 0.92340  0.67335  0.00000  Biso   1.000  N
  N828     1.0000 0.00000  0.82660  0.07665  Biso   1.000  N
  N829     1.0000 0.25000  0.92340  0.57665  Biso   1.000  N
  N830     1.0000 0.57665  0.50000  0.82660  Biso   1.000  N
  N831     1.0000 0.67335  0.25000  0.32660  Biso   1.000  N
  N832     1.0000 0.82665  0.17340  0.25000  Biso   1.000  N
  N833     1.0000 0.42335  0.57660  0.75000  Biso   1.000  N
  N834     1.0000 0.82660  0.57665  0.50000  Biso   1.000  N
  N835     1.0000 0.32660  0.67335  0.25000  Biso   1.000  N
  N836     1.0000 0.50000  0.32660  0.07665  Biso   1.000  N
  N837     1.0000 0.00000  0.92340  0.67335  Biso   1.000  N
  N838     1.0000 0.07665  0.00000  0.82660  Biso   1.000  N
  N839     1.0000 0.57665  0.25000  0.92340  Biso   1.000  N
  N840     1.0000 0.25000  0.82665  0.17340  Biso   1.000  N
  N841     1.0000 0.75000  0.42335  0.57660  Biso   1.000  N
  N842     1.0000 0.82660  0.07665  0.00000  Biso   1.000  N
  N843     1.0000 0.92340  0.57665  0.25000  Biso   1.000  N
  N844     1.0000 0.50000  0.82660  0.57665  Biso   1.000  N
  N845     1.0000 0.25000  0.32660  0.67335  Biso   1.000  N
  N846     1.0000 0.07665  0.50000  0.32660  Biso   1.000  N
  N847     1.0000 0.67335  0.00000  0.92340  Biso   1.000  N
  N848     1.0000 0.57660  0.75000  0.42335  Biso   1.000  N
  N849     1.0000 0.17340  0.25000  0.82665  Biso   1.000  N
  N850     1.0000 0.92340  0.17335  0.50000  Biso   1.000  N
  N851     1.0000 0.50000  0.92340  0.17335  Biso   1.000  N
  N852     1.0000 0.17335  0.50000  0.92340  Biso   1.000  N
  N853     1.0000 0.50000  0.42340  0.67335  Biso   1.000  N
  N854     1.0000 0.75000  0.32660  0.17335  Biso   1.000  N
  N855     1.0000 0.17335  0.00000  0.42340  Biso   1.000  N
  N856     1.0000 0.07665  0.75000  0.92340  Biso   1.000  N
  N857     1.0000 0.42340  0.17335  0.00000  Biso   1.000  N
  N858     1.0000 0.92340  0.07665  0.75000  Biso   1.000  N
  N859     1.0000 0.67335  0.50000  0.42340  Biso   1.000  N
  N860     1.0000 0.17335  0.75000  0.32660  Biso   1.000  N
  N861     1.0000 0.42340  0.67335  0.50000  Biso   1.000  N
  N862     1.0000 0.32660  0.17335  0.75000  Biso   1.000  N
  N863     1.0000 0.00000  0.42340  0.17335  Biso   1.000  N
  N864     1.0000 0.75000  0.92340  0.07665  Biso   1.000  N
  C1       1.0000 0.66981  0.40018  0.97216  Biso   1.000  C
  C2       1.0000 0.97216  0.66981  0.40018  Biso   1.000  C
  C3       1.0000 0.40018  0.97216  0.66981  Biso   1.000  C
  C4       1.0000 0.15018  0.91981  0.02784  Biso   1.000  C
  C5       1.0000 0.65018  0.33019  0.72216  Biso   1.000  C
  C6       1.0000 0.59982  0.41981  0.22216  Biso   1.000  C
  C7       1.0000 0.41981  0.22216  0.59982  Biso   1.000  C
  C8       1.0000 0.33019  0.72216  0.65018  Biso   1.000  C
  C9       1.0000 0.91981  0.02784  0.15018  Biso   1.000  C
  C10      1.0000 0.72216  0.65018  0.33019  Biso   1.000  C
  C11      1.0000 0.22216  0.59982  0.41981  Biso   1.000  C
  C12      1.0000 0.02784  0.15018  0.91981  Biso   1.000  C
  C13      1.0000 0.66981  0.90018  0.47216  Biso   1.000  C
  C14      1.0000 0.58019  0.84982  0.97216  Biso   1.000  C
  C15      1.0000 0.97216  0.16981  0.90018  Biso   1.000  C
  C16      1.0000 0.27784  0.58019  0.40018  Biso   1.000  C
  C17      1.0000 0.40018  0.47216  0.16981  Biso   1.000  C
  C18      1.0000 0.84982  0.27784  0.66981  Biso   1.000  C
  C19      1.0000 0.65018  0.83019  0.22216  Biso   1.000  C
  C20      1.0000 0.59982  0.91981  0.72216  Biso   1.000  C
  C21      1.0000 0.33019  0.22216  0.15018  Biso   1.000  C
  C22      1.0000 0.91981  0.52784  0.65018  Biso   1.000  C
  C23      1.0000 0.22216  0.09982  0.91981  Biso   1.000  C
  C24      1.0000 0.02784  0.65018  0.41981  Biso   1.000  C
  C25      1.0000 0.16981  0.40018  0.47216  Biso   1.000  C
  C26      1.0000 0.66981  0.84982  0.27784  Biso   1.000  C
  C27      1.0000 0.47216  0.66981  0.90018  Biso   1.000  C
  C28      1.0000 0.97216  0.58019  0.84982  Biso   1.000  C
  C29      1.0000 0.90018  0.97216  0.16981  Biso   1.000  C
  C30      1.0000 0.40018  0.27784  0.58019  Biso   1.000  C
  C31      1.0000 0.65018  0.91981  0.52784  Biso   1.000  C
  C32      1.0000 0.15018  0.33019  0.22216  Biso   1.000  C
  C33      1.0000 0.91981  0.22216  0.09982  Biso   1.000  C
  C34      1.0000 0.41981  0.02784  0.65018  Biso   1.000  C
  C35      1.0000 0.22216  0.65018  0.83019  Biso   1.000  C
  C36      1.0000 0.72216  0.59982  0.91981  Biso   1.000  C
  C37      1.0000 0.16981  0.90018  0.97216  Biso   1.000  C
  C38      1.0000 0.58019  0.40018  0.27784  Biso   1.000  C
  C39      1.0000 0.47216  0.16981  0.40018  Biso   1.000  C
  C40      1.0000 0.27784  0.66981  0.84982  Biso   1.000  C
  C41      1.0000 0.90018  0.47216  0.66981  Biso   1.000  C
  C42      1.0000 0.84982  0.97216  0.58019  Biso   1.000  C
  C43      1.0000 0.65018  0.41981  0.02784  Biso   1.000  C
  C44      1.0000 0.09982  0.91981  0.22216  Biso   1.000  C
  C45      1.0000 0.91981  0.72216  0.59982  Biso   1.000  C
  C46      1.0000 0.83019  0.22216  0.65018  Biso   1.000  C
  C47      1.0000 0.22216  0.15018  0.33019  Biso   1.000  C
  C48      1.0000 0.52784  0.65018  0.91981  Biso   1.000  C
  C49      1.0000 0.58019  0.34982  0.47216  Biso   1.000  C
  C50      1.0000 0.08019  0.90018  0.27784  Biso   1.000  C
  C51      1.0000 0.16981  0.84982  0.77784  Biso   1.000  C
  C52      1.0000 0.47216  0.58019  0.34982  Biso   1.000  C
  C53      1.0000 0.27784  0.08019  0.90018  Biso   1.000  C
  C54      1.0000 0.77784  0.16981  0.84982  Biso   1.000  C
  C55      1.0000 0.34982  0.47216  0.58019  Biso   1.000  C
  C56      1.0000 0.90018  0.27784  0.08019  Biso   1.000  C
  C57      1.0000 0.84982  0.77784  0.16981  Biso   1.000  C
  C58      1.0000 0.09982  0.83019  0.52784  Biso   1.000  C
  C59      1.0000 0.83019  0.52784  0.09982  Biso   1.000  C
  C60      1.0000 0.52784  0.09982  0.83019  Biso   1.000  C
  C61      1.0000 0.08019  0.40018  0.77784  Biso   1.000  C
  C62      1.0000 0.16981  0.34982  0.27784  Biso   1.000  C
  C63      1.0000 0.47216  0.08019  0.84982  Biso   1.000  C
  C64      1.0000 0.77784  0.66981  0.34982  Biso   1.000  C
  C65      1.0000 0.34982  0.97216  0.08019  Biso   1.000  C
  C66      1.0000 0.90018  0.77784  0.58019  Biso   1.000  C
  C67      1.0000 0.15018  0.41981  0.52784  Biso   1.000  C
  C68      1.0000 0.09982  0.33019  0.02784  Biso   1.000  C
  C69      1.0000 0.41981  0.72216  0.09982  Biso   1.000  C
  C70      1.0000 0.83019  0.02784  0.59982  Biso   1.000  C
  C71      1.0000 0.72216  0.15018  0.83019  Biso   1.000  C
  C72      1.0000 0.52784  0.59982  0.33019  Biso   1.000  C
  C73      1.0000 0.08019  0.34982  0.97216  Biso   1.000  C
  C74      1.0000 0.58019  0.90018  0.77784  Biso   1.000  C
  C75      1.0000 0.77784  0.08019  0.40018  Biso   1.000  C
  C76      1.0000 0.27784  0.16981  0.34982  Biso   1.000  C
  C77      1.0000 0.84982  0.47216  0.08019  Biso   1.000  C
  C78      1.0000 0.34982  0.77784  0.66981  Biso   1.000  C
  C79      1.0000 0.59982  0.83019  0.02784  Biso   1.000  C
  C80      1.0000 0.09982  0.41981  0.72216  Biso   1.000  C
  C81      1.0000 0.83019  0.72216  0.15018  Biso   1.000  C
  C82      1.0000 0.33019  0.52784  0.59982  Biso   1.000  C
  C83      1.0000 0.52784  0.15018  0.41981  Biso   1.000  C
  C84      1.0000 0.02784  0.09982  0.33019  Biso   1.000  C
  C85      1.0000 0.08019  0.84982  0.47216  Biso   1.000  C
  C86      1.0000 0.66981  0.34982  0.77784  Biso   1.000  C
  C87      1.0000 0.97216  0.08019  0.34982  Biso   1.000  C
  C88      1.0000 0.77784  0.58019  0.90018  Biso   1.000  C
  C89      1.0000 0.40018  0.77784  0.08019  Biso   1.000  C
  C90      1.0000 0.34982  0.27784  0.16981  Biso   1.000  C
  C91      1.0000 0.59982  0.33019  0.52784  Biso   1.000  C
  C92      1.0000 0.15018  0.83019  0.72216  Biso   1.000  C
  C93      1.0000 0.33019  0.02784  0.09982  Biso   1.000  C
  C94      1.0000 0.41981  0.52784  0.15018  Biso   1.000  C
  C95      1.0000 0.72216  0.09982  0.41981  Biso   1.000  C
  C96      1.0000 0.02784  0.59982  0.83019  Biso   1.000  C
  C97      1.0000 0.33019  0.59982  0.02784  Biso   1.000  C
  C98      1.0000 0.02784  0.33019  0.59982  Biso   1.000  C
  C99      1.0000 0.59982  0.02784  0.33019  Biso   1.000  C
  C100     1.0000 0.34982  0.58019  0.97216  Biso   1.000  C
  C101     1.0000 0.84982  0.66981  0.77784  Biso   1.000  C
  C102     1.0000 0.40018  0.08019  0.27784  Biso   1.000  C
  C103     1.0000 0.08019  0.27784  0.40018  Biso   1.000  C
  C104     1.0000 0.66981  0.77784  0.84982  Biso   1.000  C
  C105     1.0000 0.58019  0.97216  0.34982  Biso   1.000  C
  C106     1.0000 0.77784  0.84982  0.66981  Biso   1.000  C
  C107     1.0000 0.27784  0.40018  0.08019  Biso   1.000  C
  C108     1.0000 0.97216  0.34982  0.58019  Biso   1.000  C
  C109     1.0000 0.33019  0.09982  0.52784  Biso   1.000  C
  C110     1.0000 0.91981  0.65018  0.02784  Biso   1.000  C
  C111     1.0000 0.02784  0.83019  0.09982  Biso   1.000  C
  C112     1.0000 0.22216  0.91981  0.59982  Biso   1.000  C
  C113     1.0000 0.59982  0.52784  0.83019  Biso   1.000  C
  C114     1.0000 0.65018  0.22216  0.33019  Biso   1.000  C
  C115     1.0000 0.84982  0.16981  0.27784  Biso   1.000  C
  C116     1.0000 0.40018  0.58019  0.77784  Biso   1.000  C
  C117     1.0000 0.66981  0.27784  0.34982  Biso   1.000  C
  C118     1.0000 0.58019  0.47216  0.84982  Biso   1.000  C
  C119     1.0000 0.27784  0.90018  0.58019  Biso   1.000  C
  C120     1.0000 0.97216  0.84982  0.08019  Biso   1.000  C
  C121     1.0000 0.83019  0.59982  0.52784  Biso   1.000  C
  C122     1.0000 0.33019  0.65018  0.22216  Biso   1.000  C
  C123     1.0000 0.52784  0.33019  0.09982  Biso   1.000  C
  C124     1.0000 0.02784  0.91981  0.65018  Biso   1.000  C
  C125     1.0000 0.09982  0.02784  0.83019  Biso   1.000  C
  C126     1.0000 0.59982  0.22216  0.91981  Biso   1.000  C
  C127     1.0000 0.84982  0.58019  0.47216  Biso   1.000  C
  C128     1.0000 0.34982  0.66981  0.27784  Biso   1.000  C
  C129     1.0000 0.58019  0.27784  0.90018  Biso   1.000  C
  C130     1.0000 0.08019  0.97216  0.84982  Biso   1.000  C
  C131     1.0000 0.27784  0.84982  0.16981  Biso   1.000  C
  C132     1.0000 0.77784  0.40018  0.58019  Biso   1.000  C
  C133     1.0000 0.83019  0.09982  0.02784  Biso   1.000  C
  C134     1.0000 0.91981  0.59982  0.22216  Biso   1.000  C
  C135     1.0000 0.52784  0.83019  0.59982  Biso   1.000  C
  C136     1.0000 0.22216  0.33019  0.65018  Biso   1.000  C
  C137     1.0000 0.09982  0.52784  0.33019  Biso   1.000  C
  C138     1.0000 0.65018  0.02784  0.91981  Biso   1.000  C
  C139     1.0000 0.84982  0.08019  0.97216  Biso   1.000  C
  C140     1.0000 0.90018  0.58019  0.27784  Biso   1.000  C
  C141     1.0000 0.58019  0.77784  0.40018  Biso   1.000  C
  C142     1.0000 0.16981  0.27784  0.84982  Biso   1.000  C
  C143     1.0000 0.27784  0.34982  0.66981  Biso   1.000  C
  C144     1.0000 0.47216  0.84982  0.58019  Biso   1.000  C
  C145     1.0000 0.91981  0.15018  0.52784  Biso   1.000  C
  C146     1.0000 0.41981  0.09982  0.22216  Biso   1.000  C
  C147     1.0000 0.83019  0.65018  0.72216  Biso   1.000  C
  C148     1.0000 0.52784  0.91981  0.15018  Biso   1.000  C
  C149     1.0000 0.22216  0.41981  0.09982  Biso   1.000  C
  C150     1.0000 0.72216  0.83019  0.65018  Biso   1.000  C
  C151     1.0000 0.15018  0.52784  0.91981  Biso   1.000  C
  C152     1.0000 0.09982  0.22216  0.41981  Biso   1.000  C
  C153     1.0000 0.65018  0.72216  0.83019  Biso   1.000  C
  C154     1.0000 0.90018  0.16981  0.47216  Biso   1.000  C
  C155     1.0000 0.16981  0.47216  0.90018  Biso   1.000  C
  C156     1.0000 0.47216  0.90018  0.16981  Biso   1.000  C
  C157     1.0000 0.41981  0.59982  0.72216  Biso   1.000  C
  C158     1.0000 0.83019  0.15018  0.22216  Biso   1.000  C
  C159     1.0000 0.52784  0.41981  0.65018  Biso   1.000  C
  C160     1.0000 0.72216  0.33019  0.15018  Biso   1.000  C
  C161     1.0000 0.15018  0.02784  0.41981  Biso   1.000  C
  C162     1.0000 0.09982  0.72216  0.91981  Biso   1.000  C
  C163     1.0000 0.34982  0.08019  0.47216  Biso   1.000  C
  C164     1.0000 0.90018  0.66981  0.97216  Biso   1.000  C
  C165     1.0000 0.08019  0.77784  0.90018  Biso   1.000  C
  C166     1.0000 0.16981  0.97216  0.40018  Biso   1.000  C
  C167     1.0000 0.77784  0.34982  0.16981  Biso   1.000  C
  C168     1.0000 0.47216  0.40018  0.66981  Biso   1.000  C
  C169     1.0000 0.41981  0.15018  0.02784  Biso   1.000  C
  C170     1.0000 0.91981  0.09982  0.72216  Biso   1.000  C
  C171     1.0000 0.72216  0.41981  0.59982  Biso   1.000  C
  C172     1.0000 0.22216  0.83019  0.15018  Biso   1.000  C
  C173     1.0000 0.65018  0.52784  0.41981  Biso   1.000  C
  C174     1.0000 0.15018  0.72216  0.33019  Biso   1.000  C
  C175     1.0000 0.40018  0.16981  0.97216  Biso   1.000  C
  C176     1.0000 0.90018  0.08019  0.77784  Biso   1.000  C
  C177     1.0000 0.16981  0.77784  0.34982  Biso   1.000  C
  C178     1.0000 0.66981  0.47216  0.40018  Biso   1.000  C
  C179     1.0000 0.47216  0.34982  0.08019  Biso   1.000  C
  C180     1.0000 0.97216  0.90018  0.66981  Biso   1.000  C
  C181     1.0000 0.41981  0.65018  0.52784  Biso   1.000  C
  C182     1.0000 0.33019  0.15018  0.72216  Biso   1.000  C
  C183     1.0000 0.02784  0.41981  0.15018  Biso   1.000  C
  C184     1.0000 0.72216  0.91981  0.09982  Biso   1.000  C
  C185     1.0000 0.59982  0.72216  0.41981  Biso   1.000  C
  C186     1.0000 0.15018  0.22216  0.83019  Biso   1.000  C
  C187     1.0000 0.40018  0.66981  0.47216  Biso   1.000  C
  C188     1.0000 0.34982  0.16981  0.77784  Biso   1.000  C
  C189     1.0000 0.66981  0.97216  0.90018  Biso   1.000  C
  C190     1.0000 0.08019  0.47216  0.34982  Biso   1.000  C
  C191     1.0000 0.77784  0.90018  0.08019  Biso   1.000  C
  C192     1.0000 0.97216  0.40018  0.16981  Biso   1.000  C
  H1       1.0000 0.68600  0.40290  0.95150  Biso   1.000  H
  H2       1.0000 0.95150  0.68600  0.40290  Biso   1.000  H
  H3       1.0000 0.40290  0.95150  0.68600  Biso   1.000  H
  H4       1.0000 0.15290  0.93600  0.04850  Biso   1.000  H
  H5       1.0000 0.65290  0.31400  0.70150  Biso   1.000  H
  H6       1.0000 0.59710  0.43600  0.20150  Biso   1.000  H
  H7       1.0000 0.43600  0.20150  0.59710  Biso   1.000  H
  H8       1.0000 0.31400  0.70150  0.65290  Biso   1.000  H
  H9       1.0000 0.93600  0.04850  0.15290  Biso   1.000  H
  H10      1.0000 0.70150  0.65290  0.31400  Biso   1.000  H
  H11      1.0000 0.20150  0.59710  0.43600  Biso   1.000  H
  H12      1.0000 0.04850  0.15290  0.93600  Biso   1.000  H
  H13      1.0000 0.68600  0.90290  0.45150  Biso   1.000  H
  H14      1.0000 0.56400  0.84710  0.95150  Biso   1.000  H
  H15      1.0000 0.95150  0.18600  0.90290  Biso   1.000  H
  H16      1.0000 0.29850  0.56400  0.40290  Biso   1.000  H
  H17      1.0000 0.40290  0.45150  0.18600  Biso   1.000  H
  H18      1.0000 0.84710  0.29850  0.68600  Biso   1.000  H
  H19      1.0000 0.65290  0.81400  0.20150  Biso   1.000  H
  H20      1.0000 0.59710  0.93600  0.70150  Biso   1.000  H
  H21      1.0000 0.31400  0.20150  0.15290  Biso   1.000  H
  H22      1.0000 0.93600  0.54850  0.65290  Biso   1.000  H
  H23      1.0000 0.20150  0.09710  0.93600  Biso   1.000  H
  H24      1.0000 0.04850  0.65290  0.43600  Biso   1.000  H
  H25      1.0000 0.18600  0.40290  0.45150  Biso   1.000  H
  H26      1.0000 0.68600  0.84710  0.29850  Biso   1.000  H
  H27      1.0000 0.45150  0.68600  0.90290  Biso   1.000  H
  H28      1.0000 0.95150  0.56400  0.84710  Biso   1.000  H
  H29      1.0000 0.90290  0.95150  0.18600  Biso   1.000  H
  H30      1.0000 0.40290  0.29850  0.56400  Biso   1.000  H
  H31      1.0000 0.65290  0.93600  0.54850  Biso   1.000  H
  H32      1.0000 0.15290  0.31400  0.20150  Biso   1.000  H
  H33      1.0000 0.93600  0.20150  0.09710  Biso   1.000  H
  H34      1.0000 0.43600  0.04850  0.65290  Biso   1.000  H
  H35      1.0000 0.20150  0.65290  0.81400  Biso   1.000  H
  H36      1.0000 0.70150  0.59710  0.93600  Biso   1.000  H
  H37      1.0000 0.18600  0.90290  0.95150  Biso   1.000  H
  H38      1.0000 0.56400  0.40290  0.29850  Biso   1.000  H
  H39      1.0000 0.45150  0.18600  0.40290  Biso   1.000  H
  H40      1.0000 0.29850  0.68600  0.84710  Biso   1.000  H
  H41      1.0000 0.90290  0.45150  0.68600  Biso   1.000  H
  H42      1.0000 0.84710  0.95150  0.56400  Biso   1.000  H
  H43      1.0000 0.65290  0.43600  0.04850  Biso   1.000  H
  H44      1.0000 0.09710  0.93600  0.20150  Biso   1.000  H
  H45      1.0000 0.93600  0.70150  0.59710  Biso   1.000  H
  H46      1.0000 0.81400  0.20150  0.65290  Biso   1.000  H
  H47      1.0000 0.20150  0.15290  0.31400  Biso   1.000  H
  H48      1.0000 0.54850  0.65290  0.93600  Biso   1.000  H
  H49      1.0000 0.56400  0.34710  0.45150  Biso   1.000  H
  H50      1.0000 0.06400  0.90290  0.29850  Biso   1.000  H
  H51      1.0000 0.18600  0.84710  0.79850  Biso   1.000  H
  H52      1.0000 0.45150  0.56400  0.34710  Biso   1.000  H
  H53      1.0000 0.29850  0.06400  0.90290  Biso   1.000  H
  H54      1.0000 0.79850  0.18600  0.84710  Biso   1.000  H
  H55      1.0000 0.34710  0.45150  0.56400  Biso   1.000  H
  H56      1.0000 0.90290  0.29850  0.06400  Biso   1.000  H
  H57      1.0000 0.84710  0.79850  0.18600  Biso   1.000  H
  H58      1.0000 0.09710  0.81400  0.54850  Biso   1.000  H
  H59      1.0000 0.81400  0.54850  0.09710  Biso   1.000  H
  H60      1.0000 0.54850  0.09710  0.81400  Biso   1.000  H
  H61      1.0000 0.06400  0.40290  0.79850  Biso   1.000  H
  H62      1.0000 0.18600  0.34710  0.29850  Biso   1.000  H
  H63      1.0000 0.45150  0.06400  0.84710  Biso   1.000  H
  H64      1.0000 0.79850  0.68600  0.34710  Biso   1.000  H
  H65      1.0000 0.34710  0.95150  0.06400  Biso   1.000  H
  H66      1.0000 0.90290  0.79850  0.56400  Biso   1.000  H
  H67      1.0000 0.15290  0.43600  0.54850  Biso   1.000  H
  H68      1.0000 0.09710  0.31400  0.04850  Biso   1.000  H
  H69      1.0000 0.43600  0.70150  0.09710  Biso   1.000  H
  H70      1.0000 0.81400  0.04850  0.59710  Biso   1.000  H
  H71      1.0000 0.70150  0.15290  0.81400  Biso   1.000  H
  H72      1.0000 0.54850  0.59710  0.31400  Biso   1.000  H
  H73      1.0000 0.06400  0.34710  0.95150  Biso   1.000  H
  H74      1.0000 0.56400  0.90290  0.79850  Biso   1.000  H
  H75      1.0000 0.79850  0.06400  0.40290  Biso   1.000  H
  H76      1.0000 0.29850  0.18600  0.34710  Biso   1.000  H
  H77      1.0000 0.84710  0.45150  0.06400  Biso   1.000  H
  H78      1.0000 0.34710  0.79850  0.68600  Biso   1.000  H
  H79      1.0000 0.59710  0.81400  0.04850  Biso   1.000  H
  H80      1.0000 0.09710  0.43600  0.70150  Biso   1.000  H
  H81      1.0000 0.81400  0.70150  0.15290  Biso   1.000  H
  H82      1.0000 0.31400  0.54850  0.59710  Biso   1.000  H
  H83      1.0000 0.54850  0.15290  0.43600  Biso   1.000  H
  H84      1.0000 0.04850  0.09710  0.31400  Biso   1.000  H
  H85      1.0000 0.06400  0.84710  0.45150  Biso   1.000  H
  H86      1.0000 0.68600  0.34710  0.79850  Biso   1.000  H
  H87      1.0000 0.95150  0.06400  0.34710  Biso   1.000  H
  H88      1.0000 0.79850  0.56400  0.90290  Biso   1.000  H
  H89      1.0000 0.40290  0.79850  0.06400  Biso   1.000  H
  H90      1.0000 0.34710  0.29850  0.18600  Biso   1.000  H
  H91      1.0000 0.59710  0.31400  0.54850  Biso   1.000  H
  H92      1.0000 0.15290  0.81400  0.70150  Biso   1.000  H
  H93      1.0000 0.31400  0.04850  0.09710  Biso   1.000  H
  H94      1.0000 0.43600  0.54850  0.15290  Biso   1.000  H
  H95      1.0000 0.70150  0.09710  0.43600  Biso   1.000  H
  H96      1.0000 0.04850  0.59710  0.81400  Biso   1.000  H
  H97      1.0000 0.31400  0.59710  0.04850  Biso   1.000  H
  H98      1.0000 0.04850  0.31400  0.59710  Biso   1.000  H
  H99      1.0000 0.59710  0.04850  0.31400  Biso   1.000  H
  H100     1.0000 0.34710  0.56400  0.95150  Biso   1.000  H
  H101     1.0000 0.84710  0.68600  0.79850  Biso   1.000  H
  H102     1.0000 0.40290  0.06400  0.29850  Biso   1.000  H
  H103     1.0000 0.06400  0.29850  0.40290  Biso   1.000  H
  H104     1.0000 0.68600  0.79850  0.84710  Biso   1.000  H
  H105     1.0000 0.56400  0.95150  0.34710  Biso   1.000  H
  H106     1.0000 0.79850  0.84710  0.68600  Biso   1.000  H
  H107     1.0000 0.29850  0.40290  0.06400  Biso   1.000  H
  H108     1.0000 0.95150  0.34710  0.56400  Biso   1.000  H
  H109     1.0000 0.31400  0.09710  0.54850  Biso   1.000  H
  H110     1.0000 0.93600  0.65290  0.04850  Biso   1.000  H
  H111     1.0000 0.04850  0.81400  0.09710  Biso   1.000  H
  H112     1.0000 0.20150  0.93600  0.59710  Biso   1.000  H
  H113     1.0000 0.59710  0.54850  0.81400  Biso   1.000  H
  H114     1.0000 0.65290  0.20150  0.31400  Biso   1.000  H
  H115     1.0000 0.84710  0.18600  0.29850  Biso   1.000  H
  H116     1.0000 0.40290  0.56400  0.79850  Biso   1.000  H
  H117     1.0000 0.68600  0.29850  0.34710  Biso   1.000  H
  H118     1.0000 0.56400  0.45150  0.84710  Biso   1.000  H
  H119     1.0000 0.29850  0.90290  0.56400  Biso   1.000  H
  H120     1.0000 0.95150  0.84710  0.06400  Biso   1.000  H
  H121     1.0000 0.81400  0.59710  0.54850  Biso   1.000  H
  H122     1.0000 0.31400  0.65290  0.20150  Biso   1.000  H
  H123     1.0000 0.54850  0.31400  0.09710  Biso   1.000  H
  H124     1.0000 0.04850  0.93600  0.65290  Biso   1.000  H
  H125     1.0000 0.09710  0.04850  0.81400  Biso   1.000  H
  H126     1.0000 0.59710  0.20150  0.93600  Biso   1.000  H
  H127     1.0000 0.84710  0.56400  0.45150  Biso   1.000  H
  H128     1.0000 0.34710  0.68600  0.29850  Biso   1.000  H
  H129     1.0000 0.56400  0.29850  0.90290  Biso   1.000  H
  H130     1.0000 0.06400  0.95150  0.84710  Biso   1.000  H
  H131     1.0000 0.29850  0.84710  0.18600  Biso   1.000  H
  H132     1.0000 0.79850  0.40290  0.56400  Biso   1.000  H
  H133     1.0000 0.81400  0.09710  0.04850  Biso   1.000  H
  H134     1.0000 0.93600  0.59710  0.20150  Biso   1.000  H
  H135     1.0000 0.54850  0.81400  0.59710  Biso   1.000  H
  H136     1.0000 0.20150  0.31400  0.65290  Biso   1.000  H
  H137     1.0000 0.09710  0.54850  0.31400  Biso   1.000  H
  H138     1.0000 0.65290  0.04850  0.93600  Biso   1.000  H
  H139     1.0000 0.84710  0.06400  0.95150  Biso   1.000  H
  H140     1.0000 0.90290  0.56400  0.29850  Biso   1.000  H
  H141     1.0000 0.56400  0.79850  0.40290  Biso   1.000  H
  H142     1.0000 0.18600  0.29850  0.84710  Biso   1.000  H
  H143     1.0000 0.29850  0.34710  0.68600  Biso   1.000  H
  H144     1.0000 0.45150  0.84710  0.56400  Biso   1.000  H
  H145     1.0000 0.93600  0.15290  0.54850  Biso   1.000  H
  H146     1.0000 0.43600  0.09710  0.20150  Biso   1.000  H
  H147     1.0000 0.81400  0.65290  0.70150  Biso   1.000  H
  H148     1.0000 0.54850  0.93600  0.15290  Biso   1.000  H
  H149     1.0000 0.20150  0.43600  0.09710  Biso   1.000  H
  H150     1.0000 0.70150  0.81400  0.65290  Biso   1.000  H
  H151     1.0000 0.15290  0.54850  0.93600  Biso   1.000  H
  H152     1.0000 0.09710  0.20150  0.43600  Biso   1.000  H
  H153     1.0000 0.65290  0.70150  0.81400  Biso   1.000  H
  H154     1.0000 0.90290  0.18600  0.45150  Biso   1.000  H
  H155     1.0000 0.18600  0.45150  0.90290  Biso   1.000  H
  H156     1.0000 0.45150  0.90290  0.18600  Biso   1.000  H
  H157     1.0000 0.43600  0.59710  0.70150  Biso   1.000  H
  H158     1.0000 0.81400  0.15290  0.20150  Biso   1.000  H
  H159     1.0000 0.54850  0.43600  0.65290  Biso   1.000  H
  H160     1.0000 0.70150  0.31400  0.15290  Biso   1.000  H
  H161     1.0000 0.15290  0.04850  0.43600  Biso   1.000  H
  H162     1.0000 0.09710  0.70150  0.93600  Biso   1.000  H
  H163     1.0000 0.34710  0.06400  0.45150  Biso   1.000  H
  H164     1.0000 0.90290  0.68600  0.95150  Biso   1.000  H
  H165     1.0000 0.06400  0.79850  0.90290  Biso   1.000  H
  H166     1.0000 0.18600  0.95150  0.40290  Biso   1.000  H
  H167     1.0000 0.79850  0.34710  0.18600  Biso   1.000  H
  H168     1.0000 0.45150  0.40290  0.68600  Biso   1.000  H
  H169     1.0000 0.43600  0.15290  0.04850  Biso   1.000  H
  H170     1.0000 0.93600  0.09710  0.70150  Biso   1.000  H
  H171     1.0000 0.70150  0.43600  0.59710  Biso   1.000  H
  H172     1.0000 0.20150  0.81400  0.15290  Biso   1.000  H
  H173     1.0000 0.65290  0.54850  0.43600  Biso   1.000  H
  H174     1.0000 0.15290  0.70150  0.31400  Biso   1.000  H
  H175     1.0000 0.40290  0.18600  0.95150  Biso   1.000  H
  H176     1.0000 0.90290  0.06400  0.79850  Biso   1.000  H
  H177     1.0000 0.18600  0.79850  0.34710  Biso   1.000  H
  H178     1.0000 0.68600  0.45150  0.40290  Biso   1.000  H
  H179     1.0000 0.45150  0.34710  0.06400  Biso   1.000  H
  H180     1.0000 0.95150  0.90290  0.68600  Biso   1.000  H
  H181     1.0000 0.43600  0.65290  0.54850  Biso   1.000  H
  H182     1.0000 0.31400  0.15290  0.70150  Biso   1.000  H
  H183     1.0000 0.04850  0.43600  0.15290  Biso   1.000  H
  H184     1.0000 0.70150  0.93600  0.09710  Biso   1.000  H
  H185     1.0000 0.59710  0.70150  0.43600  Biso   1.000  H
  H186     1.0000 0.15290  0.20150  0.81400  Biso   1.000  H
  H187     1.0000 0.40290  0.68600  0.45150  Biso   1.000  H
  H188     1.0000 0.34710  0.18600  0.79850  Biso   1.000  H
  H189     1.0000 0.68600  0.95150  0.90290  Biso   1.000  H
  H190     1.0000 0.06400  0.45150  0.34710  Biso   1.000  H
  H191     1.0000 0.79850  0.90290  0.06400  Biso   1.000  H
  H192     1.0000 0.95150  0.40290  0.18600  Biso   1.000  H
  C193     1.0000 0.64414  0.37241  0.97122  Biso   1.000  C
  C194     1.0000 0.97122  0.64414  0.37241  Biso   1.000  C
  C195     1.0000 0.37241  0.97122  0.64414  Biso   1.000  C
  C196     1.0000 0.12241  0.89414  0.02878  Biso   1.000  C
  C197     1.0000 0.62241  0.35586  0.72122  Biso   1.000  C
  C198     1.0000 0.62759  0.39414  0.22122  Biso   1.000  C
  C199     1.0000 0.39414  0.22122  0.62759  Biso   1.000  C
  C200     1.0000 0.35586  0.72122  0.62241  Biso   1.000  C
  C201     1.0000 0.89414  0.02878  0.12241  Biso   1.000  C
  C202     1.0000 0.72122  0.62241  0.35586  Biso   1.000  C
  C203     1.0000 0.22122  0.62759  0.39414  Biso   1.000  C
  C204     1.0000 0.02878  0.12241  0.89414  Biso   1.000  C
  C205     1.0000 0.64414  0.87241  0.47122  Biso   1.000  C
  C206     1.0000 0.60586  0.87759  0.97122  Biso   1.000  C
  C207     1.0000 0.97122  0.14414  0.87241  Biso   1.000  C
  C208     1.0000 0.27878  0.60586  0.37241  Biso   1.000  C
  C209     1.0000 0.37241  0.47122  0.14414  Biso   1.000  C
  C210     1.0000 0.87759  0.27878  0.64414  Biso   1.000  C
  C211     1.0000 0.62241  0.85586  0.22122  Biso   1.000  C
  C212     1.0000 0.62759  0.89414  0.72122  Biso   1.000  C
  C213     1.0000 0.35586  0.22122  0.12241  Biso   1.000  C
  C214     1.0000 0.89414  0.52878  0.62241  Biso   1.000  C
  C215     1.0000 0.22122  0.12759  0.89414  Biso   1.000  C
  C216     1.0000 0.02878  0.62241  0.39414  Biso   1.000  C
  C217     1.0000 0.14414  0.37241  0.47122  Biso   1.000  C
  C218     1.0000 0.64414  0.87759  0.27878  Biso   1.000  C
  C219     1.0000 0.47122  0.64414  0.87241  Biso   1.000  C
  C220     1.0000 0.97122  0.60586  0.87759  Biso   1.000  C
  C221     1.0000 0.87241  0.97122  0.14414  Biso   1.000  C
  C222     1.0000 0.37241  0.27878  0.60586  Biso   1.000  C
  C223     1.0000 0.62241  0.89414  0.52878  Biso   1.000  C
  C224     1.0000 0.12241  0.35586  0.22122  Biso   1.000  C
  C225     1.0000 0.89414  0.22122  0.12759  Biso   1.000  C
  C226     1.0000 0.39414  0.02878  0.62241  Biso   1.000  C
  C227     1.0000 0.22122  0.62241  0.85586  Biso   1.000  C
  C228     1.0000 0.72122  0.62759  0.89414  Biso   1.000  C
  C229     1.0000 0.14414  0.87241  0.97122  Biso   1.000  C
  C230     1.0000 0.60586  0.37241  0.27878  Biso   1.000  C
  C231     1.0000 0.47122  0.14414  0.37241  Biso   1.000  C
  C232     1.0000 0.27878  0.64414  0.87759  Biso   1.000  C
  C233     1.0000 0.87241  0.47122  0.64414  Biso   1.000  C
  C234     1.0000 0.87759  0.97122  0.60586  Biso   1.000  C
  C235     1.0000 0.62241  0.39414  0.02878  Biso   1.000  C
  C236     1.0000 0.12759  0.89414  0.22122  Biso   1.000  C
  C237     1.0000 0.89414  0.72122  0.62759  Biso   1.000  C
  C238     1.0000 0.85586  0.22122  0.62241  Biso   1.000  C
  C239     1.0000 0.22122  0.12241  0.35586  Biso   1.000  C
  C240     1.0000 0.52878  0.62241  0.89414  Biso   1.000  C
  C241     1.0000 0.60586  0.37759  0.47122  Biso   1.000  C
  C242     1.0000 0.10586  0.87241  0.27878  Biso   1.000  C
  C243     1.0000 0.14414  0.87759  0.77878  Biso   1.000  C
  C244     1.0000 0.47122  0.60586  0.37759  Biso   1.000  C
  C245     1.0000 0.27878  0.10586  0.87241  Biso   1.000  C
  C246     1.0000 0.77878  0.14414  0.87759  Biso   1.000  C
  C247     1.0000 0.37759  0.47122  0.60586  Biso   1.000  C
  C248     1.0000 0.87241  0.27878  0.10586  Biso   1.000  C
  C249     1.0000 0.87759  0.77878  0.14414  Biso   1.000  C
  C250     1.0000 0.12759  0.85586  0.52878  Biso   1.000  C
  C251     1.0000 0.85586  0.52878  0.12759  Biso   1.000  C
  C252     1.0000 0.52878  0.12759  0.85586  Biso   1.000  C
  C253     1.0000 0.10586  0.37241  0.77878  Biso   1.000  C
  C254     1.0000 0.14414  0.37759  0.27878  Biso   1.000  C
  C255     1.0000 0.47122  0.10586  0.87759  Biso   1.000  C
  C256     1.0000 0.77878  0.64414  0.37759  Biso   1.000  C
  C257     1.0000 0.37759  0.97122  0.10586  Biso   1.000  C
  C258     1.0000 0.87241  0.77878  0.60586  Biso   1.000  C
  C259     1.0000 0.12241  0.39414  0.52878  Biso   1.000  C
  C260     1.0000 0.12759  0.35586  0.02878  Biso   1.000  C
  C261     1.0000 0.39414  0.72122  0.12759  Biso   1.000  C
  C262     1.0000 0.85586  0.02878  0.62759  Biso   1.000  C
  C263     1.0000 0.72122  0.12241  0.85586  Biso   1.000  C
  C264     1.0000 0.52878  0.62759  0.35586  Biso   1.000  C
  C265     1.0000 0.10586  0.37759  0.97122  Biso   1.000  C
  C266     1.0000 0.60586  0.87241  0.77878  Biso   1.000  C
  C267     1.0000 0.77878  0.10586  0.37241  Biso   1.000  C
  C268     1.0000 0.27878  0.14414  0.37759  Biso   1.000  C
  C269     1.0000 0.87759  0.47122  0.10586  Biso   1.000  C
  C270     1.0000 0.37759  0.77878  0.64414  Biso   1.000  C
  C271     1.0000 0.62759  0.85586  0.02878  Biso   1.000  C
  C272     1.0000 0.12759  0.39414  0.72122  Biso   1.000  C
  C273     1.0000 0.85586  0.72122  0.12241  Biso   1.000  C
  C274     1.0000 0.35586  0.52878  0.62759  Biso   1.000  C
  C275     1.0000 0.52878  0.12241  0.39414  Biso   1.000  C
  C276     1.0000 0.02878  0.12759  0.35586  Biso   1.000  C
  C277     1.0000 0.10586  0.87759  0.47122  Biso   1.000  C
  C278     1.0000 0.64414  0.37759  0.77878  Biso   1.000  C
  C279     1.0000 0.97122  0.10586  0.37759  Biso   1.000  C
  C280     1.0000 0.77878  0.60586  0.87241  Biso   1.000  C
  C281     1.0000 0.37241  0.77878  0.10586  Biso   1.000  C
  C282     1.0000 0.37759  0.27878  0.14414  Biso   1.000  C
  C283     1.0000 0.62759  0.35586  0.52878  Biso   1.000  C
  C284     1.0000 0.12241  0.85586  0.72122  Biso   1.000  C
  C285     1.0000 0.35586  0.02878  0.12759  Biso   1.000  C
  C286     1.0000 0.39414  0.52878  0.12241  Biso   1.000  C
  C287     1.0000 0.72122  0.12759  0.39414  Biso   1.000  C
  C288     1.0000 0.02878  0.62759  0.85586  Biso   1.000  C
  C289     1.0000 0.35586  0.62759  0.02878  Biso   1.000  C
  C290     1.0000 0.02878  0.35586  0.62759  Biso   1.000  C
  C291     1.0000 0.62759  0.02878  0.35586  Biso   1.000  C
  C292     1.0000 0.37759  0.60586  0.97122  Biso   1.000  C
  C293     1.0000 0.87759  0.64414  0.77878  Biso   1.000  C
  C294     1.0000 0.37241  0.10586  0.27878  Biso   1.000  C
  C295     1.0000 0.10586  0.27878  0.37241  Biso   1.000  C
  C296     1.0000 0.64414  0.77878  0.87759  Biso   1.000  C
  C297     1.0000 0.60586  0.97122  0.37759  Biso   1.000  C
  C298     1.0000 0.77878  0.87759  0.64414  Biso   1.000  C
  C299     1.0000 0.27878  0.37241  0.10586  Biso   1.000  C
  C300     1.0000 0.97122  0.37759  0.60586  Biso   1.000  C
  C301     1.0000 0.35586  0.12759  0.52878  Biso   1.000  C
  C302     1.0000 0.89414  0.62241  0.02878  Biso   1.000  C
  C303     1.0000 0.02878  0.85586  0.12759  Biso   1.000  C
  C304     1.0000 0.22122  0.89414  0.62759  Biso   1.000  C
  C305     1.0000 0.62759  0.52878  0.85586  Biso   1.000  C
  C306     1.0000 0.62241  0.22122  0.35586  Biso   1.000  C
  C307     1.0000 0.87759  0.14414  0.27878  Biso   1.000  C
  C308     1.0000 0.37241  0.60586  0.77878  Biso   1.000  C
  C309     1.0000 0.64414  0.27878  0.37759  Biso   1.000  C
  C310     1.0000 0.60586  0.47122  0.87759  Biso   1.000  C
  C311     1.0000 0.27878  0.87241  0.60586  Biso   1.000  C
  C312     1.0000 0.97122  0.87759  0.10586  Biso   1.000  C
  C313     1.0000 0.85586  0.62759  0.52878  Biso   1.000  C
  C314     1.0000 0.35586  0.62241  0.22122  Biso   1.000  C
  C315     1.0000 0.52878  0.35586  0.12759  Biso   1.000  C
  C316     1.0000 0.02878  0.89414  0.62241  Biso   1.000  C
  C317     1.0000 0.12759  0.02878  0.85586  Biso   1.000  C
  C318     1.0000 0.62759  0.22122  0.89414  Biso   1.000  C
  C319     1.0000 0.87759  0.60586  0.47122  Biso   1.000  C
  C320     1.0000 0.37759  0.64414  0.27878  Biso   1.000  C
  C321     1.0000 0.60586  0.27878  0.87241  Biso   1.000  C
  C322     1.0000 0.10586  0.97122  0.87759  Biso   1.000  C
  C323     1.0000 0.27878  0.87759  0.14414  Biso   1.000  C
  C324     1.0000 0.77878  0.37241  0.60586  Biso   1.000  C
  C325     1.0000 0.85586  0.12759  0.02878  Biso   1.000  C
  C326     1.0000 0.89414  0.62759  0.22122  Biso   1.000  C
  C327     1.0000 0.52878  0.85586  0.62759  Biso   1.000  C
  C328     1.0000 0.22122  0.35586  0.62241  Biso   1.000  C
  C329     1.0000 0.12759  0.52878  0.35586  Biso   1.000  C
  C330     1.0000 0.62241  0.02878  0.89414  Biso   1.000  C
  C331     1.0000 0.87759  0.10586  0.97122  Biso   1.000  C
  C332     1.0000 0.87241  0.60586  0.27878  Biso   1.000  C
  C333     1.0000 0.60586  0.77878  0.37241  Biso   1.000  C
  C334     1.0000 0.14414  0.27878  0.87759  Biso   1.000  C
  C335     1.0000 0.27878  0.37759  0.64414  Biso   1.000  C
  C336     1.0000 0.47122  0.87759  0.60586  Biso   1.000  C
  C337     1.0000 0.89414  0.12241  0.52878  Biso   1.000  C
  C338     1.0000 0.39414  0.12759  0.22122  Biso   1.000  C
  C339     1.0000 0.85586  0.62241  0.72122  Biso   1.000  C
  C340     1.0000 0.52878  0.89414  0.12241  Biso   1.000  C
  C341     1.0000 0.22122  0.39414  0.12759  Biso   1.000  C
  C342     1.0000 0.72122  0.85586  0.62241  Biso   1.000  C
  C343     1.0000 0.12241  0.52878  0.89414  Biso   1.000  C
  C344     1.0000 0.12759  0.22122  0.39414  Biso   1.000  C
  C345     1.0000 0.62241  0.72122  0.85586  Biso   1.000  C
  C346     1.0000 0.87241  0.14414  0.47122  Biso   1.000  C
  C347     1.0000 0.14414  0.47122  0.87241  Biso   1.000  C
  C348     1.0000 0.47122  0.87241  0.14414  Biso   1.000  C
  C349     1.0000 0.39414  0.62759  0.72122  Biso   1.000  C
  C350     1.0000 0.85586  0.12241  0.22122  Biso   1.000  C
  C351     1.0000 0.52878  0.39414  0.62241  Biso   1.000  C
  C352     1.0000 0.72122  0.35586  0.12241  Biso   1.000  C
  C353     1.0000 0.12241  0.02878  0.39414  Biso   1.000  C
  C354     1.0000 0.12759  0.72122  0.89414  Biso   1.000  C
  C355     1.0000 0.37759  0.10586  0.47122  Biso   1.000  C
  C356     1.0000 0.87241  0.64414  0.97122  Biso   1.000  C
  C357     1.0000 0.10586  0.77878  0.87241  Biso   1.000  C
  C358     1.0000 0.14414  0.97122  0.37241  Biso   1.000  C
  C359     1.0000 0.77878  0.37759  0.14414  Biso   1.000  C
  C360     1.0000 0.47122  0.37241  0.64414  Biso   1.000  C
  C361     1.0000 0.39414  0.12241  0.02878  Biso   1.000  C
  C362     1.0000 0.89414  0.12759  0.72122  Biso   1.000  C
  C363     1.0000 0.72122  0.39414  0.62759  Biso   1.000  C
  C364     1.0000 0.22122  0.85586  0.12241  Biso   1.000  C
  C365     1.0000 0.62241  0.52878  0.39414  Biso   1.000  C
  C366     1.0000 0.12241  0.72122  0.35586  Biso   1.000  C
  C367     1.0000 0.37241  0.14414  0.97122  Biso   1.000  C
  C368     1.0000 0.87241  0.10586  0.77878  Biso   1.000  C
  C369     1.0000 0.14414  0.77878  0.37759  Biso   1.000  C
  C370     1.0000 0.64414  0.47122  0.37241  Biso   1.000  C
  C371     1.0000 0.47122  0.37759  0.10586  Biso   1.000  C
  C372     1.0000 0.97122  0.87241  0.64414  Biso   1.000  C
  C373     1.0000 0.39414  0.62241  0.52878  Biso   1.000  C
  C374     1.0000 0.35586  0.12241  0.72122  Biso   1.000  C
  C375     1.0000 0.02878  0.39414  0.12241  Biso   1.000  C
  C376     1.0000 0.72122  0.89414  0.12759  Biso   1.000  C
  C377     1.0000 0.62759  0.72122  0.39414  Biso   1.000  C
  C378     1.0000 0.12241  0.22122  0.85586  Biso   1.000  C
  C379     1.0000 0.37241  0.64414  0.47122  Biso   1.000  C
  C380     1.0000 0.37759  0.14414  0.77878  Biso   1.000  C
  C381     1.0000 0.64414  0.97122  0.87241  Biso   1.000  C
  C382     1.0000 0.10586  0.47122  0.37759  Biso   1.000  C
  C383     1.0000 0.77878  0.87241  0.10586  Biso   1.000  C
  C384     1.0000 0.97122  0.37241  0.14414  Biso   1.000  C
  H193     1.0000 0.64330  0.35540  0.95110  Biso   1.000  H
  H194     1.0000 0.95110  0.64330  0.35540  Biso   1.000  H
  H195     1.0000 0.35540  0.95110  0.64330  Biso   1.000  H
  H196     1.0000 0.10540  0.89330  0.04890  Biso   1.000  H
  H197     1.0000 0.60540  0.35670  0.70110  Biso   1.000  H
  H198     1.0000 0.64460  0.39330  0.20110  Biso   1.000  H
  H199     1.0000 0.39330  0.20110  0.64460  Biso   1.000  H
  H200     1.0000 0.35670  0.70110  0.60540  Biso   1.000  H
  H201     1.0000 0.89330  0.04890  0.10540  Biso   1.000  H
  H202     1.0000 0.70110  0.60540  0.35670  Biso   1.000  H
  H203     1.0000 0.20110  0.64460  0.39330  Biso   1.000  H
  H204     1.0000 0.04890  0.10540  0.89330  Biso   1.000  H
  H205     1.0000 0.64330  0.85540  0.45110  Biso   1.000  H
  H206     1.0000 0.60670  0.89460  0.95110  Biso   1.000  H
  H207     1.0000 0.95110  0.14330  0.85540  Biso   1.000  H
  H208     1.0000 0.29890  0.60670  0.35540  Biso   1.000  H
  H209     1.0000 0.35540  0.45110  0.14330  Biso   1.000  H
  H210     1.0000 0.89460  0.29890  0.64330  Biso   1.000  H
  H211     1.0000 0.60540  0.85670  0.20110  Biso   1.000  H
  H212     1.0000 0.64460  0.89330  0.70110  Biso   1.000  H
  H213     1.0000 0.35670  0.20110  0.10540  Biso   1.000  H
  H214     1.0000 0.89330  0.54890  0.60540  Biso   1.000  H
  H215     1.0000 0.20110  0.14460  0.89330  Biso   1.000  H
  H216     1.0000 0.04890  0.60540  0.39330  Biso   1.000  H
  H217     1.0000 0.14330  0.35540  0.45110  Biso   1.000  H
  H218     1.0000 0.64330  0.89460  0.29890  Biso   1.000  H
  H219     1.0000 0.45110  0.64330  0.85540  Biso   1.000  H
  H220     1.0000 0.95110  0.60670  0.89460  Biso   1.000  H
  H221     1.0000 0.85540  0.95110  0.14330  Biso   1.000  H
  H222     1.0000 0.35540  0.29890  0.60670  Biso   1.000  H
  H223     1.0000 0.60540  0.89330  0.54890  Biso   1.000  H
  H224     1.0000 0.10540  0.35670  0.20110  Biso   1.000  H
  H225     1.0000 0.89330  0.20110  0.14460  Biso   1.000  H
  H226     1.0000 0.39330  0.04890  0.60540  Biso   1.000  H
  H227     1.0000 0.20110  0.60540  0.85670  Biso   1.000  H
  H228     1.0000 0.70110  0.64460  0.89330  Biso   1.000  H
  H229     1.0000 0.14330  0.85540  0.95110  Biso   1.000  H
  H230     1.0000 0.60670  0.35540  0.29890  Biso   1.000  H
  H231     1.0000 0.45110  0.14330  0.35540  Biso   1.000  H
  H232     1.0000 0.29890  0.64330  0.89460  Biso   1.000  H
  H233     1.0000 0.85540  0.45110  0.64330  Biso   1.000  H
  H234     1.0000 0.89460  0.95110  0.60670  Biso   1.000  H
  H235     1.0000 0.60540  0.39330  0.04890  Biso   1.000  H
  H236     1.0000 0.14460  0.89330  0.20110  Biso   1.000  H
  H237     1.0000 0.89330  0.70110  0.64460  Biso   1.000  H
  H238     1.0000 0.85670  0.20110  0.60540  Biso   1.000  H
  H239     1.0000 0.20110  0.10540  0.35670  Biso   1.000  H
  H240     1.0000 0.54890  0.60540  0.89330  Biso   1.000  H
  H241     1.0000 0.60670  0.39460  0.45110  Biso   1.000  H
  H242     1.0000 0.10670  0.85540  0.29890  Biso   1.000  H
  H243     1.0000 0.14330  0.89460  0.79890  Biso   1.000  H
  H244     1.0000 0.45110  0.60670  0.39460  Biso   1.000  H
  H245     1.0000 0.29890  0.10670  0.85540  Biso   1.000  H
  H246     1.0000 0.79890  0.14330  0.89460  Biso   1.000  H
  H247     1.0000 0.39460  0.45110  0.60670  Biso   1.000  H
  H248     1.0000 0.85540  0.29890  0.10670  Biso   1.000  H
  H249     1.0000 0.89460  0.79890  0.14330  Biso   1.000  H
  H250     1.0000 0.14460  0.85670  0.54890  Biso   1.000  H
  H251     1.0000 0.85670  0.54890  0.14460  Biso   1.000  H
  H252     1.0000 0.54890  0.14460  0.85670  Biso   1.000  H
  H253     1.0000 0.10670  0.35540  0.79890  Biso   1.000  H
  H254     1.0000 0.14330  0.39460  0.29890  Biso   1.000  H
  H255     1.0000 0.45110  0.10670  0.89460  Biso   1.000  H
  H256     1.0000 0.79890  0.64330  0.39460  Biso   1.000  H
  H257     1.0000 0.39460  0.95110  0.10670  Biso   1.000  H
  H258     1.0000 0.85540  0.79890  0.60670  Biso   1.000  H
  H259     1.0000 0.10540  0.39330  0.54890  Biso   1.000  H
  H260     1.0000 0.14460  0.35670  0.04890  Biso   1.000  H
  H261     1.0000 0.39330  0.70110  0.14460  Biso   1.000  H
  H262     1.0000 0.85670  0.04890  0.64460  Biso   1.000  H
  H263     1.0000 0.70110  0.10540  0.85670  Biso   1.000  H
  H264     1.0000 0.54890  0.64460  0.35670  Biso   1.000  H
  H265     1.0000 0.10670  0.39460  0.95110  Biso   1.000  H
  H266     1.0000 0.60670  0.85540  0.79890  Biso   1.000  H
  H267     1.0000 0.79890  0.10670  0.35540  Biso   1.000  H
  H268     1.0000 0.29890  0.14330  0.39460  Biso   1.000  H
  H269     1.0000 0.89460  0.45110  0.10670  Biso   1.000  H
  H270     1.0000 0.39460  0.79890  0.64330  Biso   1.000  H
  H271     1.0000 0.64460  0.85670  0.04890  Biso   1.000  H
  H272     1.0000 0.14460  0.39330  0.70110  Biso   1.000  H
  H273     1.0000 0.85670  0.70110  0.10540  Biso   1.000  H
  H274     1.0000 0.35670  0.54890  0.64460  Biso   1.000  H
  H275     1.0000 0.54890  0.10540  0.39330  Biso   1.000  H
  H276     1.0000 0.04890  0.14460  0.35670  Biso   1.000  H
  H277     1.0000 0.10670  0.89460  0.45110  Biso   1.000  H
  H278     1.0000 0.64330  0.39460  0.79890  Biso   1.000  H
  H279     1.0000 0.95110  0.10670  0.39460  Biso   1.000  H
  H280     1.0000 0.79890  0.60670  0.85540  Biso   1.000  H
  H281     1.0000 0.35540  0.79890  0.10670  Biso   1.000  H
  H282     1.0000 0.39460  0.29890  0.14330  Biso   1.000  H
  H283     1.0000 0.64460  0.35670  0.54890  Biso   1.000  H
  H284     1.0000 0.10540  0.85670  0.70110  Biso   1.000  H
  H285     1.0000 0.35670  0.04890  0.14460  Biso   1.000  H
  H286     1.0000 0.39330  0.54890  0.10540  Biso   1.000  H
  H287     1.0000 0.70110  0.14460  0.39330  Biso   1.000  H
  H288     1.0000 0.04890  0.64460  0.85670  Biso   1.000  H
  H289     1.0000 0.35670  0.64460  0.04890  Biso   1.000  H
  H290     1.0000 0.04890  0.35670  0.64460  Biso   1.000  H
  H291     1.0000 0.64460  0.04890  0.35670  Biso   1.000  H
  H292     1.0000 0.39460  0.60670  0.95110  Biso   1.000  H
  H293     1.0000 0.89460  0.64330  0.79890  Biso   1.000  H
  H294     1.0000 0.35540  0.10670  0.29890  Biso   1.000  H
  H295     1.0000 0.10670  0.29890  0.35540  Biso   1.000  H
  H296     1.0000 0.64330  0.79890  0.89460  Biso   1.000  H
  H297     1.0000 0.60670  0.95110  0.39460  Biso   1.000  H
  H298     1.0000 0.79890  0.89460  0.64330  Biso   1.000  H
  H299     1.0000 0.29890  0.35540  0.10670  Biso   1.000  H
  H300     1.0000 0.95110  0.39460  0.60670  Biso   1.000  H
  H301     1.0000 0.35670  0.14460  0.54890  Biso   1.000  H
  H302     1.0000 0.89330  0.60540  0.04890  Biso   1.000  H
  H303     1.0000 0.04890  0.85670  0.14460  Biso   1.000  H
  H304     1.0000 0.20110  0.89330  0.64460  Biso   1.000  H
  H305     1.0000 0.64460  0.54890  0.85670  Biso   1.000  H
  H306     1.0000 0.60540  0.20110  0.35670  Biso   1.000  H
  H307     1.0000 0.89460  0.14330  0.29890  Biso   1.000  H
  H308     1.0000 0.35540  0.60670  0.79890  Biso   1.000  H
  H309     1.0000 0.64330  0.29890  0.39460  Biso   1.000  H
  H310     1.0000 0.60670  0.45110  0.89460  Biso   1.000  H
  H311     1.0000 0.29890  0.85540  0.60670  Biso   1.000  H
  H312     1.0000 0.95110  0.89460  0.10670  Biso   1.000  H
  H313     1.0000 0.85670  0.64460  0.54890  Biso   1.000  H
  H314     1.0000 0.35670  0.60540  0.20110  Biso   1.000  H
  H315     1.0000 0.54890  0.35670  0.14460  Biso   1.000  H
  H316     1.0000 0.04890  0.89330  0.60540  Biso   1.000  H
  H317     1.0000 0.14460  0.04890  0.85670  Biso   1.000  H
  H318     1.0000 0.64460  0.20110  0.89330  Biso   1.000  H
  H319     1.0000 0.89460  0.60670  0.45110  Biso   1.000  H
  H320     1.0000 0.39460  0.64330  0.29890  Biso   1.000  H
  H321     1.0000 0.60670  0.29890  0.85540  Biso   1.000  H
  H322     1.0000 0.10670  0.95110  0.89460  Biso   1.000  H
  H323     1.0000 0.29890  0.89460  0.14330  Biso   1.000  H
  H324     1.0000 0.79890  0.35540  0.60670  Biso   1.000  H
  H325     1.0000 0.85670  0.14460  0.04890  Biso   1.000  H
  H326     1.0000 0.89330  0.64460  0.20110  Biso   1.000  H
  H327     1.0000 0.54890  0.85670  0.64460  Biso   1.000  H
  H328     1.0000 0.20110  0.35670  0.60540  Biso   1.000  H
  H329     1.0000 0.14460  0.54890  0.35670  Biso   1.000  H
  H330     1.0000 0.60540  0.04890  0.89330  Biso   1.000  H
  H331     1.0000 0.89460  0.10670  0.95110  Biso   1.000  H
  H332     1.0000 0.85540  0.60670  0.29890  Biso   1.000  H
  H333     1.0000 0.60670  0.79890  0.35540  Biso   1.000  H
  H334     1.0000 0.14330  0.29890  0.89460  Biso   1.000  H
  H335     1.0000 0.29890  0.39460  0.64330  Biso   1.000  H
  H336     1.0000 0.45110  0.89460  0.60670  Biso   1.000  H
  H337     1.0000 0.89330  0.10540  0.54890  Biso   1.000  H
  H338     1.0000 0.39330  0.14460  0.20110  Biso   1.000  H
  H339     1.0000 0.85670  0.60540  0.70110  Biso   1.000  H
  H340     1.0000 0.54890  0.89330  0.10540  Biso   1.000  H
  H341     1.0000 0.20110  0.39330  0.14460  Biso   1.000  H
  H342     1.0000 0.70110  0.85670  0.60540  Biso   1.000  H
  H343     1.0000 0.10540  0.54890  0.89330  Biso   1.000  H
  H344     1.0000 0.14460  0.20110  0.39330  Biso   1.000  H
  H345     1.0000 0.60540  0.70110  0.85670  Biso   1.000  H
  H346     1.0000 0.85540  0.14330  0.45110  Biso   1.000  H
  H347     1.0000 0.14330  0.45110  0.85540  Biso   1.000  H
  H348     1.0000 0.45110  0.85540  0.14330  Biso   1.000  H
  H349     1.0000 0.39330  0.64460  0.70110  Biso   1.000  H
  H350     1.0000 0.85670  0.10540  0.20110  Biso   1.000  H
  H351     1.0000 0.54890  0.39330  0.60540  Biso   1.000  H
  H352     1.0000 0.70110  0.35670  0.10540  Biso   1.000  H
  H353     1.0000 0.10540  0.04890  0.39330  Biso   1.000  H
  H354     1.0000 0.14460  0.70110  0.89330  Biso   1.000  H
  H355     1.0000 0.39460  0.10670  0.45110  Biso   1.000  H
  H356     1.0000 0.85540  0.64330  0.95110  Biso   1.000  H
  H357     1.0000 0.10670  0.79890  0.85540  Biso   1.000  H
  H358     1.0000 0.14330  0.95110  0.35540  Biso   1.000  H
  H359     1.0000 0.79890  0.39460  0.14330  Biso   1.000  H
  H360     1.0000 0.45110  0.35540  0.64330  Biso   1.000  H
  H361     1.0000 0.39330  0.10540  0.04890  Biso   1.000  H
  H362     1.0000 0.89330  0.14460  0.70110  Biso   1.000  H
  H363     1.0000 0.70110  0.39330  0.64460  Biso   1.000  H
  H364     1.0000 0.20110  0.85670  0.10540  Biso   1.000  H
  H365     1.0000 0.60540  0.54890  0.39330  Biso   1.000  H
  H366     1.0000 0.10540  0.70110  0.35670  Biso   1.000  H
  H367     1.0000 0.35540  0.14330  0.95110  Biso   1.000  H
  H368     1.0000 0.85540  0.10670  0.79890  Biso   1.000  H
  H369     1.0000 0.14330  0.79890  0.39460  Biso   1.000  H
  H370     1.0000 0.64330  0.45110  0.35540  Biso   1.000  H
  H371     1.0000 0.45110  0.39460  0.10670  Biso   1.000  H
  H372     1.0000 0.95110  0.85540  0.64330  Biso   1.000  H
  H373     1.0000 0.39330  0.60540  0.54890  Biso   1.000  H
  H374     1.0000 0.35670  0.10540  0.70110  Biso   1.000  H
  H375     1.0000 0.04890  0.39330  0.10540  Biso   1.000  H
  H376     1.0000 0.70110  0.89330  0.14460  Biso   1.000  H
  H377     1.0000 0.64460  0.70110  0.39330  Biso   1.000  H
  H378     1.0000 0.10540  0.20110  0.85670  Biso   1.000  H
  H379     1.0000 0.35540  0.64330  0.45110  Biso   1.000  H
  H380     1.0000 0.39460  0.14330  0.79890  Biso   1.000  H
  H381     1.0000 0.64330  0.95110  0.85540  Biso   1.000  H
  H382     1.0000 0.10670  0.45110  0.39460  Biso   1.000  H
  H383     1.0000 0.79890  0.85540  0.10670  Biso   1.000  H
  H384     1.0000 0.95110  0.35540  0.14330  Biso   1.000  H
  C385     1.0000 0.61960  0.36958  0.00000  Biso   1.000  C
  C386     1.0000 0.00000  0.61960  0.36958  Biso   1.000  C
  C387     1.0000 0.36958  0.00000  0.61960  Biso   1.000  C
  C388     1.0000 0.11958  0.86960  0.00000  Biso   1.000  C
  C389     1.0000 0.61958  0.38040  0.75000  Biso   1.000  C
  C390     1.0000 0.63042  0.36960  0.25000  Biso   1.000  C
  C391     1.0000 0.36960  0.25000  0.63042  Biso   1.000  C
  C392     1.0000 0.38040  0.75000  0.61958  Biso   1.000  C
  C393     1.0000 0.86960  0.00000  0.11958  Biso   1.000  C
  C394     1.0000 0.75000  0.61958  0.38040  Biso   1.000  C
  C395     1.0000 0.25000  0.63042  0.36960  Biso   1.000  C
  C396     1.0000 0.00000  0.11958  0.86960  Biso   1.000  C
  C397     1.0000 0.61960  0.86958  0.50000  Biso   1.000  C
  C398     1.0000 0.63040  0.88042  0.00000  Biso   1.000  C
  C399     1.0000 0.36958  0.50000  0.11960  Biso   1.000  C
  C400     1.0000 0.88042  0.25000  0.61960  Biso   1.000  C
  C401     1.0000 0.61958  0.88040  0.25000  Biso   1.000  C
  C402     1.0000 0.63042  0.86960  0.75000  Biso   1.000  C
  C403     1.0000 0.38040  0.25000  0.11958  Biso   1.000  C
  C404     1.0000 0.86960  0.50000  0.61958  Biso   1.000  C
  C405     1.0000 0.25000  0.13042  0.86960  Biso   1.000  C
  C406     1.0000 0.11960  0.36958  0.50000  Biso   1.000  C
  C407     1.0000 0.50000  0.61960  0.86958  Biso   1.000  C
  C408     1.0000 0.00000  0.63040  0.88042  Biso   1.000  C
  C409     1.0000 0.11958  0.38040  0.25000  Biso   1.000  C
  C410     1.0000 0.86960  0.25000  0.13042  Biso   1.000  C
  C411     1.0000 0.25000  0.61958  0.88040  Biso   1.000  C
  C412     1.0000 0.75000  0.63042  0.86960  Biso   1.000  C
  C413     1.0000 0.50000  0.11960  0.36958  Biso   1.000  C
  C414     1.0000 0.88042  0.00000  0.63040  Biso   1.000  C
  C415     1.0000 0.13042  0.86960  0.25000  Biso   1.000  C
  C416     1.0000 0.86960  0.75000  0.63042  Biso   1.000  C
  C417     1.0000 0.25000  0.11958  0.38040  Biso   1.000  C
  C418     1.0000 0.63040  0.38042  0.50000  Biso   1.000  C
  C419     1.0000 0.11960  0.88042  0.75000  Biso   1.000  C
  C420     1.0000 0.50000  0.63040  0.38042  Biso   1.000  C
  C421     1.0000 0.75000  0.11960  0.88042  Biso   1.000  C
  C422     1.0000 0.38042  0.50000  0.63040  Biso   1.000  C
  C423     1.0000 0.88042  0.75000  0.11960  Biso   1.000  C
  C424     1.0000 0.13042  0.88040  0.50000  Biso   1.000  C
  C425     1.0000 0.88040  0.50000  0.13042  Biso   1.000  C
  C426     1.0000 0.50000  0.13042  0.88040  Biso   1.000  C
  C427     1.0000 0.13040  0.36958  0.75000  Biso   1.000  C
  C428     1.0000 0.38042  0.00000  0.13040  Biso   1.000  C
  C429     1.0000 0.13042  0.38040  0.00000  Biso   1.000  C
  C430     1.0000 0.36960  0.75000  0.13042  Biso   1.000  C
  C431     1.0000 0.75000  0.13040  0.36958  Biso   1.000  C
  C432     1.0000 0.00000  0.13042  0.38040  Biso   1.000  C
  C433     1.0000 0.38040  0.63042  0.00000  Biso   1.000  C
  C434     1.0000 0.00000  0.38040  0.63042  Biso   1.000  C
  C435     1.0000 0.63042  0.00000  0.38040  Biso   1.000  C
  C436     1.0000 0.88042  0.61960  0.75000  Biso   1.000  C
  C437     1.0000 0.36958  0.13040  0.25000  Biso   1.000  C
  C438     1.0000 0.13040  0.25000  0.36958  Biso   1.000  C
  C439     1.0000 0.61960  0.75000  0.88042  Biso   1.000  C
  C440     1.0000 0.75000  0.88042  0.61960  Biso   1.000  C
  C441     1.0000 0.25000  0.36958  0.13040  Biso   1.000  C
  C442     1.0000 0.38040  0.13042  0.50000  Biso   1.000  C
  C443     1.0000 0.86960  0.61958  0.00000  Biso   1.000  C
  C444     1.0000 0.00000  0.88040  0.13042  Biso   1.000  C
  C445     1.0000 0.25000  0.86960  0.63042  Biso   1.000  C
  C446     1.0000 0.63042  0.50000  0.88040  Biso   1.000  C
  C447     1.0000 0.61958  0.25000  0.38040  Biso   1.000  C
  C448     1.0000 0.88042  0.11960  0.25000  Biso   1.000  C
  C449     1.0000 0.36958  0.63040  0.75000  Biso   1.000  C
  C450     1.0000 0.88040  0.63042  0.50000  Biso   1.000  C
  C451     1.0000 0.38040  0.61958  0.25000  Biso   1.000  C
  C452     1.0000 0.50000  0.38040  0.13042  Biso   1.000  C
  C453     1.0000 0.00000  0.86960  0.61958  Biso   1.000  C
  C454     1.0000 0.13042  0.00000  0.88040  Biso   1.000  C
  C455     1.0000 0.63042  0.25000  0.86960  Biso   1.000  C
  C456     1.0000 0.25000  0.88042  0.11960  Biso   1.000  C
  C457     1.0000 0.75000  0.36958  0.63040  Biso   1.000  C
  C458     1.0000 0.88040  0.13042  0.00000  Biso   1.000  C
  C459     1.0000 0.86960  0.63042  0.25000  Biso   1.000  C
  C460     1.0000 0.50000  0.88040  0.63042  Biso   1.000  C
  C461     1.0000 0.25000  0.38040  0.61958  Biso   1.000  C
  C462     1.0000 0.13042  0.50000  0.38040  Biso   1.000  C
  C463     1.0000 0.61958  0.00000  0.86960  Biso   1.000  C
  C464     1.0000 0.63040  0.75000  0.36958  Biso   1.000  C
  C465     1.0000 0.11960  0.25000  0.88042  Biso   1.000  C
  C466     1.0000 0.86960  0.11958  0.50000  Biso   1.000  C
  C467     1.0000 0.50000  0.86960  0.11958  Biso   1.000  C
  C468     1.0000 0.11958  0.50000  0.86960  Biso   1.000  C
  C469     1.0000 0.50000  0.36960  0.61958  Biso   1.000  C
  C470     1.0000 0.75000  0.38040  0.11958  Biso   1.000  C
  C471     1.0000 0.11958  0.00000  0.36960  Biso   1.000  C
  C472     1.0000 0.13042  0.75000  0.86960  Biso   1.000  C
  C473     1.0000 0.36960  0.11958  0.00000  Biso   1.000  C
  C474     1.0000 0.86960  0.13042  0.75000  Biso   1.000  C
  C475     1.0000 0.61958  0.50000  0.36960  Biso   1.000  C
  C476     1.0000 0.11958  0.75000  0.38040  Biso   1.000  C
  C477     1.0000 0.36960  0.61958  0.50000  Biso   1.000  C
  C478     1.0000 0.38040  0.11958  0.75000  Biso   1.000  C
  C479     1.0000 0.00000  0.36960  0.11958  Biso   1.000  C
  C480     1.0000 0.75000  0.86960  0.13042  Biso   1.000  C
  C481     1.0000 0.59130  0.34128  0.00000  Biso   1.000  C
  C482     1.0000 0.00000  0.59130  0.34128  Biso   1.000  C
  C483     1.0000 0.34128  0.00000  0.59130  Biso   1.000  C
  C484     1.0000 0.09128  0.84130  0.00000  Biso   1.000  C
  C485     1.0000 0.59128  0.40870  0.75000  Biso   1.000  C
  C486     1.0000 0.65872  0.34130  0.25000  Biso   1.000  C
  C487     1.0000 0.34130  0.25000  0.65872  Biso   1.000  C
  C488     1.0000 0.40870  0.75000  0.59128  Biso   1.000  C
  C489     1.0000 0.84130  0.00000  0.09128  Biso   1.000  C
  C490     1.0000 0.75000  0.59128  0.40870  Biso   1.000  C
  C491     1.0000 0.25000  0.65872  0.34130  Biso   1.000  C
  C492     1.0000 0.00000  0.09128  0.84130  Biso   1.000  C
  C493     1.0000 0.59130  0.84128  0.50000  Biso   1.000  C
  C494     1.0000 0.65870  0.90872  0.00000  Biso   1.000  C
  C495     1.0000 0.34128  0.50000  0.09130  Biso   1.000  C
  C496     1.0000 0.90872  0.25000  0.59130  Biso   1.000  C
  C497     1.0000 0.59128  0.90870  0.25000  Biso   1.000  C
  C498     1.0000 0.65872  0.84130  0.75000  Biso   1.000  C
  C499     1.0000 0.40870  0.25000  0.09128  Biso   1.000  C
  C500     1.0000 0.84130  0.50000  0.59128  Biso   1.000  C
  C501     1.0000 0.25000  0.15872  0.84130  Biso   1.000  C
  C502     1.0000 0.09130  0.34128  0.50000  Biso   1.000  C
  C503     1.0000 0.50000  0.59130  0.84128  Biso   1.000  C
  C504     1.0000 0.00000  0.65870  0.90872  Biso   1.000  C
  C505     1.0000 0.09128  0.40870  0.25000  Biso   1.000  C
  C506     1.0000 0.84130  0.25000  0.15872  Biso   1.000  C
  C507     1.0000 0.25000  0.59128  0.90870  Biso   1.000  C
  C508     1.0000 0.75000  0.65872  0.84130  Biso   1.000  C
  C509     1.0000 0.50000  0.09130  0.34128  Biso   1.000  C
  C510     1.0000 0.90872  0.00000  0.65870  Biso   1.000  C
  C511     1.0000 0.15872  0.84130  0.25000  Biso   1.000  C
  C512     1.0000 0.84130  0.75000  0.65872  Biso   1.000  C
  C513     1.0000 0.25000  0.09128  0.40870  Biso   1.000  C
  C514     1.0000 0.65870  0.40872  0.50000  Biso   1.000  C
  C515     1.0000 0.09130  0.90872  0.75000  Biso   1.000  C
  C516     1.0000 0.50000  0.65870  0.40872  Biso   1.000  C
  C517     1.0000 0.75000  0.09130  0.90872  Biso   1.000  C
  C518     1.0000 0.40872  0.50000  0.65870  Biso   1.000  C
  C519     1.0000 0.90872  0.75000  0.09130  Biso   1.000  C
  C520     1.0000 0.15872  0.90870  0.50000  Biso   1.000  C
  C521     1.0000 0.90870  0.50000  0.15872  Biso   1.000  C
  C522     1.0000 0.50000  0.15872  0.90870  Biso   1.000  C
  C523     1.0000 0.15870  0.34128  0.75000  Biso   1.000  C
  C524     1.0000 0.40872  0.00000  0.15870  Biso   1.000  C
  C525     1.0000 0.15872  0.40870  0.00000  Biso   1.000  C
  C526     1.0000 0.34130  0.75000  0.15872  Biso   1.000  C
  C527     1.0000 0.75000  0.15870  0.34128  Biso   1.000  C
  C528     1.0000 0.00000  0.15872  0.40870  Biso   1.000  C
  C529     1.0000 0.40870  0.65872  0.00000  Biso   1.000  C
  C530     1.0000 0.00000  0.40870  0.65872  Biso   1.000  C
  C531     1.0000 0.65872  0.00000  0.40870  Biso   1.000  C
  C532     1.0000 0.90872  0.59130  0.75000  Biso   1.000  C
  C533     1.0000 0.34128  0.15870  0.25000  Biso   1.000  C
  C534     1.0000 0.15870  0.25000  0.34128  Biso   1.000  C
  C535     1.0000 0.59130  0.75000  0.90872  Biso   1.000  C
  C536     1.0000 0.75000  0.90872  0.59130  Biso   1.000  C
  C537     1.0000 0.25000  0.34128  0.15870  Biso   1.000  C
  C538     1.0000 0.40870  0.15872  0.50000  Biso   1.000  C
  C539     1.0000 0.84130  0.59128  0.00000  Biso   1.000  C
  C540     1.0000 0.00000  0.90870  0.15872  Biso   1.000  C
  C541     1.0000 0.25000  0.84130  0.65872  Biso   1.000  C
  C542     1.0000 0.65872  0.50000  0.90870  Biso   1.000  C
  C543     1.0000 0.59128  0.25000  0.40870  Biso   1.000  C
  C544     1.0000 0.90872  0.09130  0.25000  Biso   1.000  C
  C545     1.0000 0.34128  0.65870  0.75000  Biso   1.000  C
  C546     1.0000 0.90870  0.65872  0.50000  Biso   1.000  C
  C547     1.0000 0.40870  0.59128  0.25000  Biso   1.000  C
  C548     1.0000 0.50000  0.40870  0.15872  Biso   1.000  C
  C549     1.0000 0.00000  0.84130  0.59128  Biso   1.000  C
  C550     1.0000 0.15872  0.00000  0.90870  Biso   1.000  C
  C551     1.0000 0.65872  0.25000  0.84130  Biso   1.000  C
  C552     1.0000 0.25000  0.90872  0.09130  Biso   1.000  C
  C553     1.0000 0.75000  0.34128  0.65870  Biso   1.000  C
  C554     1.0000 0.90870  0.15872  0.00000  Biso   1.000  C
  C555     1.0000 0.84130  0.65872  0.25000  Biso   1.000  C
  C556     1.0000 0.50000  0.90870  0.65872  Biso   1.000  C
  C557     1.0000 0.25000  0.40870  0.59128  Biso   1.000  C
  C558     1.0000 0.15872  0.50000  0.40870  Biso   1.000  C
  C559     1.0000 0.59128  0.00000  0.84130  Biso   1.000  C
  C560     1.0000 0.65870  0.75000  0.34128  Biso   1.000  C
  C561     1.0000 0.09130  0.25000  0.90872  Biso   1.000  C
  C562     1.0000 0.84130  0.09128  0.50000  Biso   1.000  C
  C563     1.0000 0.50000  0.84130  0.09128  Biso   1.000  C
  C564     1.0000 0.09128  0.50000  0.84130  Biso   1.000  C
  C565     1.0000 0.50000  0.34130  0.59128  Biso   1.000  C
  C566     1.0000 0.75000  0.40870  0.09128  Biso   1.000  C
  C567     1.0000 0.09128  0.00000  0.34130  Biso   1.000  C
  C568     1.0000 0.15872  0.75000  0.84130  Biso   1.000  C
  C569     1.0000 0.34130  0.09128  0.00000  Biso   1.000  C
  C570     1.0000 0.84130  0.15872  0.75000  Biso   1.000  C
  C571     1.0000 0.59128  0.50000  0.34130  Biso   1.000  C
  C572     1.0000 0.09128  0.75000  0.40870  Biso   1.000  C
  C573     1.0000 0.34130  0.59128  0.50000  Biso   1.000  C
  C574     1.0000 0.40870  0.09128  0.75000  Biso   1.000  C
  C575     1.0000 0.00000  0.34130  0.09128  Biso   1.000  C
  C576     1.0000 0.75000  0.84130  0.15872  Biso   1.000  C
  O1       1.0000 0.51440  0.23560  0.01440  Biso   1.000  O
  O2       1.0000 0.01440  0.51440  0.23560  Biso   1.000  O
  O3       1.0000 0.23560  0.01440  0.51440  Biso   1.000  O
  O4       1.0000 0.98560  0.76440  0.98560  Biso   1.000  O
  O5       1.0000 0.48560  0.48560  0.76440  Biso   1.000  O
  O6       1.0000 0.76440  0.26440  0.26440  Biso   1.000  O
  O7       1.0000 0.26440  0.26440  0.76440  Biso   1.000  O
  O8       1.0000 0.48560  0.76440  0.48560  Biso   1.000  O
  O9       1.0000 0.76440  0.98560  0.98560  Biso   1.000  O
  O10      1.0000 0.76440  0.48560  0.48560  Biso   1.000  O
  O11      1.0000 0.26440  0.76440  0.26440  Biso   1.000  O
  O12      1.0000 0.98560  0.98560  0.76440  Biso   1.000  O
  O13      1.0000 0.51440  0.73560  0.51440  Biso   1.000  O
  O14      1.0000 0.73560  0.01440  0.01440  Biso   1.000  O
  O15      1.0000 0.01440  0.01440  0.73560  Biso   1.000  O
  O16      1.0000 0.23560  0.73560  0.23560  Biso   1.000  O
  O17      1.0000 0.23560  0.51440  0.01440  Biso   1.000  O
  O18      1.0000 0.01440  0.23560  0.51440  Biso   1.000  O
  O19      1.0000 0.48560  0.98560  0.26440  Biso   1.000  O
  O20      1.0000 0.76440  0.76440  0.76440  Biso   1.000  O
  O21      1.0000 0.48560  0.26440  0.98560  Biso   1.000  O
  O22      1.0000 0.98560  0.48560  0.26440  Biso   1.000  O
  O23      1.0000 0.51440  0.01440  0.23560  Biso   1.000  O
  O24      1.0000 0.51440  0.51440  0.73560  Biso   1.000  O
  O25      1.0000 0.01440  0.73560  0.01440  Biso   1.000  O
  O26      1.0000 0.23560  0.23560  0.73560  Biso   1.000  O
  O27      1.0000 0.26440  0.98560  0.48560  Biso   1.000  O
  O28      1.0000 0.26440  0.48560  0.98560  Biso   1.000  O
  O29      1.0000 0.73560  0.23560  0.23560  Biso   1.000  O
  O30      1.0000 0.73560  0.51440  0.51440  Biso   1.000  O
  O31      1.0000 0.98560  0.26440  0.48560  Biso   1.000  O
  O32      1.0000 0.73560  0.73560  0.73560  Biso   1.000  O
  O33      1.0000 0.48560  0.76440  0.98560  Biso   1.000  O
  O34      1.0000 0.98560  0.48560  0.76440  Biso   1.000  O
  O35      1.0000 0.76440  0.98560  0.48560  Biso   1.000  O
  O36      1.0000 0.51440  0.73560  0.01440  Biso   1.000  O
  O37      1.0000 0.01440  0.51440  0.73560  Biso   1.000  O
  O38      1.0000 0.23560  0.23560  0.23560  Biso   1.000  O
  O39      1.0000 0.73560  0.01440  0.51440  Biso   1.000  O
  O40      1.0000 0.48560  0.26440  0.48560  Biso   1.000  O
  O41      1.0000 0.76440  0.48560  0.98560  Biso   1.000  O
  O42      1.0000 0.98560  0.98560  0.26440  Biso   1.000  O
  O43      1.0000 0.26440  0.76440  0.76440  Biso   1.000  O
  O44      1.0000 0.01440  0.01440  0.23560  Biso   1.000  O
  O45      1.0000 0.23560  0.73560  0.73560  Biso   1.000  O
  O46      1.0000 0.51440  0.23560  0.51440  Biso   1.000  O
  O47      1.0000 0.73560  0.51440  0.01440  Biso   1.000  O
  O48      1.0000 0.98560  0.76440  0.48560  Biso   1.000  O
  O49      1.0000 0.48560  0.48560  0.26440  Biso   1.000  O
  O50      1.0000 0.26440  0.98560  0.98560  Biso   1.000  O
  O51      1.0000 0.76440  0.26440  0.76440  Biso   1.000  O
  O52      1.0000 0.01440  0.73560  0.51440  Biso   1.000  O
  O53      1.0000 0.51440  0.51440  0.23560  Biso   1.000  O
  O54      1.0000 0.73560  0.23560  0.73560  Biso   1.000  O
  O55      1.0000 0.23560  0.01440  0.01440  Biso   1.000  O
  O56      1.0000 0.98560  0.26440  0.98560  Biso   1.000  O
  O57      1.0000 0.76440  0.76440  0.26440  Biso   1.000  O
  O58      1.0000 0.48560  0.98560  0.76440  Biso   1.000  O
  O59      1.0000 0.26440  0.48560  0.48560  Biso   1.000  O
  O60      1.0000 0.01440  0.23560  0.01440  Biso   1.000  O
  O61      1.0000 0.73560  0.73560  0.23560  Biso   1.000  O
  O62      1.0000 0.23560  0.51440  0.51440  Biso   1.000  O
  O63      1.0000 0.51440  0.01440  0.73560  Biso   1.000  O
  O64      1.0000 0.26440  0.26440  0.26440  Biso   1.000  O
  Cu193    1.0000 0.50000  0.28758  0.03758  Biso   1.000  Cu
  Cu194    1.0000 0.03758  0.50000  0.28758  Biso   1.000  Cu
  Cu195    1.0000 0.28758  0.03758  0.50000  Biso   1.000  Cu
  Cu196    1.0000 0.03758  0.75000  0.96242  Biso   1.000  Cu
  Cu197    1.0000 0.53758  0.50000  0.78758  Biso   1.000  Cu
  Cu198    1.0000 0.71242  0.25000  0.28758  Biso   1.000  Cu
  Cu199    1.0000 0.25000  0.28758  0.71242  Biso   1.000  Cu
  Cu200    1.0000 0.50000  0.78758  0.53758  Biso   1.000  Cu
  Cu201    1.0000 0.75000  0.96242  0.03758  Biso   1.000  Cu
  Cu202    1.0000 0.78758  0.53758  0.50000  Biso   1.000  Cu
  Cu203    1.0000 0.28758  0.71242  0.25000  Biso   1.000  Cu
  Cu204    1.0000 0.96242  0.03758  0.75000  Biso   1.000  Cu
  Cu205    1.0000 0.03758  0.00000  0.78758  Biso   1.000  Cu
  Cu206    1.0000 0.21242  0.75000  0.28758  Biso   1.000  Cu
  Cu207    1.0000 0.28758  0.53758  0.00000  Biso   1.000  Cu
  Cu208    1.0000 0.96242  0.21242  0.50000  Biso   1.000  Cu
  Cu209    1.0000 0.53758  0.00000  0.28758  Biso   1.000  Cu
  Cu210    1.0000 0.71242  0.75000  0.78758  Biso   1.000  Cu
  Cu211    1.0000 0.75000  0.46242  0.53758  Biso   1.000  Cu
  Cu212    1.0000 0.28758  0.21242  0.75000  Biso   1.000  Cu
  Cu213    1.0000 0.96242  0.53758  0.25000  Biso   1.000  Cu
  Cu214    1.0000 0.00000  0.28758  0.53758  Biso   1.000  Cu
  Cu215    1.0000 0.50000  0.96242  0.21242  Biso   1.000  Cu
  Cu216    1.0000 0.78758  0.03758  0.00000  Biso   1.000  Cu
  Cu217    1.0000 0.53758  0.75000  0.46242  Biso   1.000  Cu
  Cu218    1.0000 0.75000  0.28758  0.21242  Biso   1.000  Cu
  Cu219    1.0000 0.25000  0.96242  0.53758  Biso   1.000  Cu
  Cu220    1.0000 0.78758  0.71242  0.75000  Biso   1.000  Cu
  Cu221    1.0000 0.00000  0.78758  0.03758  Biso   1.000  Cu
  Cu222    1.0000 0.21242  0.50000  0.96242  Biso   1.000  Cu
  Cu223    1.0000 0.53758  0.25000  0.96242  Biso   1.000  Cu
  Cu224    1.0000 0.75000  0.78758  0.71242  Biso   1.000  Cu
  Cu225    1.0000 0.46242  0.53758  0.75000  Biso   1.000  Cu
  Cu226    1.0000 0.25000  0.78758  0.21242  Biso   1.000  Cu
  Cu227    1.0000 0.00000  0.96242  0.71242  Biso   1.000  Cu
  Cu228    1.0000 0.21242  0.25000  0.78758  Biso   1.000  Cu
  Cu229    1.0000 0.71242  0.00000  0.96242  Biso   1.000  Cu
  Cu230    1.0000 0.78758  0.21242  0.25000  Biso   1.000  Cu
  Cu231    1.0000 0.96242  0.71242  0.00000  Biso   1.000  Cu
  Cu232    1.0000 0.21242  0.00000  0.46242  Biso   1.000  Cu
  Cu233    1.0000 0.00000  0.46242  0.21242  Biso   1.000  Cu
  Cu234    1.0000 0.46242  0.21242  0.00000  Biso   1.000  Cu
  Cu235    1.0000 0.71242  0.50000  0.46242  Biso   1.000  Cu
  Cu236    1.0000 0.46242  0.03758  0.25000  Biso   1.000  Cu
  Cu237    1.0000 0.03758  0.25000  0.46242  Biso   1.000  Cu
  Cu238    1.0000 0.46242  0.71242  0.50000  Biso   1.000  Cu
  Cu239    1.0000 0.25000  0.46242  0.03758  Biso   1.000  Cu
  Cu240    1.0000 0.50000  0.46242  0.71242  Biso   1.000  Cu
  Cu241    1.0000 0.50000  0.71242  0.96242  Biso   1.000  Cu
  Cu242    1.0000 0.96242  0.50000  0.71242  Biso   1.000  Cu
  Cu243    1.0000 0.71242  0.96242  0.50000  Biso   1.000  Cu
  Cu244    1.0000 0.46242  0.75000  0.03758  Biso   1.000  Cu
  Cu245    1.0000 0.28758  0.25000  0.21242  Biso   1.000  Cu
  Cu246    1.0000 0.25000  0.21242  0.28758  Biso   1.000  Cu
  Cu247    1.0000 0.75000  0.03758  0.46242  Biso   1.000  Cu
  Cu248    1.0000 0.21242  0.28758  0.25000  Biso   1.000  Cu
  Cu249    1.0000 0.03758  0.46242  0.75000  Biso   1.000  Cu
  Cu250    1.0000 0.50000  0.21242  0.46242  Biso   1.000  Cu
  Cu251    1.0000 0.75000  0.53758  0.96242  Biso   1.000  Cu
  Cu252    1.0000 0.96242  0.00000  0.21242  Biso   1.000  Cu
  Cu253    1.0000 0.28758  0.75000  0.71242  Biso   1.000  Cu
  Cu254    1.0000 0.71242  0.46242  0.00000  Biso   1.000  Cu
  Cu255    1.0000 0.53758  0.28758  0.50000  Biso   1.000  Cu
  Cu256    1.0000 0.21242  0.78758  0.75000  Biso   1.000  Cu
  Cu257    1.0000 0.03758  0.96242  0.25000  Biso   1.000  Cu
  Cu258    1.0000 0.00000  0.71242  0.46242  Biso   1.000  Cu
  Cu259    1.0000 0.50000  0.53758  0.28758  Biso   1.000  Cu
  Cu260    1.0000 0.46242  0.50000  0.21242  Biso   1.000  Cu
  Cu261    1.0000 0.96242  0.75000  0.53758  Biso   1.000  Cu
  Cu262    1.0000 0.21242  0.96242  0.00000  Biso   1.000  Cu
  Cu263    1.0000 0.71242  0.28758  0.75000  Biso   1.000  Cu
  Cu264    1.0000 0.75000  0.21242  0.78758  Biso   1.000  Cu
  Cu265    1.0000 0.25000  0.03758  0.96242  Biso   1.000  Cu
  Cu266    1.0000 0.00000  0.21242  0.96242  Biso   1.000  Cu
  Cu267    1.0000 0.75000  0.71242  0.28758  Biso   1.000  Cu
  Cu268    1.0000 0.46242  0.00000  0.71242  Biso   1.000  Cu
  Cu269    1.0000 0.28758  0.50000  0.53758  Biso   1.000  Cu
  Cu270    1.0000 0.21242  0.46242  0.50000  Biso   1.000  Cu
  Cu271    1.0000 0.53758  0.96242  0.75000  Biso   1.000  Cu
  Cu272    1.0000 0.96242  0.25000  0.03758  Biso   1.000  Cu
  Cu273    1.0000 0.78758  0.75000  0.21242  Biso   1.000  Cu
  Cu274    1.0000 0.00000  0.53758  0.78758  Biso   1.000  Cu
  Cu275    1.0000 0.78758  0.00000  0.53758  Biso   1.000  Cu
  Cu276    1.0000 0.53758  0.78758  0.00000  Biso   1.000  Cu
  Cu277    1.0000 0.25000  0.71242  0.78758  Biso   1.000  Cu
  Cu278    1.0000 0.00000  0.03758  0.28758  Biso   1.000  Cu
  Cu279    1.0000 0.46242  0.25000  0.53758  Biso   1.000  Cu
  Cu280    1.0000 0.78758  0.50000  0.03758  Biso   1.000  Cu
  Cu281    1.0000 0.78758  0.25000  0.71242  Biso   1.000  Cu
  Cu282    1.0000 0.28758  0.00000  0.03758  Biso   1.000  Cu
  Cu283    1.0000 0.53758  0.46242  0.25000  Biso   1.000  Cu
  Cu284    1.0000 0.03758  0.78758  0.50000  Biso   1.000  Cu
  Cu285    1.0000 0.25000  0.53758  0.46242  Biso   1.000  Cu
  Cu286    1.0000 0.50000  0.03758  0.78758  Biso   1.000  Cu
  Cu287    1.0000 0.71242  0.78758  0.25000  Biso   1.000  Cu
  Cu288    1.0000 0.03758  0.28758  0.00000  Biso   1.000  Cu
  O65      1.0000 0.53380  0.21620  0.03380  Biso   1.000  O
  O66      1.0000 0.03380  0.53380  0.21620  Biso   1.000  O
  O67      1.0000 0.21620  0.03380  0.53380  Biso   1.000  O
  O68      1.0000 0.96620  0.78380  0.96620  Biso   1.000  O
  O69      1.0000 0.46620  0.46620  0.78380  Biso   1.000  O
  O70      1.0000 0.78380  0.28380  0.28380  Biso   1.000  O
  O71      1.0000 0.28380  0.28380  0.78380  Biso   1.000  O
  O72      1.0000 0.46620  0.78380  0.46620  Biso   1.000  O
  O73      1.0000 0.78380  0.96620  0.96620  Biso   1.000  O
  O74      1.0000 0.78380  0.46620  0.46620  Biso   1.000  O
  O75      1.0000 0.28380  0.78380  0.28380  Biso   1.000  O
  O76      1.0000 0.96620  0.96620  0.78380  Biso   1.000  O
  O77      1.0000 0.53380  0.71620  0.53380  Biso   1.000  O
  O78      1.0000 0.71620  0.03380  0.03380  Biso   1.000  O
  O79      1.0000 0.03380  0.03380  0.71620  Biso   1.000  O
  O80      1.0000 0.21620  0.71620  0.21620  Biso   1.000  O
  O81      1.0000 0.21620  0.53380  0.03380  Biso   1.000  O
  O82      1.0000 0.03380  0.21620  0.53380  Biso   1.000  O
  O83      1.0000 0.46620  0.96620  0.28380  Biso   1.000  O
  O84      1.0000 0.78380  0.78380  0.78380  Biso   1.000  O
  O85      1.0000 0.46620  0.28380  0.96620  Biso   1.000  O
  O86      1.0000 0.96620  0.46620  0.28380  Biso   1.000  O
  O87      1.0000 0.53380  0.03380  0.21620  Biso   1.000  O
  O88      1.0000 0.53380  0.53380  0.71620  Biso   1.000  O
  O89      1.0000 0.03380  0.71620  0.03380  Biso   1.000  O
  O90      1.0000 0.21620  0.21620  0.71620  Biso   1.000  O
  O91      1.0000 0.28380  0.96620  0.46620  Biso   1.000  O
  O92      1.0000 0.28380  0.46620  0.96620  Biso   1.000  O
  O93      1.0000 0.71620  0.21620  0.21620  Biso   1.000  O
  O94      1.0000 0.71620  0.53380  0.53380  Biso   1.000  O
  O95      1.0000 0.96620  0.28380  0.46620  Biso   1.000  O
  O96      1.0000 0.71620  0.71620  0.71620  Biso   1.000  O
  O97      1.0000 0.46620  0.78380  0.96620  Biso   1.000  O
  O98      1.0000 0.96620  0.46620  0.78380  Biso   1.000  O
  O99      1.0000 0.78380  0.96620  0.46620  Biso   1.000  O
  O100     1.0000 0.53380  0.71620  0.03380  Biso   1.000  O
  O101     1.0000 0.03380  0.53380  0.71620  Biso   1.000  O
  O102     1.0000 0.21620  0.21620  0.21620  Biso   1.000  O
  O103     1.0000 0.71620  0.03380  0.53380  Biso   1.000  O
  O104     1.0000 0.46620  0.28380  0.46620  Biso   1.000  O
  O105     1.0000 0.78380  0.46620  0.96620  Biso   1.000  O
  O106     1.0000 0.96620  0.96620  0.28380  Biso   1.000  O
  O107     1.0000 0.28380  0.78380  0.78380  Biso   1.000  O
  O108     1.0000 0.03380  0.03380  0.21620  Biso   1.000  O
  O109     1.0000 0.21620  0.71620  0.71620  Biso   1.000  O
  O110     1.0000 0.53380  0.21620  0.53380  Biso   1.000  O
  O111     1.0000 0.71620  0.53380  0.03380  Biso   1.000  O
  O112     1.0000 0.96620  0.78380  0.46620  Biso   1.000  O
  O113     1.0000 0.46620  0.46620  0.28380  Biso   1.000  O
  O114     1.0000 0.28380  0.96620  0.96620  Biso   1.000  O
  O115     1.0000 0.78380  0.28380  0.78380  Biso   1.000  O
  O116     1.0000 0.03380  0.71620  0.53380  Biso   1.000  O
  O117     1.0000 0.53380  0.53380  0.21620  Biso   1.000  O
  O118     1.0000 0.71620  0.21620  0.71620  Biso   1.000  O
  O119     1.0000 0.21620  0.03380  0.03380  Biso   1.000  O
  O120     1.0000 0.96620  0.28380  0.96620  Biso   1.000  O
  O121     1.0000 0.78380  0.78380  0.28380  Biso   1.000  O
  O122     1.0000 0.46620  0.96620  0.78380  Biso   1.000  O
  O123     1.0000 0.28380  0.46620  0.46620  Biso   1.000  O
  O124     1.0000 0.03380  0.21620  0.03380  Biso   1.000  O
  O125     1.0000 0.71620  0.71620  0.21620  Biso   1.000  O
  O126     1.0000 0.21620  0.53380  0.53380  Biso   1.000  O
  O127     1.0000 0.53380  0.03380  0.71620  Biso   1.000  O
  O128     1.0000 0.28380  0.28380  0.28380  Biso   1.000  O
  O129     1.0000 0.50000  0.25000  0.00000  Biso   1.000  O
  O130     1.0000 0.00000  0.50000  0.25000  Biso   1.000  O
  O131     1.0000 0.25000  0.00000  0.50000  Biso   1.000  O
  O132     1.0000 0.00000  0.75000  0.00000  Biso   1.000  O
  O133     1.0000 0.50000  0.50000  0.75000  Biso   1.000  O
  O134     1.0000 0.75000  0.25000  0.25000  Biso   1.000  O
  O135     1.0000 0.25000  0.25000  0.75000  Biso   1.000  O
  O136     1.0000 0.50000  0.75000  0.50000  Biso   1.000  O
  O137     1.0000 0.75000  0.00000  0.00000  Biso   1.000  O
  O138     1.0000 0.75000  0.50000  0.50000  Biso   1.000  O
  O139     1.0000 0.25000  0.75000  0.25000  Biso   1.000  O
  O140     1.0000 0.00000  0.00000  0.75000  Biso   1.000  O
  O141     1.0000 0.25000  0.50000  0.00000  Biso   1.000  O
  O142     1.0000 0.00000  0.25000  0.50000  Biso   1.000  O
  O143     1.0000 0.50000  0.00000  0.25000  Biso   1.000  O
  O144     1.0000 0.75000  0.75000  0.75000  Biso   1.000  O
  O145     1.0000 0.50000  0.75000  0.00000  Biso   1.000  O
  O146     1.0000 0.00000  0.50000  0.75000  Biso   1.000  O
  O147     1.0000 0.75000  0.00000  0.50000  Biso   1.000  O
  O148     1.0000 0.25000  0.25000  0.25000  Biso   1.000  O
  O149     1.0000 0.50000  0.25000  0.50000  Biso   1.000  O
  O150     1.0000 0.75000  0.50000  0.00000  Biso   1.000  O
  O151     1.0000 0.00000  0.00000  0.25000  Biso   1.000  O
  O152     1.0000 0.25000  0.75000  0.75000  Biso   1.000  O
  O153     1.0000 0.00000  0.75000  0.50000  Biso   1.000  O
  O154     1.0000 0.50000  0.50000  0.25000  Biso   1.000  O
  O155     1.0000 0.25000  0.00000  0.00000  Biso   1.000  O
  O156     1.0000 0.75000  0.25000  0.75000  Biso   1.000  O
  O157     1.0000 0.00000  0.25000  0.00000  Biso   1.000  O
  O158     1.0000 0.75000  0.75000  0.25000  Biso   1.000  O
  O159     1.0000 0.50000  0.00000  0.75000  Biso   1.000  O
  O160     1.0000 0.25000  0.50000  0.50000  Biso   1.000  O
