data_image0
_cell_length_a       27.9184
_cell_length_b       10.8607
_cell_length_c       30.3935
_cell_angle_alpha    90
_cell_angle_beta     114.969
_cell_angle_gamma    90

_symmetry_space_group_name_H-M    "P 1"
_symmetry_int_tables_number       1

loop_
  _symmetry_equiv_pos_as_xyz
  'x, y, z'

loop_
  _atom_site_label
  _atom_site_occupancy
  _atom_site_fract_x
  _atom_site_fract_y
  _atom_site_fract_z
  _atom_site_thermal_displace_type
  _atom_site_B_iso_or_equiv
  _atom_site_type_symbol
  Cu1      1.0000 0.15814  0.82297  0.24623  Biso   1.000  Cu
  Cu2      1.0000 0.84186  0.82297  0.25377  Biso   1.000  Cu
  Cu3      1.0000 0.65814  0.32297  0.24623  Biso   1.000  Cu
  Cu4      1.0000 0.34186  0.32297  0.25377  Biso   1.000  Cu
  Cu5      1.0000 0.84186  0.17703  0.75377  Biso   1.000  Cu
  Cu6      1.0000 0.15814  0.17703  0.74623  Biso   1.000  Cu
  Cu7      1.0000 0.34186  0.67703  0.75377  Biso   1.000  Cu
  Cu8      1.0000 0.65814  0.67703  0.74623  Biso   1.000  Cu
  Cu9      1.0000 0.25000  0.25000  0.50000  Biso   1.000  Cu
  Cu10     1.0000 0.75000  0.25000  0.00000  Biso   1.000  Cu
  Cu11     1.0000 0.75000  0.75000  0.50000  Biso   1.000  Cu
  Cu12     1.0000 0.25000  0.75000  0.00000  Biso   1.000  Cu
  Cu13     1.0000 0.00000  0.50000  0.00000  Biso   1.000  Cu
  Cu14     1.0000 0.00000  0.50000  0.50000  Biso   1.000  Cu
  Cu15     1.0000 0.50000  0.00000  0.00000  Biso   1.000  Cu
  Cu16     1.0000 0.50000  0.00000  0.50000  Biso   1.000  Cu
  S1       1.0000 0.19820  0.04937  0.19172  Biso   1.000  S
  S2       1.0000 0.80180  0.04937  0.30828  Biso   1.000  S
  S3       1.0000 0.69820  0.54937  0.19172  Biso   1.000  S
  S4       1.0000 0.30180  0.54937  0.30828  Biso   1.000  S
  S5       1.0000 0.80180  0.95063  0.80828  Biso   1.000  S
  S6       1.0000 0.19820  0.95063  0.69172  Biso   1.000  S
  S7       1.0000 0.30180  0.45063  0.80828  Biso   1.000  S
  S8       1.0000 0.69820  0.45063  0.69172  Biso   1.000  S
  S9       1.0000 0.07766  0.36116  0.40176  Biso   1.000  S
  S10      1.0000 0.92234  0.36116  0.09824  Biso   1.000  S
  S11      1.0000 0.57766  0.86116  0.40176  Biso   1.000  S
  S12      1.0000 0.42234  0.86116  0.09824  Biso   1.000  S
  S13      1.0000 0.92234  0.63884  0.59824  Biso   1.000  S
  S14      1.0000 0.07766  0.63884  0.90176  Biso   1.000  S
  S15      1.0000 0.42234  0.13884  0.59824  Biso   1.000  S
  S16      1.0000 0.57766  0.13884  0.90176  Biso   1.000  S
  O1       1.0000 0.23436  0.85749  0.28866  Biso   1.000  O
  O2       1.0000 0.76564  0.85749  0.21134  Biso   1.000  O
  O3       1.0000 0.73436  0.35749  0.28866  Biso   1.000  O
  O4       1.0000 0.26564  0.35749  0.21134  Biso   1.000  O
  O5       1.0000 0.76564  0.14251  0.71134  Biso   1.000  O
  O6       1.0000 0.23436  0.14251  0.78866  Biso   1.000  O
  O7       1.0000 0.26564  0.64251  0.71134  Biso   1.000  O
  O8       1.0000 0.73436  0.64251  0.78866  Biso   1.000  O
  O9       1.0000 0.17600  0.72376  0.20027  Biso   1.000  O
  O10      1.0000 0.82400  0.72376  0.29973  Biso   1.000  O
  O11      1.0000 0.67600  0.22376  0.20027  Biso   1.000  O
  O12      1.0000 0.32400  0.22376  0.29973  Biso   1.000  O
  O13      1.0000 0.82400  0.27624  0.79973  Biso   1.000  O
  O14      1.0000 0.17600  0.27624  0.70027  Biso   1.000  O
  O15      1.0000 0.32400  0.77624  0.79973  Biso   1.000  O
  O16      1.0000 0.67600  0.77624  0.70027  Biso   1.000  O
  O17      1.0000 0.17026  0.63031  0.29030  Biso   1.000  O
  O18      1.0000 0.82974  0.63031  0.20970  Biso   1.000  O
  O19      1.0000 0.67026  0.13031  0.29030  Biso   1.000  O
  O20      1.0000 0.32974  0.13031  0.20970  Biso   1.000  O
  O21      1.0000 0.82974  0.36969  0.70970  Biso   1.000  O
  O22      1.0000 0.17026  0.36969  0.79030  Biso   1.000  O
  O23      1.0000 0.32974  0.86969  0.70970  Biso   1.000  O
  O24      1.0000 0.67026  0.86969  0.79030  Biso   1.000  O
  O25      1.0000 0.18465  0.16663  0.49254  Biso   1.000  O
  O26      1.0000 0.81535  0.16663  0.00746  Biso   1.000  O
  O27      1.0000 0.68465  0.66663  0.49254  Biso   1.000  O
  O28      1.0000 0.31535  0.66663  0.00746  Biso   1.000  O
  O29      1.0000 0.81535  0.83337  0.50746  Biso   1.000  O
  O30      1.0000 0.18465  0.83337  0.99254  Biso   1.000  O
  O31      1.0000 0.31535  0.33337  0.50746  Biso   1.000  O
  O32      1.0000 0.68465  0.33337  0.99254  Biso   1.000  O
  O33      1.0000 0.21233  0.32493  0.41794  Biso   1.000  O
  O34      1.0000 0.78767  0.32493  0.08206  Biso   1.000  O
  O35      1.0000 0.71233  0.82493  0.41794  Biso   1.000  O
  O36      1.0000 0.28767  0.82493  0.08206  Biso   1.000  O
  O37      1.0000 0.78767  0.67507  0.58206  Biso   1.000  O
  O38      1.0000 0.21233  0.67507  0.91794  Biso   1.000  O
  O39      1.0000 0.28767  0.17507  0.58206  Biso   1.000  O
  O40      1.0000 0.71233  0.17507  0.91794  Biso   1.000  O
  O41      1.0000 0.94204  0.57874  0.00949  Biso   1.000  O
  O42      1.0000 0.05796  0.57874  0.49051  Biso   1.000  O
  O43      1.0000 0.44204  0.07874  0.00949  Biso   1.000  O
  O44      1.0000 0.55796  0.07874  0.49051  Biso   1.000  O
  O45      1.0000 0.05796  0.42126  0.99051  Biso   1.000  O
  O46      1.0000 0.94204  0.42126  0.50949  Biso   1.000  O
  O47      1.0000 0.55796  0.92126  0.99051  Biso   1.000  O
  O48      1.0000 0.44204  0.92126  0.50949  Biso   1.000  O
  O49      1.0000 0.04431  0.42824  0.08577  Biso   1.000  O
  O50      1.0000 0.95569  0.42824  0.41423  Biso   1.000  O
  O51      1.0000 0.54431  0.92824  0.08577  Biso   1.000  O
  O52      1.0000 0.45569  0.92824  0.41423  Biso   1.000  O
  O53      1.0000 0.95569  0.57176  0.91423  Biso   1.000  O
  O54      1.0000 0.04431  0.57176  0.58577  Biso   1.000  O
  O55      1.0000 0.45569  0.07176  0.91423  Biso   1.000  O
  O56      1.0000 0.54431  0.07176  0.58577  Biso   1.000  O
  O57      1.0000 0.15652  0.00470  0.20511  Biso   1.000  O
  O58      1.0000 0.84348  0.00470  0.29489  Biso   1.000  O
  O59      1.0000 0.65652  0.50470  0.20511  Biso   1.000  O
  O60      1.0000 0.34348  0.50470  0.29489  Biso   1.000  O
  O61      1.0000 0.84348  0.99530  0.79489  Biso   1.000  O
  O62      1.0000 0.15652  0.99530  0.70511  Biso   1.000  O
  O63      1.0000 0.34348  0.49530  0.79489  Biso   1.000  O
  O64      1.0000 0.65652  0.49530  0.70511  Biso   1.000  O
  O65      1.0000 0.19766  0.98061  0.14998  Biso   1.000  O
  O66      1.0000 0.80234  0.98061  0.35002  Biso   1.000  O
  O67      1.0000 0.69766  0.48061  0.14998  Biso   1.000  O
  O68      1.0000 0.30234  0.48061  0.35002  Biso   1.000  O
  O69      1.0000 0.80234  0.01939  0.85002  Biso   1.000  O
  O70      1.0000 0.19766  0.01939  0.64998  Biso   1.000  O
  O71      1.0000 0.30234  0.51939  0.85002  Biso   1.000  O
  O72      1.0000 0.69766  0.51939  0.64998  Biso   1.000  O
  O73      1.0000 0.25016  0.03502  0.23317  Biso   1.000  O
  O74      1.0000 0.74984  0.03502  0.26683  Biso   1.000  O
  O75      1.0000 0.75016  0.53502  0.23317  Biso   1.000  O
  O76      1.0000 0.24984  0.53502  0.26683  Biso   1.000  O
  O77      1.0000 0.74984  0.96498  0.76683  Biso   1.000  O
  O78      1.0000 0.25016  0.96498  0.73317  Biso   1.000  O
  O79      1.0000 0.24984  0.46498  0.76683  Biso   1.000  O
  O80      1.0000 0.75016  0.46498  0.73317  Biso   1.000  O
  O81      1.0000 0.18882  0.18183  0.17851  Biso   1.000  O
  O82      1.0000 0.81118  0.18183  0.32149  Biso   1.000  O
  O83      1.0000 0.68882  0.68183  0.17851  Biso   1.000  O
  O84      1.0000 0.31118  0.68183  0.32149  Biso   1.000  O
  O85      1.0000 0.81118  0.81817  0.82149  Biso   1.000  O
  O86      1.0000 0.18882  0.81817  0.67851  Biso   1.000  O
  O87      1.0000 0.31118  0.31817  0.82149  Biso   1.000  O
  O88      1.0000 0.68882  0.31817  0.67851  Biso   1.000  O
  O89      1.0000 0.09309  0.47235  0.43235  Biso   1.000  O
  O90      1.0000 0.90691  0.47235  0.06765  Biso   1.000  O
  O91      1.0000 0.59309  0.97235  0.43235  Biso   1.000  O
  O92      1.0000 0.40691  0.97235  0.06765  Biso   1.000  O
  O93      1.0000 0.90691  0.52765  0.56765  Biso   1.000  O
  O94      1.0000 0.09309  0.52765  0.93235  Biso   1.000  O
  O95      1.0000 0.40691  0.02765  0.56765  Biso   1.000  O
  O96      1.0000 0.59309  0.02765  0.93235  Biso   1.000  O
  O97      1.0000 0.09113  0.25016  0.43231  Biso   1.000  O
  O98      1.0000 0.90887  0.25016  0.06769  Biso   1.000  O
  O99      1.0000 0.59113  0.75016  0.43231  Biso   1.000  O
  O100     1.0000 0.40887  0.75016  0.06769  Biso   1.000  O
  O101     1.0000 0.90887  0.74984  0.56769  Biso   1.000  O
  O102     1.0000 0.09113  0.74984  0.93231  Biso   1.000  O
  O103     1.0000 0.40887  0.24984  0.56769  Biso   1.000  O
  O104     1.0000 0.59113  0.24984  0.93231  Biso   1.000  O
  O105     1.0000 0.02017  0.36163  0.37194  Biso   1.000  O
  O106     1.0000 0.97983  0.36163  0.12806  Biso   1.000  O
  O107     1.0000 0.52017  0.86163  0.37194  Biso   1.000  O
  O108     1.0000 0.47983  0.86163  0.12806  Biso   1.000  O
  O109     1.0000 0.97983  0.63837  0.62806  Biso   1.000  O
  O110     1.0000 0.02017  0.63837  0.87194  Biso   1.000  O
  O111     1.0000 0.47983  0.13837  0.62806  Biso   1.000  O
  O112     1.0000 0.52017  0.13837  0.87194  Biso   1.000  O
  O113     1.0000 0.10589  0.35964  0.37031  Biso   1.000  O
  O114     1.0000 0.89411  0.35964  0.12969  Biso   1.000  O
  O115     1.0000 0.60589  0.85964  0.37031  Biso   1.000  O
  O116     1.0000 0.39411  0.85964  0.12969  Biso   1.000  O
  O117     1.0000 0.89411  0.64036  0.62969  Biso   1.000  O
  O118     1.0000 0.10589  0.64036  0.87031  Biso   1.000  O
  O119     1.0000 0.39411  0.14036  0.62969  Biso   1.000  O
  O120     1.0000 0.60589  0.14036  0.87031  Biso   1.000  O
  O121     1.0000 0.25509  0.55244  0.40785  Biso   1.000  O
  O122     1.0000 0.74491  0.55244  0.09215  Biso   1.000  O
  O123     1.0000 0.75509  0.05244  0.40785  Biso   1.000  O
  O124     1.0000 0.24491  0.05244  0.09215  Biso   1.000  O
  O125     1.0000 0.74491  0.44756  0.59215  Biso   1.000  O
  O126     1.0000 0.25509  0.44756  0.90785  Biso   1.000  O
  O127     1.0000 0.24491  0.94756  0.59215  Biso   1.000  O
  O128     1.0000 0.75509  0.94756  0.90785  Biso   1.000  O
  O129     1.0000 0.08468  0.49423  0.28828  Biso   1.000  O
  O130     1.0000 0.91532  0.49423  0.21172  Biso   1.000  O
  O131     1.0000 0.58468  0.99423  0.28828  Biso   1.000  O
  O132     1.0000 0.41532  0.99423  0.21172  Biso   1.000  O
  O133     1.0000 0.91532  0.50577  0.71172  Biso   1.000  O
  O134     1.0000 0.08468  0.50577  0.78828  Biso   1.000  O
  O135     1.0000 0.41532  0.00577  0.71172  Biso   1.000  O
  O136     1.0000 0.58468  0.00577  0.78828  Biso   1.000  O
  O137     1.0000 0.12936  0.50740  0.17586  Biso   1.000  O
  O138     1.0000 0.87064  0.50740  0.32414  Biso   1.000  O
  O139     1.0000 0.62936  0.00740  0.17586  Biso   1.000  O
  O140     1.0000 0.37064  0.00740  0.32414  Biso   1.000  O
  O141     1.0000 0.87064  0.49260  0.82414  Biso   1.000  O
  O142     1.0000 0.12936  0.49260  0.67586  Biso   1.000  O
  O143     1.0000 0.37064  0.99260  0.82414  Biso   1.000  O
  O144     1.0000 0.62936  0.99260  0.67586  Biso   1.000  O
  O145     1.0000 0.13789  0.29500  0.23259  Biso   1.000  O
  O146     1.0000 0.86211  0.29500  0.26741  Biso   1.000  O
  O147     1.0000 0.63789  0.79500  0.23259  Biso   1.000  O
  O148     1.0000 0.36211  0.79500  0.26741  Biso   1.000  O
  O149     1.0000 0.86211  0.70500  0.76741  Biso   1.000  O
  O150     1.0000 0.13789  0.70500  0.73259  Biso   1.000  O
  O151     1.0000 0.36211  0.20500  0.76741  Biso   1.000  O
  O152     1.0000 0.63789  0.20500  0.73259  Biso   1.000  O
  O153     1.0000 0.03288  0.29250  0.22414  Biso   1.000  O
  O154     1.0000 0.96712  0.29250  0.27586  Biso   1.000  O
  O155     1.0000 0.53288  0.79250  0.22414  Biso   1.000  O
  O156     1.0000 0.46712  0.79250  0.27586  Biso   1.000  O
  O157     1.0000 0.96712  0.70750  0.77586  Biso   1.000  O
  O158     1.0000 0.03288  0.70750  0.72414  Biso   1.000  O
  O159     1.0000 0.46712  0.20750  0.77586  Biso   1.000  O
  O160     1.0000 0.53288  0.20750  0.72414  Biso   1.000  O
  O161     1.0000 0.09857  0.20949  0.09240  Biso   1.000  O
  O162     1.0000 0.90143  0.20949  0.40760  Biso   1.000  O
  O163     1.0000 0.59857  0.70949  0.09240  Biso   1.000  O
  O164     1.0000 0.40143  0.70949  0.40760  Biso   1.000  O
  O165     1.0000 0.90143  0.79051  0.90760  Biso   1.000  O
  O166     1.0000 0.09857  0.79051  0.59240  Biso   1.000  O
  O167     1.0000 0.40143  0.29051  0.90760  Biso   1.000  O
  O168     1.0000 0.59857  0.29051  0.59240  Biso   1.000  O
  O169     1.0000 0.26834  0.77410  0.17978  Biso   1.000  O
  O170     1.0000 0.73166  0.77410  0.32022  Biso   1.000  O
  O171     1.0000 0.76834  0.27410  0.17978  Biso   1.000  O
  O172     1.0000 0.23166  0.27410  0.32022  Biso   1.000  O
  O173     1.0000 0.73166  0.22590  0.82022  Biso   1.000  O
  O174     1.0000 0.26834  0.22590  0.67978  Biso   1.000  O
  O175     1.0000 0.23166  0.72590  0.82022  Biso   1.000  O
  O176     1.0000 0.76834  0.72590  0.67978  Biso   1.000  O
  N1       1.0000 0.13854  0.90956  0.29513  Biso   1.000  N
  N2       1.0000 0.86146  0.90956  0.20487  Biso   1.000  N
  N3       1.0000 0.63854  0.40956  0.29513  Biso   1.000  N
  N4       1.0000 0.36146  0.40956  0.20487  Biso   1.000  N
  N5       1.0000 0.86146  0.09044  0.70487  Biso   1.000  N
  N6       1.0000 0.13854  0.09044  0.79513  Biso   1.000  N
  N7       1.0000 0.36146  0.59044  0.70487  Biso   1.000  N
  N8       1.0000 0.63854  0.59044  0.79513  Biso   1.000  N
  N9       1.0000 0.22616  0.40478  0.52532  Biso   1.000  N
  N10      1.0000 0.77384  0.40478  0.97468  Biso   1.000  N
  N11      1.0000 0.72616  0.90478  0.52532  Biso   1.000  N
  N12      1.0000 0.27384  0.90478  0.97468  Biso   1.000  N
  N13      1.0000 0.77384  0.59522  0.47468  Biso   1.000  N
  N14      1.0000 0.22616  0.59522  0.02532  Biso   1.000  N
  N15      1.0000 0.27384  0.09522  0.47468  Biso   1.000  N
  N16      1.0000 0.72616  0.09522  0.02532  Biso   1.000  N
  N17      1.0000 0.16927  0.92140  0.46332  Biso   1.000  N
  N18      1.0000 0.83073  0.92140  0.03668  Biso   1.000  N
  N19      1.0000 0.66927  0.42140  0.46332  Biso   1.000  N
  N20      1.0000 0.33073  0.42140  0.03668  Biso   1.000  N
  N21      1.0000 0.83073  0.07860  0.53668  Biso   1.000  N
  N22      1.0000 0.16927  0.07860  0.96332  Biso   1.000  N
  N23      1.0000 0.33073  0.57860  0.53668  Biso   1.000  N
  N24      1.0000 0.66927  0.57860  0.96332  Biso   1.000  N
  N25      1.0000 0.18436  0.83802  0.50118  Biso   1.000  N
  N26      1.0000 0.81564  0.83802  0.99882  Biso   1.000  N
  N27      1.0000 0.68436  0.33802  0.50118  Biso   1.000  N
  N28      1.0000 0.31564  0.33802  0.99882  Biso   1.000  N
  N29      1.0000 0.81564  0.16198  0.49882  Biso   1.000  N
  N30      1.0000 0.18436  0.16198  0.00118  Biso   1.000  N
  N31      1.0000 0.31564  0.66198  0.49882  Biso   1.000  N
  N32      1.0000 0.68436  0.66198  0.00118  Biso   1.000  N
  N33      1.0000 0.16601  0.73567  0.43381  Biso   1.000  N
  N34      1.0000 0.83399  0.73567  0.06619  Biso   1.000  N
  N35      1.0000 0.66601  0.23567  0.43381  Biso   1.000  N
  N36      1.0000 0.33399  0.23567  0.06619  Biso   1.000  N
  N37      1.0000 0.83399  0.26433  0.56619  Biso   1.000  N
  N38      1.0000 0.16601  0.26433  0.93381  Biso   1.000  N
  N39      1.0000 0.33399  0.76433  0.56619  Biso   1.000  N
  N40      1.0000 0.66601  0.76433  0.93381  Biso   1.000  N
  N41      1.0000 0.15144  0.64266  0.39825  Biso   1.000  N
  N42      1.0000 0.84856  0.64266  0.10175  Biso   1.000  N
  N43      1.0000 0.65144  0.14266  0.39825  Biso   1.000  N
  N44      1.0000 0.34856  0.14266  0.10175  Biso   1.000  N
  N45      1.0000 0.84856  0.35734  0.60175  Biso   1.000  N
  N46      1.0000 0.15144  0.35734  0.89825  Biso   1.000  N
  N47      1.0000 0.34856  0.85734  0.60175  Biso   1.000  N
  N48      1.0000 0.65144  0.85734  0.89825  Biso   1.000  N
  H1       1.0000 0.13660  0.66210  0.36760  Biso   1.000  H
  H2       1.0000 0.86340  0.66210  0.13240  Biso   1.000  H
  H3       1.0000 0.63660  0.16210  0.36760  Biso   1.000  H
  H4       1.0000 0.36340  0.16210  0.13240  Biso   1.000  H
  H5       1.0000 0.86340  0.33790  0.63240  Biso   1.000  H
  H6       1.0000 0.13660  0.33790  0.86760  Biso   1.000  H
  H7       1.0000 0.36340  0.83790  0.63240  Biso   1.000  H
  H8       1.0000 0.63660  0.83790  0.86760  Biso   1.000  H
  H9       1.0000 0.15730  0.56580  0.40690  Biso   1.000  H
  H10      1.0000 0.84270  0.56580  0.09310  Biso   1.000  H
  H11      1.0000 0.65730  0.06580  0.40690  Biso   1.000  H
  H12      1.0000 0.34270  0.06580  0.09310  Biso   1.000  H
  H13      1.0000 0.84270  0.43420  0.59310  Biso   1.000  H
  H14      1.0000 0.15730  0.43420  0.90690  Biso   1.000  H
  H15      1.0000 0.34270  0.93420  0.59310  Biso   1.000  H
  H16      1.0000 0.65730  0.93420  0.90690  Biso   1.000  H
  N49      1.0000 0.08079  0.79607  0.20213  Biso   1.000  N
  N50      1.0000 0.91921  0.79607  0.29787  Biso   1.000  N
  N51      1.0000 0.58079  0.29607  0.20213  Biso   1.000  N
  N52      1.0000 0.41921  0.29607  0.29787  Biso   1.000  N
  N53      1.0000 0.91921  0.20393  0.79787  Biso   1.000  N
  N54      1.0000 0.08079  0.20393  0.70213  Biso   1.000  N
  N55      1.0000 0.41921  0.70393  0.79787  Biso   1.000  N
  N56      1.0000 0.58079  0.70393  0.70213  Biso   1.000  N
  N57      1.0000 0.95509  0.34295  0.97996  Biso   1.000  N
  N58      1.0000 0.04491  0.34295  0.52004  Biso   1.000  N
  N59      1.0000 0.45509  0.84295  0.97996  Biso   1.000  N
  N60      1.0000 0.54491  0.84295  0.52004  Biso   1.000  N
  N61      1.0000 0.04491  0.65705  0.02004  Biso   1.000  N
  N62      1.0000 0.95509  0.65705  0.47996  Biso   1.000  N
  N63      1.0000 0.54491  0.15705  0.02004  Biso   1.000  N
  N64      1.0000 0.45509  0.15705  0.47996  Biso   1.000  N
  N65      1.0000 0.95113  0.82255  0.03735  Biso   1.000  N
  N66      1.0000 0.04887  0.82255  0.46265  Biso   1.000  N
  N67      1.0000 0.45113  0.32255  0.03735  Biso   1.000  N
  N68      1.0000 0.54887  0.32255  0.46265  Biso   1.000  N
  N69      1.0000 0.04887  0.17745  0.96265  Biso   1.000  N
  N70      1.0000 0.95113  0.17745  0.53735  Biso   1.000  N
  N71      1.0000 0.54887  0.67745  0.96265  Biso   1.000  N
  N72      1.0000 0.45113  0.67745  0.53735  Biso   1.000  N
  N73      1.0000 0.93305  0.90844  0.00065  Biso   1.000  N
  N74      1.0000 0.06695  0.90844  0.49935  Biso   1.000  N
  N75      1.0000 0.43305  0.40844  0.00065  Biso   1.000  N
  N76      1.0000 0.56695  0.40844  0.49935  Biso   1.000  N
  N77      1.0000 0.06695  0.09156  0.99935  Biso   1.000  N
  N78      1.0000 0.93305  0.09156  0.50065  Biso   1.000  N
  N79      1.0000 0.56695  0.59156  0.99935  Biso   1.000  N
  N80      1.0000 0.43305  0.59156  0.50065  Biso   1.000  N
  N81      1.0000 0.98282  0.00294  0.06847  Biso   1.000  N
  N82      1.0000 0.01718  0.00294  0.43153  Biso   1.000  N
  N83      1.0000 0.48282  0.50294  0.06847  Biso   1.000  N
  N84      1.0000 0.51718  0.50294  0.43153  Biso   1.000  N
  N85      1.0000 0.01718  0.99706  0.93153  Biso   1.000  N
  N86      1.0000 0.98282  0.99706  0.56847  Biso   1.000  N
  N87      1.0000 0.51718  0.49706  0.93153  Biso   1.000  N
  N88      1.0000 0.48282  0.49706  0.56847  Biso   1.000  N
  N89      1.0000 0.00667  0.09100  0.10523  Biso   1.000  N
  N90      1.0000 0.99333  0.09100  0.39477  Biso   1.000  N
  N91      1.0000 0.50667  0.59100  0.10523  Biso   1.000  N
  N92      1.0000 0.49333  0.59100  0.39477  Biso   1.000  N
  N93      1.0000 0.99333  0.90900  0.89477  Biso   1.000  N
  N94      1.0000 0.00667  0.90900  0.60523  Biso   1.000  N
  N95      1.0000 0.49333  0.40900  0.89477  Biso   1.000  N
  N96      1.0000 0.50667  0.40900  0.60523  Biso   1.000  N
  H17      1.0000 0.02090  0.06830  0.13550  Biso   1.000  H
  H18      1.0000 0.97910  0.06830  0.36450  Biso   1.000  H
  H19      1.0000 0.52090  0.56830  0.13550  Biso   1.000  H
  H20      1.0000 0.47910  0.56830  0.36450  Biso   1.000  H
  H21      1.0000 0.97910  0.93170  0.86450  Biso   1.000  H
  H22      1.0000 0.02090  0.93170  0.63550  Biso   1.000  H
  H23      1.0000 0.47910  0.43170  0.86450  Biso   1.000  H
  H24      1.0000 0.52090  0.43170  0.63550  Biso   1.000  H
  H25      1.0000 0.00710  0.16810  0.09770  Biso   1.000  H
  H26      1.0000 0.99290  0.16810  0.40230  Biso   1.000  H
  H27      1.0000 0.50710  0.66810  0.09770  Biso   1.000  H
  H28      1.0000 0.49290  0.66810  0.40230  Biso   1.000  H
  H29      1.0000 0.99290  0.83190  0.90230  Biso   1.000  H
  H30      1.0000 0.00710  0.83190  0.59770  Biso   1.000  H
  H31      1.0000 0.49290  0.33190  0.90230  Biso   1.000  H
  H32      1.0000 0.50710  0.33190  0.59770  Biso   1.000  H
  C1       1.0000 0.15406  0.86088  0.33963  Biso   1.000  C
  C2       1.0000 0.84594  0.86088  0.16037  Biso   1.000  C
  C3       1.0000 0.65406  0.36088  0.33963  Biso   1.000  C
  C4       1.0000 0.34594  0.36088  0.16037  Biso   1.000  C
  C5       1.0000 0.84594  0.13912  0.66037  Biso   1.000  C
  C6       1.0000 0.15406  0.13912  0.83963  Biso   1.000  C
  C7       1.0000 0.34594  0.63912  0.66037  Biso   1.000  C
  C8       1.0000 0.65406  0.63912  0.83963  Biso   1.000  C
  H33      1.0000 0.17440  0.78850  0.34720  Biso   1.000  H
  H34      1.0000 0.82560  0.78850  0.15280  Biso   1.000  H
  H35      1.0000 0.67440  0.28850  0.34720  Biso   1.000  H
  H36      1.0000 0.32560  0.28850  0.15280  Biso   1.000  H
  H37      1.0000 0.82560  0.21150  0.65280  Biso   1.000  H
  H38      1.0000 0.17440  0.21150  0.84720  Biso   1.000  H
  H39      1.0000 0.32560  0.71150  0.65280  Biso   1.000  H
  H40      1.0000 0.67440  0.71150  0.84720  Biso   1.000  H
  C9       1.0000 0.14113  0.91358  0.37487  Biso   1.000  C
  C10      1.0000 0.85887  0.91358  0.12513  Biso   1.000  C
  C11      1.0000 0.64113  0.41358  0.37487  Biso   1.000  C
  C12      1.0000 0.35887  0.41358  0.12513  Biso   1.000  C
  C13      1.0000 0.85887  0.08642  0.62513  Biso   1.000  C
  C14      1.0000 0.14113  0.08642  0.87487  Biso   1.000  C
  C15      1.0000 0.35887  0.58642  0.62513  Biso   1.000  C
  C16      1.0000 0.64113  0.58642  0.87487  Biso   1.000  C
  C17      1.0000 0.11296  0.02370  0.36404  Biso   1.000  C
  C18      1.0000 0.88704  0.02370  0.13596  Biso   1.000  C
  C19      1.0000 0.61296  0.52370  0.36404  Biso   1.000  C
  C20      1.0000 0.38704  0.52370  0.13596  Biso   1.000  C
  C21      1.0000 0.88704  0.97630  0.63596  Biso   1.000  C
  C22      1.0000 0.11296  0.97630  0.86404  Biso   1.000  C
  C23      1.0000 0.38704  0.47630  0.63596  Biso   1.000  C
  C24      1.0000 0.61296  0.47630  0.86404  Biso   1.000  C
  H41      1.0000 0.10440  0.06290  0.38740  Biso   1.000  H
  H42      1.0000 0.89560  0.06290  0.11260  Biso   1.000  H
  H43      1.0000 0.60440  0.56290  0.38740  Biso   1.000  H
  H44      1.0000 0.39560  0.56290  0.11260  Biso   1.000  H
  H45      1.0000 0.89560  0.93710  0.61260  Biso   1.000  H
  H46      1.0000 0.10440  0.93710  0.88740  Biso   1.000  H
  H47      1.0000 0.39560  0.43710  0.61260  Biso   1.000  H
  H48      1.0000 0.60440  0.43710  0.88740  Biso   1.000  H
  C25      1.0000 0.09779  0.07430  0.31845  Biso   1.000  C
  C26      1.0000 0.90221  0.07430  0.18155  Biso   1.000  C
  C27      1.0000 0.59779  0.57430  0.31845  Biso   1.000  C
  C28      1.0000 0.40221  0.57430  0.18155  Biso   1.000  C
  C29      1.0000 0.90221  0.92570  0.68155  Biso   1.000  C
  C30      1.0000 0.09779  0.92570  0.81845  Biso   1.000  C
  C31      1.0000 0.40221  0.42570  0.68155  Biso   1.000  C
  C32      1.0000 0.59779  0.42570  0.81845  Biso   1.000  C
  H49      1.0000 0.07890  0.14880  0.31040  Biso   1.000  H
  H50      1.0000 0.92110  0.14880  0.18960  Biso   1.000  H
  H51      1.0000 0.57890  0.64880  0.31040  Biso   1.000  H
  H52      1.0000 0.42110  0.64880  0.18960  Biso   1.000  H
  H53      1.0000 0.92110  0.85120  0.68960  Biso   1.000  H
  H54      1.0000 0.07890  0.85120  0.81040  Biso   1.000  H
  H55      1.0000 0.42110  0.35120  0.68960  Biso   1.000  H
  H56      1.0000 0.57890  0.35120  0.81040  Biso   1.000  H
  C33      1.0000 0.11082  0.01400  0.28446  Biso   1.000  C
  C34      1.0000 0.88918  0.01400  0.21554  Biso   1.000  C
  C35      1.0000 0.61082  0.51400  0.28446  Biso   1.000  C
  C36      1.0000 0.38918  0.51400  0.21554  Biso   1.000  C
  C37      1.0000 0.88918  0.98600  0.71554  Biso   1.000  C
  C38      1.0000 0.11082  0.98600  0.78446  Biso   1.000  C
  C39      1.0000 0.38918  0.48600  0.71554  Biso   1.000  C
  C40      1.0000 0.61082  0.48600  0.78446  Biso   1.000  C
  H57      1.0000 0.09980  0.04780  0.25320  Biso   1.000  H
  H58      1.0000 0.90020  0.04780  0.24680  Biso   1.000  H
  H59      1.0000 0.59980  0.54780  0.25320  Biso   1.000  H
  H60      1.0000 0.40020  0.54780  0.24680  Biso   1.000  H
  H61      1.0000 0.90020  0.95220  0.74680  Biso   1.000  H
  H62      1.0000 0.09980  0.95220  0.75320  Biso   1.000  H
  H63      1.0000 0.40020  0.45220  0.74680  Biso   1.000  H
  H64      1.0000 0.59980  0.45220  0.75320  Biso   1.000  H
  C41      1.0000 0.21198  0.50799  0.49807  Biso   1.000  C
  C42      1.0000 0.78802  0.50799  0.00193  Biso   1.000  C
  C43      1.0000 0.71198  0.00799  0.49807  Biso   1.000  C
  C44      1.0000 0.28802  0.00799  0.00193  Biso   1.000  C
  C45      1.0000 0.78802  0.49201  0.50193  Biso   1.000  C
  C46      1.0000 0.21198  0.49201  0.99807  Biso   1.000  C
  C47      1.0000 0.28802  0.99201  0.50193  Biso   1.000  C
  C48      1.0000 0.71198  0.99201  0.99807  Biso   1.000  C
  H65      1.0000 0.21290  0.50710  0.46750  Biso   1.000  H
  H66      1.0000 0.78710  0.50710  0.03250  Biso   1.000  H
  H67      1.0000 0.71290  0.00710  0.46750  Biso   1.000  H
  H68      1.0000 0.28710  0.00710  0.03250  Biso   1.000  H
  H69      1.0000 0.78710  0.49290  0.53250  Biso   1.000  H
  H70      1.0000 0.21290  0.49290  0.96750  Biso   1.000  H
  H71      1.0000 0.28710  0.99290  0.53250  Biso   1.000  H
  H72      1.0000 0.71290  0.99290  0.96750  Biso   1.000  H
  C49      1.0000 0.19618  0.61493  0.51284  Biso   1.000  C
  C50      1.0000 0.80382  0.61493  0.98716  Biso   1.000  C
  C51      1.0000 0.69618  0.11493  0.51284  Biso   1.000  C
  C52      1.0000 0.30382  0.11493  0.98716  Biso   1.000  C
  C53      1.0000 0.80382  0.38507  0.48716  Biso   1.000  C
  C54      1.0000 0.19618  0.38507  0.01284  Biso   1.000  C
  C55      1.0000 0.30382  0.88507  0.48716  Biso   1.000  C
  C56      1.0000 0.69618  0.88507  0.01284  Biso   1.000  C
  C57      1.0000 0.19563  0.61620  0.55867  Biso   1.000  C
  C58      1.0000 0.80437  0.61620  0.94133  Biso   1.000  C
  C59      1.0000 0.69563  0.11620  0.55867  Biso   1.000  C
  C60      1.0000 0.30437  0.11620  0.94133  Biso   1.000  C
  C61      1.0000 0.80437  0.38380  0.44133  Biso   1.000  C
  C62      1.0000 0.19563  0.38380  0.05867  Biso   1.000  C
  C63      1.0000 0.30437  0.88380  0.44133  Biso   1.000  C
  C64      1.0000 0.69563  0.88380  0.05867  Biso   1.000  C
  H73      1.0000 0.18530  0.68730  0.57010  Biso   1.000  H
  H74      1.0000 0.81470  0.68730  0.92990  Biso   1.000  H
  H75      1.0000 0.68530  0.18730  0.57010  Biso   1.000  H
  H76      1.0000 0.31470  0.18730  0.92990  Biso   1.000  H
  H77      1.0000 0.81470  0.31270  0.42990  Biso   1.000  H
  H78      1.0000 0.18530  0.31270  0.07010  Biso   1.000  H
  H79      1.0000 0.31470  0.81270  0.42990  Biso   1.000  H
  H80      1.0000 0.68530  0.81270  0.07010  Biso   1.000  H
  C65      1.0000 0.21053  0.51100  0.58671  Biso   1.000  C
  C66      1.0000 0.78947  0.51100  0.91329  Biso   1.000  C
  C67      1.0000 0.71053  0.01100  0.58671  Biso   1.000  C
  C68      1.0000 0.28947  0.01100  0.91329  Biso   1.000  C
  C69      1.0000 0.78947  0.48900  0.41329  Biso   1.000  C
  C70      1.0000 0.21053  0.48900  0.08671  Biso   1.000  C
  C71      1.0000 0.28947  0.98900  0.41329  Biso   1.000  C
  C72      1.0000 0.71053  0.98900  0.08671  Biso   1.000  C
  H81      1.0000 0.21060  0.50950  0.61760  Biso   1.000  H
  H82      1.0000 0.78940  0.50950  0.88240  Biso   1.000  H
  H83      1.0000 0.71060  0.00950  0.61760  Biso   1.000  H
  H84      1.0000 0.28940  0.00950  0.88240  Biso   1.000  H
  H85      1.0000 0.78940  0.49050  0.38240  Biso   1.000  H
  H86      1.0000 0.21060  0.49050  0.11760  Biso   1.000  H
  H87      1.0000 0.28940  0.99050  0.38240  Biso   1.000  H
  H88      1.0000 0.71060  0.99050  0.11760  Biso   1.000  H
  C73      1.0000 0.22537  0.40800  0.56886  Biso   1.000  C
  C74      1.0000 0.77463  0.40800  0.93114  Biso   1.000  C
  C75      1.0000 0.72537  0.90800  0.56886  Biso   1.000  C
  C76      1.0000 0.27463  0.90800  0.93114  Biso   1.000  C
  C77      1.0000 0.77463  0.59200  0.43114  Biso   1.000  C
  C78      1.0000 0.22537  0.59200  0.06886  Biso   1.000  C
  C79      1.0000 0.27463  0.09200  0.43114  Biso   1.000  C
  C80      1.0000 0.72537  0.09200  0.06886  Biso   1.000  C
  H89      1.0000 0.23540  0.33690  0.58830  Biso   1.000  H
  H90      1.0000 0.76460  0.33690  0.91170  Biso   1.000  H
  H91      1.0000 0.73540  0.83690  0.58830  Biso   1.000  H
  H92      1.0000 0.26460  0.83690  0.91170  Biso   1.000  H
  H93      1.0000 0.76460  0.66310  0.41170  Biso   1.000  H
  H94      1.0000 0.23540  0.66310  0.08830  Biso   1.000  H
  H95      1.0000 0.26460  0.16310  0.41170  Biso   1.000  H
  H96      1.0000 0.73540  0.16310  0.08830  Biso   1.000  H
  C81      1.0000 0.15813  0.85843  0.42324  Biso   1.000  C
  C82      1.0000 0.84187  0.85843  0.07676  Biso   1.000  C
  C83      1.0000 0.65813  0.35843  0.42324  Biso   1.000  C
  C84      1.0000 0.34187  0.35843  0.07676  Biso   1.000  C
  C85      1.0000 0.84187  0.14157  0.57676  Biso   1.000  C
  C86      1.0000 0.15813  0.14157  0.92324  Biso   1.000  C
  C87      1.0000 0.34187  0.64157  0.57676  Biso   1.000  C
  C88      1.0000 0.65813  0.64157  0.92324  Biso   1.000  C
  C89      1.0000 0.18226  0.72707  0.48310  Biso   1.000  C
  C90      1.0000 0.81774  0.72707  0.01690  Biso   1.000  C
  C91      1.0000 0.68226  0.22707  0.48310  Biso   1.000  C
  C92      1.0000 0.31774  0.22707  0.01690  Biso   1.000  C
  C93      1.0000 0.81774  0.27293  0.51690  Biso   1.000  C
  C94      1.0000 0.18226  0.27293  0.98310  Biso   1.000  C
  C95      1.0000 0.31774  0.77293  0.51690  Biso   1.000  C
  C96      1.0000 0.68226  0.77293  0.98310  Biso   1.000  C
  C97      1.0000 0.05784  0.84955  0.15833  Biso   1.000  C
  C98      1.0000 0.94216  0.84955  0.34167  Biso   1.000  C
  C99      1.0000 0.55784  0.34955  0.15833  Biso   1.000  C
  C100     1.0000 0.44216  0.34955  0.34167  Biso   1.000  C
  C101     1.0000 0.94216  0.15045  0.84167  Biso   1.000  C
  C102     1.0000 0.05784  0.15045  0.65833  Biso   1.000  C
  C103     1.0000 0.44216  0.65045  0.84167  Biso   1.000  C
  C104     1.0000 0.55784  0.65045  0.65833  Biso   1.000  C
  H97      1.0000 0.07710  0.90750  0.14940  Biso   1.000  H
  H98      1.0000 0.92290  0.90750  0.35060  Biso   1.000  H
  H99      1.0000 0.57710  0.40750  0.14940  Biso   1.000  H
  H100     1.0000 0.42290  0.40750  0.35060  Biso   1.000  H
  H101     1.0000 0.92290  0.09250  0.85060  Biso   1.000  H
  H102     1.0000 0.07710  0.09250  0.64940  Biso   1.000  H
  H103     1.0000 0.42290  0.59250  0.85060  Biso   1.000  H
  H104     1.0000 0.57710  0.59250  0.64940  Biso   1.000  H
  C105     1.0000 0.00635  0.82174  0.12584  Biso   1.000  C
  C106     1.0000 0.99365  0.82174  0.37416  Biso   1.000  C
  C107     1.0000 0.50635  0.32174  0.12584  Biso   1.000  C
  C108     1.0000 0.49365  0.32174  0.37416  Biso   1.000  C
  C109     1.0000 0.99365  0.17826  0.87416  Biso   1.000  C
  C110     1.0000 0.00635  0.17826  0.62584  Biso   1.000  C
  C111     1.0000 0.49365  0.67826  0.87416  Biso   1.000  C
  C112     1.0000 0.50635  0.67826  0.62584  Biso   1.000  C
  C113     1.0000 0.97870  0.73350  0.13878  Biso   1.000  C
  C114     1.0000 0.02130  0.73350  0.36122  Biso   1.000  C
  C115     1.0000 0.47870  0.23350  0.13878  Biso   1.000  C
  C116     1.0000 0.52130  0.23350  0.36122  Biso   1.000  C
  C117     1.0000 0.02130  0.26650  0.86122  Biso   1.000  C
  C118     1.0000 0.97870  0.26650  0.63878  Biso   1.000  C
  C119     1.0000 0.52130  0.76650  0.86122  Biso   1.000  C
  C120     1.0000 0.47870  0.76650  0.63878  Biso   1.000  C
  H105     1.0000 0.94440  0.71060  0.11690  Biso   1.000  H
  H106     1.0000 0.05560  0.71060  0.38310  Biso   1.000  H
  H107     1.0000 0.44440  0.21060  0.11690  Biso   1.000  H
  H108     1.0000 0.55560  0.21060  0.38310  Biso   1.000  H
  H109     1.0000 0.05560  0.28940  0.88310  Biso   1.000  H
  H110     1.0000 0.94440  0.28940  0.61690  Biso   1.000  H
  H111     1.0000 0.55560  0.78940  0.88310  Biso   1.000  H
  H112     1.0000 0.44440  0.78940  0.61690  Biso   1.000  H
  C121     1.0000 0.00200  0.67970  0.18417  Biso   1.000  C
  C122     1.0000 0.99800  0.67970  0.31583  Biso   1.000  C
  C123     1.0000 0.50200  0.17970  0.18417  Biso   1.000  C
  C124     1.0000 0.49800  0.17970  0.31583  Biso   1.000  C
  C125     1.0000 0.99800  0.32030  0.81583  Biso   1.000  C
  C126     1.0000 0.00200  0.32030  0.68417  Biso   1.000  C
  C127     1.0000 0.49800  0.82030  0.81583  Biso   1.000  C
  C128     1.0000 0.50200  0.82030  0.68417  Biso   1.000  C
  H113     1.0000 0.98370  0.62080  0.19390  Biso   1.000  H
  H114     1.0000 0.01630  0.62080  0.30610  Biso   1.000  H
  H115     1.0000 0.48370  0.12080  0.19390  Biso   1.000  H
  H116     1.0000 0.51630  0.12080  0.30610  Biso   1.000  H
  H117     1.0000 0.01630  0.37920  0.80610  Biso   1.000  H
  H118     1.0000 0.98370  0.37920  0.69390  Biso   1.000  H
  H119     1.0000 0.51630  0.87920  0.80610  Biso   1.000  H
  H120     1.0000 0.48370  0.87920  0.69390  Biso   1.000  H
  C129     1.0000 0.05277  0.71460  0.21487  Biso   1.000  C
  C130     1.0000 0.94723  0.71460  0.28513  Biso   1.000  C
  C131     1.0000 0.55277  0.21460  0.21487  Biso   1.000  C
  C132     1.0000 0.44723  0.21460  0.28513  Biso   1.000  C
  C133     1.0000 0.94723  0.28540  0.78513  Biso   1.000  C
  C134     1.0000 0.05277  0.28540  0.71487  Biso   1.000  C
  C135     1.0000 0.44723  0.78540  0.78513  Biso   1.000  C
  C136     1.0000 0.55277  0.78540  0.71487  Biso   1.000  C
  H121     1.0000 0.06840  0.67980  0.24610  Biso   1.000  H
  H122     1.0000 0.93160  0.67980  0.25390  Biso   1.000  H
  H123     1.0000 0.56840  0.17980  0.24610  Biso   1.000  H
  H124     1.0000 0.43160  0.17980  0.25390  Biso   1.000  H
  H125     1.0000 0.93160  0.32020  0.75390  Biso   1.000  H
  H126     1.0000 0.06840  0.32020  0.74610  Biso   1.000  H
  H127     1.0000 0.43160  0.82020  0.75390  Biso   1.000  H
  H128     1.0000 0.56840  0.82020  0.74610  Biso   1.000  H
  C137     1.0000 0.96906  0.23732  0.00529  Biso   1.000  C
  C138     1.0000 0.03094  0.23732  0.49471  Biso   1.000  C
  C139     1.0000 0.46906  0.73732  0.00529  Biso   1.000  C
  C140     1.0000 0.53094  0.73732  0.49471  Biso   1.000  C
  C141     1.0000 0.03094  0.76268  0.99471  Biso   1.000  C
  C142     1.0000 0.96906  0.76268  0.50529  Biso   1.000  C
  C143     1.0000 0.53094  0.26268  0.99471  Biso   1.000  C
  C144     1.0000 0.46906  0.26268  0.50529  Biso   1.000  C
  H129     1.0000 0.00080  0.23520  0.03360  Biso   1.000  H
  H130     1.0000 0.99920  0.23520  0.46640  Biso   1.000  H
  H131     1.0000 0.50080  0.73520  0.03360  Biso   1.000  H
  H132     1.0000 0.49920  0.73520  0.46640  Biso   1.000  H
  H133     1.0000 0.99920  0.76480  0.96640  Biso   1.000  H
  H134     1.0000 0.00080  0.76480  0.53360  Biso   1.000  H
  H135     1.0000 0.49920  0.26480  0.96640  Biso   1.000  H
  H136     1.0000 0.50080  0.26480  0.53360  Biso   1.000  H
  C145     1.0000 0.93851  0.13130  0.99129  Biso   1.000  C
  C146     1.0000 0.06149  0.13130  0.50871  Biso   1.000  C
  C147     1.0000 0.43851  0.63130  0.99129  Biso   1.000  C
  C148     1.0000 0.56149  0.63130  0.50871  Biso   1.000  C
  C149     1.0000 0.06149  0.86870  0.00871  Biso   1.000  C
  C150     1.0000 0.93851  0.86870  0.49129  Biso   1.000  C
  C151     1.0000 0.56149  0.36870  0.00871  Biso   1.000  C
  C152     1.0000 0.43851  0.36870  0.49129  Biso   1.000  C
  C153     1.0000 0.89241  0.13370  0.94849  Biso   1.000  C
  C154     1.0000 0.10759  0.13370  0.55151  Biso   1.000  C
  C155     1.0000 0.39241  0.63370  0.94849  Biso   1.000  C
  C156     1.0000 0.60759  0.63370  0.55151  Biso   1.000  C
  C157     1.0000 0.10759  0.86630  0.05151  Biso   1.000  C
  C158     1.0000 0.89241  0.86630  0.44849  Biso   1.000  C
  C159     1.0000 0.60759  0.36630  0.05151  Biso   1.000  C
  C160     1.0000 0.39241  0.36630  0.44849  Biso   1.000  C
  H137     1.0000 0.87120  0.06300  0.93770  Biso   1.000  H
  H138     1.0000 0.12880  0.06300  0.56230  Biso   1.000  H
  H139     1.0000 0.37120  0.56300  0.93770  Biso   1.000  H
  H140     1.0000 0.62880  0.56300  0.56230  Biso   1.000  H
  H141     1.0000 0.12880  0.93700  0.06230  Biso   1.000  H
  H142     1.0000 0.87120  0.93700  0.43770  Biso   1.000  H
  H143     1.0000 0.62880  0.43700  0.06230  Biso   1.000  H
  H144     1.0000 0.37120  0.43700  0.43770  Biso   1.000  H
  C161     1.0000 0.87829  0.24150  0.92209  Biso   1.000  C
  C162     1.0000 0.12171  0.24150  0.57791  Biso   1.000  C
  C163     1.0000 0.37829  0.74150  0.92209  Biso   1.000  C
  C164     1.0000 0.62171  0.74150  0.57791  Biso   1.000  C
  C165     1.0000 0.12171  0.75850  0.07791  Biso   1.000  C
  C166     1.0000 0.87829  0.75850  0.42209  Biso   1.000  C
  C167     1.0000 0.62171  0.25850  0.07791  Biso   1.000  C
  C168     1.0000 0.37829  0.25850  0.42209  Biso   1.000  C
  H145     1.0000 0.84770  0.24480  0.89280  Biso   1.000  H
  H146     1.0000 0.15230  0.24480  0.60720  Biso   1.000  H
  H147     1.0000 0.34770  0.74480  0.89280  Biso   1.000  H
  H148     1.0000 0.65230  0.74480  0.60720  Biso   1.000  H
  H149     1.0000 0.15230  0.75520  0.10720  Biso   1.000  H
  H150     1.0000 0.84770  0.75520  0.39280  Biso   1.000  H
  H151     1.0000 0.65230  0.25520  0.10720  Biso   1.000  H
  H152     1.0000 0.34770  0.25520  0.39280  Biso   1.000  H
  C169     1.0000 0.90976  0.34480  0.93928  Biso   1.000  C
  C170     1.0000 0.09024  0.34480  0.56072  Biso   1.000  C
  C171     1.0000 0.40976  0.84480  0.93928  Biso   1.000  C
  C172     1.0000 0.59024  0.84480  0.56072  Biso   1.000  C
  C173     1.0000 0.09024  0.65520  0.06072  Biso   1.000  C
  C174     1.0000 0.90976  0.65520  0.43928  Biso   1.000  C
  C175     1.0000 0.59024  0.15520  0.06072  Biso   1.000  C
  C176     1.0000 0.40976  0.15520  0.43928  Biso   1.000  C
  H153     1.0000 0.89910  0.41900  0.92190  Biso   1.000  H
  H154     1.0000 0.10090  0.41900  0.57810  Biso   1.000  H
  H155     1.0000 0.39910  0.91900  0.92190  Biso   1.000  H
  H156     1.0000 0.60090  0.91900  0.57810  Biso   1.000  H
  H157     1.0000 0.10090  0.58100  0.07810  Biso   1.000  H
  H158     1.0000 0.89910  0.58100  0.42190  Biso   1.000  H
  H159     1.0000 0.60090  0.08100  0.07810  Biso   1.000  H
  H160     1.0000 0.39910  0.08100  0.42190  Biso   1.000  H
  C177     1.0000 0.98071  0.88077  0.07779  Biso   1.000  C
  C178     1.0000 0.01929  0.88077  0.42221  Biso   1.000  C
  C179     1.0000 0.48071  0.38077  0.07779  Biso   1.000  C
  C180     1.0000 0.51929  0.38077  0.42221  Biso   1.000  C
  C181     1.0000 0.01929  0.11923  0.92221  Biso   1.000  C
  C182     1.0000 0.98071  0.11923  0.57779  Biso   1.000  C
  C183     1.0000 0.51929  0.61923  0.92221  Biso   1.000  C
  C184     1.0000 0.48071  0.61923  0.57779  Biso   1.000  C
  C185     1.0000 0.95206  0.01668  0.01987  Biso   1.000  C
  C186     1.0000 0.04794  0.01668  0.48013  Biso   1.000  C
  C187     1.0000 0.45206  0.51668  0.01987  Biso   1.000  C
  C188     1.0000 0.54794  0.51668  0.48013  Biso   1.000  C
  C189     1.0000 0.04794  0.98332  0.98013  Biso   1.000  C
  C190     1.0000 0.95206  0.98332  0.51987  Biso   1.000  C
  C191     1.0000 0.54794  0.48332  0.98013  Biso   1.000  C
  C192     1.0000 0.45206  0.48332  0.51987  Biso   1.000  C
  H161     1.0000 0.25500  0.80500  0.29450  Biso   1.000  H
  H162     1.0000 0.74500  0.80500  0.20550  Biso   1.000  H
  H163     1.0000 0.75500  0.30500  0.29450  Biso   1.000  H
  H164     1.0000 0.24500  0.30500  0.20550  Biso   1.000  H
  H165     1.0000 0.74500  0.19500  0.70550  Biso   1.000  H
  H166     1.0000 0.25500  0.19500  0.79450  Biso   1.000  H
  H167     1.0000 0.24500  0.69500  0.70550  Biso   1.000  H
  H168     1.0000 0.75500  0.69500  0.79450  Biso   1.000  H
  H169     1.0000 0.24380  0.91600  0.27530  Biso   1.000  H
  H170     1.0000 0.75620  0.91600  0.22470  Biso   1.000  H
  H171     1.0000 0.74380  0.41600  0.27530  Biso   1.000  H
  H172     1.0000 0.25620  0.41600  0.22470  Biso   1.000  H
  H173     1.0000 0.75620  0.08400  0.72470  Biso   1.000  H
  H174     1.0000 0.24380  0.08400  0.77530  Biso   1.000  H
  H175     1.0000 0.25620  0.58400  0.72470  Biso   1.000  H
  H176     1.0000 0.74380  0.58400  0.77530  Biso   1.000  H
  H177     1.0000 0.16450  0.64800  0.19580  Biso   1.000  H
  H178     1.0000 0.83550  0.64800  0.30420  Biso   1.000  H
  H179     1.0000 0.66450  0.14800  0.19580  Biso   1.000  H
  H180     1.0000 0.33550  0.14800  0.30420  Biso   1.000  H
  H181     1.0000 0.83550  0.35200  0.80420  Biso   1.000  H
  H182     1.0000 0.16450  0.35200  0.69580  Biso   1.000  H
  H183     1.0000 0.33550  0.85200  0.80420  Biso   1.000  H
  H184     1.0000 0.66450  0.85200  0.69580  Biso   1.000  H
  H185     1.0000 0.20080  0.71800  0.20400  Biso   1.000  H
  H186     1.0000 0.79920  0.71800  0.29600  Biso   1.000  H
  H187     1.0000 0.70080  0.21800  0.20400  Biso   1.000  H
  H188     1.0000 0.29920  0.21800  0.29600  Biso   1.000  H
  H189     1.0000 0.79920  0.28200  0.79600  Biso   1.000  H
  H190     1.0000 0.20080  0.28200  0.70400  Biso   1.000  H
  H191     1.0000 0.29920  0.78200  0.79600  Biso   1.000  H
  H192     1.0000 0.70080  0.78200  0.70400  Biso   1.000  H
  H193     1.0000 0.18680  0.58800  0.27860  Biso   1.000  H
  H194     1.0000 0.81320  0.58800  0.22140  Biso   1.000  H
  H195     1.0000 0.68680  0.08800  0.27860  Biso   1.000  H
  H196     1.0000 0.31320  0.08800  0.22140  Biso   1.000  H
  H197     1.0000 0.81320  0.41200  0.72140  Biso   1.000  H
  H198     1.0000 0.18680  0.41200  0.77860  Biso   1.000  H
  H199     1.0000 0.31320  0.91200  0.72140  Biso   1.000  H
  H200     1.0000 0.68680  0.91200  0.77860  Biso   1.000  H
  H201     1.0000 0.14750  0.58000  0.29230  Biso   1.000  H
  H202     1.0000 0.85250  0.58000  0.20770  Biso   1.000  H
  H203     1.0000 0.64750  0.08000  0.29230  Biso   1.000  H
  H204     1.0000 0.35250  0.08000  0.20770  Biso   1.000  H
  H205     1.0000 0.85250  0.42000  0.70770  Biso   1.000  H
  H206     1.0000 0.14750  0.42000  0.79230  Biso   1.000  H
  H207     1.0000 0.35250  0.92000  0.70770  Biso   1.000  H
  H208     1.0000 0.64750  0.92000  0.79230  Biso   1.000  H
  H209     1.0000 0.15300  0.19500  0.47340  Biso   1.000  H
  H210     1.0000 0.84700  0.19500  0.02660  Biso   1.000  H
  H211     1.0000 0.65300  0.69500  0.47340  Biso   1.000  H
  H212     1.0000 0.34700  0.69500  0.02660  Biso   1.000  H
  H213     1.0000 0.84700  0.80500  0.52660  Biso   1.000  H
  H214     1.0000 0.15300  0.80500  0.97340  Biso   1.000  H
  H215     1.0000 0.34700  0.30500  0.52660  Biso   1.000  H
  H216     1.0000 0.65300  0.30500  0.97340  Biso   1.000  H
  H217     1.0000 0.18560  0.09700  0.48270  Biso   1.000  H
  H218     1.0000 0.81440  0.09700  0.01730  Biso   1.000  H
  H219     1.0000 0.68560  0.59700  0.48270  Biso   1.000  H
  H220     1.0000 0.31440  0.59700  0.01730  Biso   1.000  H
  H221     1.0000 0.81440  0.90300  0.51730  Biso   1.000  H
  H222     1.0000 0.18560  0.90300  0.98270  Biso   1.000  H
  H223     1.0000 0.31440  0.40300  0.51730  Biso   1.000  H
  H224     1.0000 0.68560  0.40300  0.98270  Biso   1.000  H
  H225     1.0000 0.17960  0.33900  0.40290  Biso   1.000  H
  H226     1.0000 0.82040  0.33900  0.09710  Biso   1.000  H
  H227     1.0000 0.67960  0.83900  0.40290  Biso   1.000  H
  H228     1.0000 0.32040  0.83900  0.09710  Biso   1.000  H
  H229     1.0000 0.82040  0.66100  0.59710  Biso   1.000  H
  H230     1.0000 0.17960  0.66100  0.90290  Biso   1.000  H
  H231     1.0000 0.32040  0.16100  0.59710  Biso   1.000  H
  H232     1.0000 0.67960  0.16100  0.90290  Biso   1.000  H
  H233     1.0000 0.22590  0.38900  0.41250  Biso   1.000  H
  H234     1.0000 0.77410  0.38900  0.08750  Biso   1.000  H
  H235     1.0000 0.72590  0.88900  0.41250  Biso   1.000  H
  H236     1.0000 0.27410  0.88900  0.08750  Biso   1.000  H
  H237     1.0000 0.77410  0.61100  0.58750  Biso   1.000  H
  H238     1.0000 0.22590  0.61100  0.91250  Biso   1.000  H
  H239     1.0000 0.27410  0.11100  0.58750  Biso   1.000  H
  H240     1.0000 0.72590  0.11100  0.91250  Biso   1.000  H
  H241     1.0000 0.93250  0.54600  0.02670  Biso   1.000  H
  H242     1.0000 0.06750  0.54600  0.47330  Biso   1.000  H
  H243     1.0000 0.43250  0.04600  0.02670  Biso   1.000  H
  H244     1.0000 0.56750  0.04600  0.47330  Biso   1.000  H
  H245     1.0000 0.06750  0.45400  0.97330  Biso   1.000  H
  H246     1.0000 0.93250  0.45400  0.52670  Biso   1.000  H
  H247     1.0000 0.56750  0.95400  0.97330  Biso   1.000  H
  H248     1.0000 0.43250  0.95400  0.52670  Biso   1.000  H
  H249     1.0000 0.94360  0.65100  0.01550  Biso   1.000  H
  H250     1.0000 0.05640  0.65100  0.48450  Biso   1.000  H
  H251     1.0000 0.44360  0.15100  0.01550  Biso   1.000  H
  H252     1.0000 0.55640  0.15100  0.48450  Biso   1.000  H
  H253     1.0000 0.05640  0.34900  0.98450  Biso   1.000  H
  H254     1.0000 0.94360  0.34900  0.51550  Biso   1.000  H
  H255     1.0000 0.55640  0.84900  0.98450  Biso   1.000  H
  H256     1.0000 0.44360  0.84900  0.51550  Biso   1.000  H
  H257     1.0000 0.06590  0.35600  0.08870  Biso   1.000  H
  H258     1.0000 0.93410  0.35600  0.41130  Biso   1.000  H
  H259     1.0000 0.56590  0.85600  0.08870  Biso   1.000  H
  H260     1.0000 0.43410  0.85600  0.41130  Biso   1.000  H
  H261     1.0000 0.93410  0.64400  0.91130  Biso   1.000  H
  H262     1.0000 0.06590  0.64400  0.58870  Biso   1.000  H
  H263     1.0000 0.43410  0.14400  0.91130  Biso   1.000  H
  H264     1.0000 0.56590  0.14400  0.58870  Biso   1.000  H
  H265     1.0000 0.02880  0.41300  0.09580  Biso   1.000  H
  H266     1.0000 0.97120  0.41300  0.40420  Biso   1.000  H
  H267     1.0000 0.52880  0.91300  0.09580  Biso   1.000  H
  H268     1.0000 0.47120  0.91300  0.40420  Biso   1.000  H
  H269     1.0000 0.97120  0.58700  0.90420  Biso   1.000  H
  H270     1.0000 0.02880  0.58700  0.59580  Biso   1.000  H
  H271     1.0000 0.47120  0.08700  0.90420  Biso   1.000  H
  H272     1.0000 0.52880  0.08700  0.59580  Biso   1.000  H
  H273     1.0000 0.27570  0.58400  0.43520  Biso   1.000  H
  H274     1.0000 0.72430  0.58400  0.06480  Biso   1.000  H
  H275     1.0000 0.77570  0.08400  0.43520  Biso   1.000  H
  H276     1.0000 0.22430  0.08400  0.06480  Biso   1.000  H
  H277     1.0000 0.72430  0.41600  0.56480  Biso   1.000  H
  H278     1.0000 0.27570  0.41600  0.93520  Biso   1.000  H
  H279     1.0000 0.22430  0.91600  0.56480  Biso   1.000  H
  H280     1.0000 0.77570  0.91600  0.93520  Biso   1.000  H
  H281     1.0000 0.26840  0.53000  0.38960  Biso   1.000  H
  H282     1.0000 0.73160  0.53000  0.11040  Biso   1.000  H
  H283     1.0000 0.76840  0.03000  0.38960  Biso   1.000  H
  H284     1.0000 0.23160  0.03000  0.11040  Biso   1.000  H
  H285     1.0000 0.73160  0.47000  0.61040  Biso   1.000  H
  H286     1.0000 0.26840  0.47000  0.88960  Biso   1.000  H
  H287     1.0000 0.23160  0.97000  0.61040  Biso   1.000  H
  H288     1.0000 0.76840  0.97000  0.88960  Biso   1.000  H
  H289     1.0000 0.09320  0.45900  0.31150  Biso   1.000  H
  H290     1.0000 0.90680  0.45900  0.18850  Biso   1.000  H
  H291     1.0000 0.59320  0.95900  0.31150  Biso   1.000  H
  H292     1.0000 0.40680  0.95900  0.18850  Biso   1.000  H
  H293     1.0000 0.90680  0.54100  0.68850  Biso   1.000  H
  H294     1.0000 0.09320  0.54100  0.81150  Biso   1.000  H
  H295     1.0000 0.40680  0.04100  0.68850  Biso   1.000  H
  H296     1.0000 0.59320  0.04100  0.81150  Biso   1.000  H
  H297     1.0000 0.07640  0.44900  0.26880  Biso   1.000  H
  H298     1.0000 0.92360  0.44900  0.23120  Biso   1.000  H
  H299     1.0000 0.57640  0.94900  0.26880  Biso   1.000  H
  H300     1.0000 0.42360  0.94900  0.23120  Biso   1.000  H
  H301     1.0000 0.92360  0.55100  0.73120  Biso   1.000  H
  H302     1.0000 0.07640  0.55100  0.76880  Biso   1.000  H
  H303     1.0000 0.42360  0.05100  0.73120  Biso   1.000  H
  H304     1.0000 0.57640  0.05100  0.76880  Biso   1.000  H
  H305     1.0000 0.13610  0.44700  0.19360  Biso   1.000  H
  H306     1.0000 0.86390  0.44700  0.30640  Biso   1.000  H
  H307     1.0000 0.63610  0.94700  0.19360  Biso   1.000  H
  H308     1.0000 0.36390  0.94700  0.30640  Biso   1.000  H
  H309     1.0000 0.86390  0.55300  0.80640  Biso   1.000  H
  H310     1.0000 0.13610  0.55300  0.69360  Biso   1.000  H
  H311     1.0000 0.36390  0.05300  0.80640  Biso   1.000  H
  H312     1.0000 0.63610  0.05300  0.69360  Biso   1.000  H
  H313     1.0000 0.09990  0.50100  0.15340  Biso   1.000  H
  H314     1.0000 0.90010  0.50100  0.34660  Biso   1.000  H
  H315     1.0000 0.59990  0.00100  0.15340  Biso   1.000  H
  H316     1.0000 0.40010  0.00100  0.34660  Biso   1.000  H
  H317     1.0000 0.90010  0.49900  0.84660  Biso   1.000  H
  H318     1.0000 0.09990  0.49900  0.65340  Biso   1.000  H
  H319     1.0000 0.40010  0.99900  0.84660  Biso   1.000  H
  H320     1.0000 0.59990  0.99900  0.65340  Biso   1.000  H
  H321     1.0000 0.13400  0.23900  0.25000  Biso   1.000  H
  H322     1.0000 0.86600  0.23900  0.25000  Biso   1.000  H
  H323     1.0000 0.63400  0.73900  0.25000  Biso   1.000  H
  H324     1.0000 0.36600  0.73900  0.25000  Biso   1.000  H
  H325     1.0000 0.86600  0.76100  0.75000  Biso   1.000  H
  H326     1.0000 0.13400  0.76100  0.75000  Biso   1.000  H
  H327     1.0000 0.36600  0.26100  0.75000  Biso   1.000  H
  H328     1.0000 0.63400  0.26100  0.75000  Biso   1.000  H
  H329     1.0000 0.15300  0.26300  0.21700  Biso   1.000  H
  H330     1.0000 0.84700  0.26300  0.28300  Biso   1.000  H
  H331     1.0000 0.65300  0.76300  0.21700  Biso   1.000  H
  H332     1.0000 0.34700  0.76300  0.28300  Biso   1.000  H
  H333     1.0000 0.84700  0.73700  0.78300  Biso   1.000  H
  H334     1.0000 0.15300  0.73700  0.71700  Biso   1.000  H
  H335     1.0000 0.34700  0.23700  0.78300  Biso   1.000  H
  H336     1.0000 0.65300  0.23700  0.71700  Biso   1.000  H
  H337     1.0000 0.01960  0.31600  0.19600  Biso   1.000  H
  H338     1.0000 0.98040  0.31600  0.30400  Biso   1.000  H
  H339     1.0000 0.51960  0.81600  0.19600  Biso   1.000  H
  H340     1.0000 0.48040  0.81600  0.30400  Biso   1.000  H
  H341     1.0000 0.98040  0.68400  0.80400  Biso   1.000  H
  H342     1.0000 0.01960  0.68400  0.69600  Biso   1.000  H
  H343     1.0000 0.48040  0.18400  0.80400  Biso   1.000  H
  H344     1.0000 0.51960  0.18400  0.69600  Biso   1.000  H
  H345     1.0000 0.02300  0.27800  0.23500  Biso   1.000  H
  H346     1.0000 0.97700  0.27800  0.26500  Biso   1.000  H
  H347     1.0000 0.52300  0.77800  0.23500  Biso   1.000  H
  H348     1.0000 0.47700  0.77800  0.26500  Biso   1.000  H
  H349     1.0000 0.97700  0.72200  0.76500  Biso   1.000  H
  H350     1.0000 0.02300  0.72200  0.73500  Biso   1.000  H
  H351     1.0000 0.47700  0.22200  0.76500  Biso   1.000  H
  H352     1.0000 0.52300  0.22200  0.73500  Biso   1.000  H
  H353     1.0000 0.09730  0.17700  0.07030  Biso   1.000  H
  H354     1.0000 0.90270  0.17700  0.42970  Biso   1.000  H
  H355     1.0000 0.59730  0.67700  0.07030  Biso   1.000  H
  H356     1.0000 0.40270  0.67700  0.42970  Biso   1.000  H
  H357     1.0000 0.90270  0.82300  0.92970  Biso   1.000  H
  H358     1.0000 0.09730  0.82300  0.57030  Biso   1.000  H
  H359     1.0000 0.40270  0.32300  0.92970  Biso   1.000  H
  H360     1.0000 0.59730  0.32300  0.57030  Biso   1.000  H
  H361     1.0000 0.12760  0.20000  0.11510  Biso   1.000  H
  H362     1.0000 0.87240  0.20000  0.38490  Biso   1.000  H
  H363     1.0000 0.62760  0.70000  0.11510  Biso   1.000  H
  H364     1.0000 0.37240  0.70000  0.38490  Biso   1.000  H
  H365     1.0000 0.87240  0.80000  0.88490  Biso   1.000  H
  H366     1.0000 0.12760  0.80000  0.61510  Biso   1.000  H
  H367     1.0000 0.37240  0.30000  0.88490  Biso   1.000  H
  H368     1.0000 0.62760  0.30000  0.61510  Biso   1.000  H
  H369     1.0000 0.29690  0.78800  0.20510  Biso   1.000  H
  H370     1.0000 0.70310  0.78800  0.29490  Biso   1.000  H
  H371     1.0000 0.79690  0.28800  0.20510  Biso   1.000  H
  H372     1.0000 0.20310  0.28800  0.29490  Biso   1.000  H
  H373     1.0000 0.70310  0.21200  0.79490  Biso   1.000  H
  H374     1.0000 0.29690  0.21200  0.70510  Biso   1.000  H
  H375     1.0000 0.20310  0.71200  0.79490  Biso   1.000  H
  H376     1.0000 0.79690  0.71200  0.70510  Biso   1.000  H
  H377     1.0000 0.25350  0.83400  0.16930  Biso   1.000  H
  H378     1.0000 0.74650  0.83400  0.33070  Biso   1.000  H
  H379     1.0000 0.75350  0.33400  0.16930  Biso   1.000  H
  H380     1.0000 0.24650  0.33400  0.33070  Biso   1.000  H
  H381     1.0000 0.74650  0.16600  0.83070  Biso   1.000  H
  H382     1.0000 0.25350  0.16600  0.66930  Biso   1.000  H
  H383     1.0000 0.24650  0.66600  0.83070  Biso   1.000  H
  H384     1.0000 0.75350  0.66600  0.66930  Biso   1.000  H
