data_image0
_cell_length_a       27.405
_cell_length_b       27.405
_cell_length_c       39.362
_cell_angle_alpha    90
_cell_angle_beta     90
_cell_angle_gamma    90

_symmetry_space_group_name_H-M    "P 1"
_symmetry_int_tables_number       1

loop_
  _symmetry_equiv_pos_as_xyz
  'x, y, z'

loop_
  _atom_site_label
  _atom_site_occupancy
  _atom_site_fract_x
  _atom_site_fract_y
  _atom_site_fract_z
  _atom_site_thermal_displace_type
  _atom_site_B_iso_or_equiv
  _atom_site_type_symbol
  Cu1      1.0000 0.10971  0.25032  0.19556  Biso   1.000  Cu
  Cu2      1.0000 0.89029  0.74968  0.19556  Biso   1.000  Cu
  Cu3      1.0000 0.74968  0.10971  0.19556  Biso   1.000  Cu
  Cu4      1.0000 0.25032  0.89029  0.19556  Biso   1.000  Cu
  Cu5      1.0000 0.39029  0.75032  0.30444  Biso   1.000  Cu
  Cu6      1.0000 0.60971  0.24968  0.30444  Biso   1.000  Cu
  Cu7      1.0000 0.75032  0.60971  0.30444  Biso   1.000  Cu
  Cu8      1.0000 0.24968  0.39029  0.30444  Biso   1.000  Cu
  Cu9      1.0000 0.89029  0.74968  0.80444  Biso   1.000  Cu
  Cu10     1.0000 0.10971  0.25032  0.80444  Biso   1.000  Cu
  Cu11     1.0000 0.25032  0.89029  0.80444  Biso   1.000  Cu
  Cu12     1.0000 0.74968  0.10971  0.80444  Biso   1.000  Cu
  Cu13     1.0000 0.60971  0.24968  0.69556  Biso   1.000  Cu
  Cu14     1.0000 0.39029  0.75032  0.69556  Biso   1.000  Cu
  Cu15     1.0000 0.24968  0.39029  0.69556  Biso   1.000  Cu
  Cu16     1.0000 0.75032  0.60971  0.69556  Biso   1.000  Cu
  O1       1.0000 0.16908  0.24737  0.16564  Biso   1.000  O
  O2       1.0000 0.83092  0.75263  0.16564  Biso   1.000  O
  O3       1.0000 0.75263  0.16908  0.16564  Biso   1.000  O
  O4       1.0000 0.24737  0.83092  0.16564  Biso   1.000  O
  O5       1.0000 0.33092  0.74737  0.33436  Biso   1.000  O
  O6       1.0000 0.66908  0.25263  0.33436  Biso   1.000  O
  O7       1.0000 0.74737  0.66908  0.33436  Biso   1.000  O
  O8       1.0000 0.25263  0.33092  0.33436  Biso   1.000  O
  O9       1.0000 0.83092  0.75263  0.83436  Biso   1.000  O
  O10      1.0000 0.16908  0.24737  0.83436  Biso   1.000  O
  O11      1.0000 0.24737  0.83092  0.83436  Biso   1.000  O
  O12      1.0000 0.75263  0.16908  0.83436  Biso   1.000  O
  O13      1.0000 0.66908  0.25263  0.66564  Biso   1.000  O
  O14      1.0000 0.33092  0.74737  0.66564  Biso   1.000  O
  O15      1.0000 0.25263  0.33092  0.66564  Biso   1.000  O
  O16      1.0000 0.74737  0.66908  0.66564  Biso   1.000  O
  O17      1.0000 0.07971  0.29962  0.16647  Biso   1.000  O
  O18      1.0000 0.92029  0.70038  0.16647  Biso   1.000  O
  O19      1.0000 0.70038  0.07971  0.16647  Biso   1.000  O
  O20      1.0000 0.29962  0.92029  0.16647  Biso   1.000  O
  O21      1.0000 0.42029  0.79962  0.33353  Biso   1.000  O
  O22      1.0000 0.57971  0.20038  0.33353  Biso   1.000  O
  O23      1.0000 0.79962  0.57971  0.33353  Biso   1.000  O
  O24      1.0000 0.20038  0.42029  0.33353  Biso   1.000  O
  O25      1.0000 0.92029  0.70038  0.83353  Biso   1.000  O
  O26      1.0000 0.07971  0.29962  0.83353  Biso   1.000  O
  O27      1.0000 0.29962  0.92029  0.83353  Biso   1.000  O
  O28      1.0000 0.70038  0.07971  0.83353  Biso   1.000  O
  O29      1.0000 0.57971  0.20038  0.66647  Biso   1.000  O
  O30      1.0000 0.42029  0.79962  0.66647  Biso   1.000  O
  O31      1.0000 0.20038  0.42029  0.66647  Biso   1.000  O
  O32      1.0000 0.79962  0.57971  0.66647  Biso   1.000  O
  N1       1.0000 0.14876  0.29833  0.23027  Biso   1.000  N
  N2       1.0000 0.85124  0.70167  0.23027  Biso   1.000  N
  N3       1.0000 0.70167  0.14876  0.23027  Biso   1.000  N
  N4       1.0000 0.29833  0.85124  0.23027  Biso   1.000  N
  N5       1.0000 0.35124  0.79833  0.26973  Biso   1.000  N
  N6       1.0000 0.64876  0.20167  0.26973  Biso   1.000  N
  N7       1.0000 0.79833  0.64876  0.26973  Biso   1.000  N
  N8       1.0000 0.20167  0.35124  0.26973  Biso   1.000  N
  N9       1.0000 0.85124  0.70167  0.76973  Biso   1.000  N
  N10      1.0000 0.14876  0.29833  0.76973  Biso   1.000  N
  N11      1.0000 0.29833  0.85124  0.76973  Biso   1.000  N
  N12      1.0000 0.70167  0.14876  0.76973  Biso   1.000  N
  N13      1.0000 0.64876  0.20167  0.73027  Biso   1.000  N
  N14      1.0000 0.35124  0.79833  0.73027  Biso   1.000  N
  N15      1.0000 0.20167  0.35124  0.73027  Biso   1.000  N
  N16      1.0000 0.79833  0.64876  0.73027  Biso   1.000  N
  O33      1.0000 0.31010  0.36779  0.28308  Biso   1.000  O
  O34      1.0000 0.68990  0.63221  0.28308  Biso   1.000  O
  O35      1.0000 0.63221  0.31010  0.28308  Biso   1.000  O
  O36      1.0000 0.36779  0.68990  0.28308  Biso   1.000  O
  O37      1.0000 0.18990  0.86779  0.21692  Biso   1.000  O
  O38      1.0000 0.81010  0.13221  0.21692  Biso   1.000  O
  O39      1.0000 0.86779  0.81010  0.21692  Biso   1.000  O
  O40      1.0000 0.13221  0.18990  0.21692  Biso   1.000  O
  O41      1.0000 0.68990  0.63221  0.71692  Biso   1.000  O
  O42      1.0000 0.31010  0.36779  0.71692  Biso   1.000  O
  O43      1.0000 0.36779  0.68990  0.71692  Biso   1.000  O
  O44      1.0000 0.63221  0.31010  0.71692  Biso   1.000  O
  O45      1.0000 0.81010  0.13221  0.78308  Biso   1.000  O
  O46      1.0000 0.18990  0.86779  0.78308  Biso   1.000  O
  O47      1.0000 0.13221  0.18990  0.78308  Biso   1.000  O
  O48      1.0000 0.86779  0.81010  0.78308  Biso   1.000  O
  O49      1.0000 0.54582  0.25977  0.28156  Biso   1.000  O
  O50      1.0000 0.45418  0.74023  0.28156  Biso   1.000  O
  O51      1.0000 0.74023  0.54582  0.28156  Biso   1.000  O
  O52      1.0000 0.25977  0.45418  0.28156  Biso   1.000  O
  O53      1.0000 0.95418  0.75977  0.21844  Biso   1.000  O
  O54      1.0000 0.04582  0.24023  0.21844  Biso   1.000  O
  O55      1.0000 0.75977  0.04582  0.21844  Biso   1.000  O
  O56      1.0000 0.24023  0.95418  0.21844  Biso   1.000  O
  O57      1.0000 0.45418  0.74023  0.71844  Biso   1.000  O
  O58      1.0000 0.54582  0.25977  0.71844  Biso   1.000  O
  O59      1.0000 0.25977  0.45418  0.71844  Biso   1.000  O
  O60      1.0000 0.74023  0.54582  0.71844  Biso   1.000  O
  O61      1.0000 0.04582  0.24023  0.78156  Biso   1.000  O
  O62      1.0000 0.95418  0.75977  0.78156  Biso   1.000  O
  O63      1.0000 0.24023  0.95418  0.78156  Biso   1.000  O
  O64      1.0000 0.75977  0.04582  0.78156  Biso   1.000  O
  C1       1.0000 0.17603  0.22284  0.13957  Biso   1.000  C
  C2       1.0000 0.82397  0.77716  0.13957  Biso   1.000  C
  C3       1.0000 0.77716  0.17603  0.13957  Biso   1.000  C
  C4       1.0000 0.22284  0.82397  0.13957  Biso   1.000  C
  C5       1.0000 0.32397  0.72284  0.36043  Biso   1.000  C
  C6       1.0000 0.67603  0.27716  0.36043  Biso   1.000  C
  C7       1.0000 0.72284  0.67603  0.36043  Biso   1.000  C
  C8       1.0000 0.27716  0.32397  0.36043  Biso   1.000  C
  C9       1.0000 0.82397  0.77716  0.86043  Biso   1.000  C
  C10      1.0000 0.17603  0.22284  0.86043  Biso   1.000  C
  C11      1.0000 0.22284  0.82397  0.86043  Biso   1.000  C
  C12      1.0000 0.77716  0.17603  0.86043  Biso   1.000  C
  C13      1.0000 0.67603  0.27716  0.63957  Biso   1.000  C
  C14      1.0000 0.32397  0.72284  0.63957  Biso   1.000  C
  C15      1.0000 0.27716  0.32397  0.63957  Biso   1.000  C
  C16      1.0000 0.72284  0.67603  0.63957  Biso   1.000  C
  C17      1.0000 0.05662  0.28767  0.14031  Biso   1.000  C
  C18      1.0000 0.94338  0.71233  0.14031  Biso   1.000  C
  C19      1.0000 0.71233  0.05662  0.14031  Biso   1.000  C
  C20      1.0000 0.28767  0.94338  0.14031  Biso   1.000  C
  C21      1.0000 0.44338  0.78767  0.35969  Biso   1.000  C
  C22      1.0000 0.55662  0.21233  0.35969  Biso   1.000  C
  C23      1.0000 0.78767  0.55662  0.35969  Biso   1.000  C
  C24      1.0000 0.21233  0.44338  0.35969  Biso   1.000  C
  C25      1.0000 0.94338  0.71233  0.85969  Biso   1.000  C
  C26      1.0000 0.05662  0.28767  0.85969  Biso   1.000  C
  C27      1.0000 0.28767  0.94338  0.85969  Biso   1.000  C
  C28      1.0000 0.71233  0.05662  0.85969  Biso   1.000  C
  C29      1.0000 0.55662  0.21233  0.64031  Biso   1.000  C
  C30      1.0000 0.44338  0.78767  0.64031  Biso   1.000  C
  C31      1.0000 0.21233  0.44338  0.64031  Biso   1.000  C
  C32      1.0000 0.78767  0.55662  0.64031  Biso   1.000  C
  C33      1.0000 0.19363  0.27240  0.24031  Biso   1.000  C
  C34      1.0000 0.80637  0.72760  0.24031  Biso   1.000  C
  C35      1.0000 0.72760  0.19363  0.24031  Biso   1.000  C
  C36      1.0000 0.27240  0.80637  0.24031  Biso   1.000  C
  C37      1.0000 0.30637  0.77240  0.25969  Biso   1.000  C
  C38      1.0000 0.69363  0.22760  0.25969  Biso   1.000  C
  C39      1.0000 0.77240  0.69363  0.25969  Biso   1.000  C
  C40      1.0000 0.22760  0.30637  0.25969  Biso   1.000  C
  C41      1.0000 0.80637  0.72760  0.75969  Biso   1.000  C
  C42      1.0000 0.19363  0.27240  0.75969  Biso   1.000  C
  C43      1.0000 0.27240  0.80637  0.75969  Biso   1.000  C
  C44      1.0000 0.72760  0.19363  0.75969  Biso   1.000  C
  C45      1.0000 0.69363  0.22760  0.74031  Biso   1.000  C
  C46      1.0000 0.30637  0.77240  0.74031  Biso   1.000  C
  C47      1.0000 0.22760  0.30637  0.74031  Biso   1.000  C
  C48      1.0000 0.77240  0.69363  0.74031  Biso   1.000  C
  C49      1.0000 0.12320  0.30920  0.26119  Biso   1.000  C
  C50      1.0000 0.87680  0.69080  0.26119  Biso   1.000  C
  C51      1.0000 0.69080  0.12320  0.26119  Biso   1.000  C
  C52      1.0000 0.30920  0.87680  0.26119  Biso   1.000  C
  C53      1.0000 0.37680  0.80920  0.23881  Biso   1.000  C
  C54      1.0000 0.62320  0.19080  0.23881  Biso   1.000  C
  C55      1.0000 0.80920  0.62320  0.23881  Biso   1.000  C
  C56      1.0000 0.19080  0.37680  0.23881  Biso   1.000  C
  C57      1.0000 0.87680  0.69080  0.73881  Biso   1.000  C
  C58      1.0000 0.12320  0.30920  0.73881  Biso   1.000  C
  C59      1.0000 0.30920  0.87680  0.73881  Biso   1.000  C
  C60      1.0000 0.69080  0.12320  0.73881  Biso   1.000  C
  C61      1.0000 0.62320  0.19080  0.76119  Biso   1.000  C
  C62      1.0000 0.37680  0.80920  0.76119  Biso   1.000  C
  C63      1.0000 0.19080  0.37680  0.76119  Biso   1.000  C
  C64      1.0000 0.80920  0.62320  0.76119  Biso   1.000  C
  C65      1.0000 0.16290  0.34382  0.21387  Biso   1.000  C
  C66      1.0000 0.83710  0.65618  0.21387  Biso   1.000  C
  C67      1.0000 0.65618  0.16290  0.21387  Biso   1.000  C
  C68      1.0000 0.34382  0.83710  0.21387  Biso   1.000  C
  C69      1.0000 0.33710  0.84382  0.28613  Biso   1.000  C
  C70      1.0000 0.66290  0.15618  0.28613  Biso   1.000  C
  C71      1.0000 0.84382  0.66290  0.28613  Biso   1.000  C
  C72      1.0000 0.15618  0.33710  0.28613  Biso   1.000  C
  C73      1.0000 0.83710  0.65618  0.78613  Biso   1.000  C
  C74      1.0000 0.16290  0.34382  0.78613  Biso   1.000  C
  C75      1.0000 0.34382  0.83710  0.78613  Biso   1.000  C
  C76      1.0000 0.65618  0.16290  0.78613  Biso   1.000  C
  C77      1.0000 0.66290  0.15618  0.71387  Biso   1.000  C
  C78      1.0000 0.33710  0.84382  0.71387  Biso   1.000  C
  C79      1.0000 0.15618  0.33710  0.71387  Biso   1.000  C
  C80      1.0000 0.84382  0.66290  0.71387  Biso   1.000  C
  O65      1.0000 0.14360  0.19845  0.12450  Biso   1.000  O
  O66      1.0000 0.85640  0.80155  0.12450  Biso   1.000  O
  O67      1.0000 0.80155  0.14360  0.12450  Biso   1.000  O
  O68      1.0000 0.19845  0.85640  0.12450  Biso   1.000  O
  O69      1.0000 0.35640  0.69845  0.37550  Biso   1.000  O
  O70      1.0000 0.64360  0.30155  0.37550  Biso   1.000  O
  O71      1.0000 0.69845  0.64360  0.37550  Biso   1.000  O
  O72      1.0000 0.30155  0.35640  0.37550  Biso   1.000  O
  O73      1.0000 0.85640  0.80155  0.87550  Biso   1.000  O
  O74      1.0000 0.14360  0.19845  0.87550  Biso   1.000  O
  O75      1.0000 0.19845  0.85640  0.87550  Biso   1.000  O
  O76      1.0000 0.80155  0.14360  0.87550  Biso   1.000  O
  O77      1.0000 0.64360  0.30155  0.62450  Biso   1.000  O
  O78      1.0000 0.35640  0.69845  0.62450  Biso   1.000  O
  O79      1.0000 0.30155  0.35640  0.62450  Biso   1.000  O
  O80      1.0000 0.69845  0.64360  0.62450  Biso   1.000  O
  C81      1.0000 0.22729  0.22084  0.12560  Biso   1.000  C
  C82      1.0000 0.77271  0.77916  0.12560  Biso   1.000  C
  C83      1.0000 0.77916  0.22729  0.12560  Biso   1.000  C
  C84      1.0000 0.22084  0.77271  0.12560  Biso   1.000  C
  C85      1.0000 0.27271  0.72084  0.37440  Biso   1.000  C
  C86      1.0000 0.72729  0.27916  0.37440  Biso   1.000  C
  C87      1.0000 0.72084  0.72729  0.37440  Biso   1.000  C
  C88      1.0000 0.27916  0.27271  0.37440  Biso   1.000  C
  C89      1.0000 0.77271  0.77916  0.87440  Biso   1.000  C
  C90      1.0000 0.22729  0.22084  0.87440  Biso   1.000  C
  C91      1.0000 0.22084  0.77271  0.87440  Biso   1.000  C
  C92      1.0000 0.77916  0.22729  0.87440  Biso   1.000  C
  C93      1.0000 0.72729  0.27916  0.62560  Biso   1.000  C
  C94      1.0000 0.27271  0.72084  0.62560  Biso   1.000  C
  C95      1.0000 0.27916  0.27271  0.62560  Biso   1.000  C
  C96      1.0000 0.72084  0.72729  0.62560  Biso   1.000  C
  O81      1.0000 0.05350  0.24533  0.12807  Biso   1.000  O
  O82      1.0000 0.94650  0.75467  0.12807  Biso   1.000  O
  O83      1.0000 0.75467  0.05350  0.12807  Biso   1.000  O
  O84      1.0000 0.24533  0.94650  0.12807  Biso   1.000  O
  O85      1.0000 0.44650  0.74533  0.37193  Biso   1.000  O
  O86      1.0000 0.55350  0.25467  0.37193  Biso   1.000  O
  O87      1.0000 0.74533  0.55350  0.37193  Biso   1.000  O
  O88      1.0000 0.25467  0.44650  0.37193  Biso   1.000  O
  O89      1.0000 0.94650  0.75467  0.87193  Biso   1.000  O
  O90      1.0000 0.05350  0.24533  0.87193  Biso   1.000  O
  O91      1.0000 0.24533  0.94650  0.87193  Biso   1.000  O
  O92      1.0000 0.75467  0.05350  0.87193  Biso   1.000  O
  O93      1.0000 0.55350  0.25467  0.62807  Biso   1.000  O
  O94      1.0000 0.44650  0.74533  0.62807  Biso   1.000  O
  O95      1.0000 0.25467  0.44650  0.62807  Biso   1.000  O
  O96      1.0000 0.74533  0.55350  0.62807  Biso   1.000  O
  C97      1.0000 0.02968  0.32693  0.12160  Biso   1.000  C
  C98      1.0000 0.97032  0.67307  0.12160  Biso   1.000  C
  C99      1.0000 0.67307  0.02968  0.12160  Biso   1.000  C
  C100     1.0000 0.32693  0.97032  0.12160  Biso   1.000  C
  C101     1.0000 0.47032  0.82693  0.37840  Biso   1.000  C
  C102     1.0000 0.52968  0.17307  0.37840  Biso   1.000  C
  C103     1.0000 0.82693  0.52968  0.37840  Biso   1.000  C
  C104     1.0000 0.17307  0.47032  0.37840  Biso   1.000  C
  C105     1.0000 0.97032  0.67307  0.87840  Biso   1.000  C
  C106     1.0000 0.02968  0.32693  0.87840  Biso   1.000  C
  C107     1.0000 0.32693  0.97032  0.87840  Biso   1.000  C
  C108     1.0000 0.67307  0.02968  0.87840  Biso   1.000  C
  C109     1.0000 0.52968  0.17307  0.62160  Biso   1.000  C
  C110     1.0000 0.47032  0.82693  0.62160  Biso   1.000  C
  C111     1.0000 0.17307  0.47032  0.62160  Biso   1.000  C
  C112     1.0000 0.82693  0.52968  0.62160  Biso   1.000  C
  H1       1.0000 0.21010  0.26020  0.22020  Biso   1.000  H
  H2       1.0000 0.78990  0.73980  0.22020  Biso   1.000  H
  H3       1.0000 0.73980  0.21010  0.22020  Biso   1.000  H
  H4       1.0000 0.26020  0.78990  0.22020  Biso   1.000  H
  H5       1.0000 0.28990  0.76020  0.27980  Biso   1.000  H
  H6       1.0000 0.71010  0.23980  0.27980  Biso   1.000  H
  H7       1.0000 0.76020  0.71010  0.27980  Biso   1.000  H
  H8       1.0000 0.23980  0.28990  0.27980  Biso   1.000  H
  H9       1.0000 0.78990  0.73980  0.77980  Biso   1.000  H
  H10      1.0000 0.21010  0.26020  0.77980  Biso   1.000  H
  H11      1.0000 0.26020  0.78990  0.77980  Biso   1.000  H
  H12      1.0000 0.73980  0.21010  0.77980  Biso   1.000  H
  H13      1.0000 0.71010  0.23980  0.72020  Biso   1.000  H
  H14      1.0000 0.28990  0.76020  0.72020  Biso   1.000  H
  H15      1.0000 0.23980  0.28990  0.72020  Biso   1.000  H
  H16      1.0000 0.76020  0.71010  0.72020  Biso   1.000  H
  H17      1.0000 0.18530  0.24470  0.25450  Biso   1.000  H
  H18      1.0000 0.81470  0.75530  0.25450  Biso   1.000  H
  H19      1.0000 0.75530  0.18530  0.25450  Biso   1.000  H
  H20      1.0000 0.24470  0.81470  0.25450  Biso   1.000  H
  H21      1.0000 0.31470  0.74470  0.24550  Biso   1.000  H
  H22      1.0000 0.68530  0.25530  0.24550  Biso   1.000  H
  H23      1.0000 0.74470  0.68530  0.24550  Biso   1.000  H
  H24      1.0000 0.25530  0.31470  0.24550  Biso   1.000  H
  H25      1.0000 0.81470  0.75530  0.74550  Biso   1.000  H
  H26      1.0000 0.18530  0.24470  0.74550  Biso   1.000  H
  H27      1.0000 0.24470  0.81470  0.74550  Biso   1.000  H
  H28      1.0000 0.75530  0.18530  0.74550  Biso   1.000  H
  H29      1.0000 0.68530  0.25530  0.75450  Biso   1.000  H
  H30      1.0000 0.31470  0.74470  0.75450  Biso   1.000  H
  H31      1.0000 0.25530  0.31470  0.75450  Biso   1.000  H
  H32      1.0000 0.74470  0.68530  0.75450  Biso   1.000  H
  H33      1.0000 0.11230  0.27900  0.27160  Biso   1.000  H
  H34      1.0000 0.88770  0.72100  0.27160  Biso   1.000  H
  H35      1.0000 0.72100  0.11230  0.27160  Biso   1.000  H
  H36      1.0000 0.27900  0.88770  0.27160  Biso   1.000  H
  H37      1.0000 0.38770  0.77900  0.22840  Biso   1.000  H
  H38      1.0000 0.61230  0.22100  0.22840  Biso   1.000  H
  H39      1.0000 0.77900  0.61230  0.22840  Biso   1.000  H
  H40      1.0000 0.22100  0.38770  0.22840  Biso   1.000  H
  H41      1.0000 0.88770  0.72100  0.72840  Biso   1.000  H
  H42      1.0000 0.11230  0.27900  0.72840  Biso   1.000  H
  H43      1.0000 0.27900  0.88770  0.72840  Biso   1.000  H
  H44      1.0000 0.72100  0.11230  0.72840  Biso   1.000  H
  H45      1.0000 0.61230  0.22100  0.77160  Biso   1.000  H
  H46      1.0000 0.38770  0.77900  0.77160  Biso   1.000  H
  H47      1.0000 0.22100  0.38770  0.77160  Biso   1.000  H
  H48      1.0000 0.77900  0.61230  0.77160  Biso   1.000  H
  H49      1.0000 0.09460  0.32870  0.25610  Biso   1.000  H
  H50      1.0000 0.90540  0.67130  0.25610  Biso   1.000  H
  H51      1.0000 0.67130  0.09460  0.25610  Biso   1.000  H
  H52      1.0000 0.32870  0.90540  0.25610  Biso   1.000  H
  H53      1.0000 0.40540  0.82870  0.24390  Biso   1.000  H
  H54      1.0000 0.59460  0.17130  0.24390  Biso   1.000  H
  H55      1.0000 0.82870  0.59460  0.24390  Biso   1.000  H
  H56      1.0000 0.17130  0.40540  0.24390  Biso   1.000  H
  H57      1.0000 0.90540  0.67130  0.74390  Biso   1.000  H
  H58      1.0000 0.09460  0.32870  0.74390  Biso   1.000  H
  H59      1.0000 0.32870  0.90540  0.74390  Biso   1.000  H
  H60      1.0000 0.67130  0.09460  0.74390  Biso   1.000  H
  H61      1.0000 0.59460  0.17130  0.75610  Biso   1.000  H
  H62      1.0000 0.40540  0.82870  0.75610  Biso   1.000  H
  H63      1.0000 0.17130  0.40540  0.75610  Biso   1.000  H
  H64      1.0000 0.82870  0.59460  0.75610  Biso   1.000  H
  H65      1.0000 0.13400  0.36070  0.20590  Biso   1.000  H
  H66      1.0000 0.86600  0.63930  0.20590  Biso   1.000  H
  H67      1.0000 0.63930  0.13400  0.20590  Biso   1.000  H
  H68      1.0000 0.36070  0.86600  0.20590  Biso   1.000  H
  H69      1.0000 0.36600  0.86070  0.29410  Biso   1.000  H
  H70      1.0000 0.63400  0.13930  0.29410  Biso   1.000  H
  H71      1.0000 0.86070  0.63400  0.29410  Biso   1.000  H
  H72      1.0000 0.13930  0.36600  0.29410  Biso   1.000  H
  H73      1.0000 0.86600  0.63930  0.79410  Biso   1.000  H
  H74      1.0000 0.13400  0.36070  0.79410  Biso   1.000  H
  H75      1.0000 0.36070  0.86600  0.79410  Biso   1.000  H
  H76      1.0000 0.63930  0.13400  0.79410  Biso   1.000  H
  H77      1.0000 0.63400  0.13930  0.70590  Biso   1.000  H
  H78      1.0000 0.36600  0.86070  0.70590  Biso   1.000  H
  H79      1.0000 0.13930  0.36600  0.70590  Biso   1.000  H
  H80      1.0000 0.86070  0.63400  0.70590  Biso   1.000  H
  H81      1.0000 0.18340  0.33680  0.19440  Biso   1.000  H
  H82      1.0000 0.81660  0.66320  0.19440  Biso   1.000  H
  H83      1.0000 0.66320  0.18340  0.19440  Biso   1.000  H
  H84      1.0000 0.33680  0.81660  0.19440  Biso   1.000  H
  H85      1.0000 0.31660  0.83680  0.30560  Biso   1.000  H
  H86      1.0000 0.68340  0.16320  0.30560  Biso   1.000  H
  H87      1.0000 0.83680  0.68340  0.30560  Biso   1.000  H
  H88      1.0000 0.16320  0.31660  0.30560  Biso   1.000  H
  H89      1.0000 0.81660  0.66320  0.80560  Biso   1.000  H
  H90      1.0000 0.18340  0.33680  0.80560  Biso   1.000  H
  H91      1.0000 0.33680  0.81660  0.80560  Biso   1.000  H
  H92      1.0000 0.66320  0.18340  0.80560  Biso   1.000  H
  H93      1.0000 0.68340  0.16320  0.69440  Biso   1.000  H
  H94      1.0000 0.31660  0.83680  0.69440  Biso   1.000  H
  H95      1.0000 0.16320  0.31660  0.69440  Biso   1.000  H
  H96      1.0000 0.83680  0.68340  0.69440  Biso   1.000  H
  O97      1.0000 0.36290  0.38405  0.32484  Biso   1.000  O
  O98      1.0000 0.63710  0.61595  0.32484  Biso   1.000  O
  O99      1.0000 0.61595  0.36290  0.32484  Biso   1.000  O
  O100     1.0000 0.38405  0.63710  0.32484  Biso   1.000  O
  O101     1.0000 0.13710  0.88405  0.17516  Biso   1.000  O
  O102     1.0000 0.86290  0.11595  0.17516  Biso   1.000  O
  O103     1.0000 0.88405  0.86290  0.17516  Biso   1.000  O
  O104     1.0000 0.11595  0.13710  0.17516  Biso   1.000  O
  O105     1.0000 0.63710  0.61595  0.67516  Biso   1.000  O
  O106     1.0000 0.36290  0.38405  0.67516  Biso   1.000  O
  O107     1.0000 0.38405  0.63710  0.67516  Biso   1.000  O
  O108     1.0000 0.61595  0.36290  0.67516  Biso   1.000  O
  O109     1.0000 0.86290  0.11595  0.82484  Biso   1.000  O
  O110     1.0000 0.13710  0.88405  0.82484  Biso   1.000  O
  O111     1.0000 0.11595  0.13710  0.82484  Biso   1.000  O
  O112     1.0000 0.88405  0.86290  0.82484  Biso   1.000  O
  O113     1.0000 0.52572  0.31709  0.31982  Biso   1.000  O
  O114     1.0000 0.47428  0.68291  0.31982  Biso   1.000  O
  O115     1.0000 0.68291  0.52572  0.31982  Biso   1.000  O
  O116     1.0000 0.31709  0.47428  0.31982  Biso   1.000  O
  O117     1.0000 0.97428  0.81709  0.18018  Biso   1.000  O
  O118     1.0000 0.02572  0.18291  0.18018  Biso   1.000  O
  O119     1.0000 0.81709  0.02572  0.18018  Biso   1.000  O
  O120     1.0000 0.18291  0.97428  0.18018  Biso   1.000  O
  O121     1.0000 0.47428  0.68291  0.68018  Biso   1.000  O
  O122     1.0000 0.52572  0.31709  0.68018  Biso   1.000  O
  O123     1.0000 0.31709  0.47428  0.68018  Biso   1.000  O
  O124     1.0000 0.68291  0.52572  0.68018  Biso   1.000  O
  O125     1.0000 0.02572  0.18291  0.81982  Biso   1.000  O
  O126     1.0000 0.97428  0.81709  0.81982  Biso   1.000  O
  O127     1.0000 0.18291  0.97428  0.81982  Biso   1.000  O
  O128     1.0000 0.81709  0.02572  0.81982  Biso   1.000  O
  Cu17     1.0000 0.08148  0.18652  0.14841  Biso   1.000  Cu
  Cu18     1.0000 0.91852  0.81348  0.14841  Biso   1.000  Cu
  Cu19     1.0000 0.81348  0.08148  0.14841  Biso   1.000  Cu
  Cu20     1.0000 0.18652  0.91852  0.14841  Biso   1.000  Cu
  Cu21     1.0000 0.41852  0.68652  0.35159  Biso   1.000  Cu
  Cu22     1.0000 0.58148  0.31348  0.35159  Biso   1.000  Cu
  Cu23     1.0000 0.68652  0.58148  0.35159  Biso   1.000  Cu
  Cu24     1.0000 0.31348  0.41852  0.35159  Biso   1.000  Cu
  Cu25     1.0000 0.91852  0.81348  0.85159  Biso   1.000  Cu
  Cu26     1.0000 0.08148  0.18652  0.85159  Biso   1.000  Cu
  Cu27     1.0000 0.18652  0.91852  0.85159  Biso   1.000  Cu
  Cu28     1.0000 0.81348  0.08148  0.85159  Biso   1.000  Cu
  Cu29     1.0000 0.58148  0.31348  0.64841  Biso   1.000  Cu
  Cu30     1.0000 0.41852  0.68652  0.64841  Biso   1.000  Cu
  Cu31     1.0000 0.31348  0.41852  0.64841  Biso   1.000  Cu
  Cu32     1.0000 0.68652  0.58148  0.64841  Biso   1.000  Cu
  C113     1.0000 0.26683  0.23699  0.14503  Biso   1.000  C
  C114     1.0000 0.73317  0.76301  0.14503  Biso   1.000  C
  C115     1.0000 0.76301  0.26683  0.14503  Biso   1.000  C
  C116     1.0000 0.23699  0.73317  0.14503  Biso   1.000  C
  C117     1.0000 0.23317  0.73699  0.35497  Biso   1.000  C
  C118     1.0000 0.76683  0.26301  0.35497  Biso   1.000  C
  C119     1.0000 0.73699  0.76683  0.35497  Biso   1.000  C
  C120     1.0000 0.26301  0.23317  0.35497  Biso   1.000  C
  C121     1.0000 0.73317  0.76301  0.85497  Biso   1.000  C
  C122     1.0000 0.26683  0.23699  0.85497  Biso   1.000  C
  C123     1.0000 0.23699  0.73317  0.85497  Biso   1.000  C
  C124     1.0000 0.76301  0.26683  0.85497  Biso   1.000  C
  C125     1.0000 0.76683  0.26301  0.64503  Biso   1.000  C
  C126     1.0000 0.23317  0.73699  0.64503  Biso   1.000  C
  C127     1.0000 0.26301  0.23317  0.64503  Biso   1.000  C
  C128     1.0000 0.73699  0.76683  0.64503  Biso   1.000  C
  C129     1.0000 0.23581  0.19983  0.09385  Biso   1.000  C
  C130     1.0000 0.76419  0.80017  0.09385  Biso   1.000  C
  C131     1.0000 0.80017  0.23581  0.09385  Biso   1.000  C
  C132     1.0000 0.19983  0.76419  0.09385  Biso   1.000  C
  C133     1.0000 0.26419  0.69983  0.40615  Biso   1.000  C
  C134     1.0000 0.73581  0.30017  0.40615  Biso   1.000  C
  C135     1.0000 0.69983  0.73581  0.40615  Biso   1.000  C
  C136     1.0000 0.30017  0.26419  0.40615  Biso   1.000  C
  C137     1.0000 0.76419  0.80017  0.90615  Biso   1.000  C
  C138     1.0000 0.23581  0.19983  0.90615  Biso   1.000  C
  C139     1.0000 0.19983  0.76419  0.90615  Biso   1.000  C
  C140     1.0000 0.80017  0.23581  0.90615  Biso   1.000  C
  C141     1.0000 0.73581  0.30017  0.59385  Biso   1.000  C
  C142     1.0000 0.26419  0.69983  0.59385  Biso   1.000  C
  C143     1.0000 0.30017  0.26419  0.59385  Biso   1.000  C
  C144     1.0000 0.69983  0.73581  0.59385  Biso   1.000  C
  C145     1.0000 0.02956  0.37451  0.13407  Biso   1.000  C
  C146     1.0000 0.97044  0.62549  0.13407  Biso   1.000  C
  C147     1.0000 0.62549  0.02956  0.13407  Biso   1.000  C
  C148     1.0000 0.37451  0.97044  0.13407  Biso   1.000  C
  C149     1.0000 0.47044  0.87451  0.36593  Biso   1.000  C
  C150     1.0000 0.52956  0.12549  0.36593  Biso   1.000  C
  C151     1.0000 0.87451  0.52956  0.36593  Biso   1.000  C
  C152     1.0000 0.12549  0.47044  0.36593  Biso   1.000  C
  C153     1.0000 0.97044  0.62549  0.86593  Biso   1.000  C
  C154     1.0000 0.02956  0.37451  0.86593  Biso   1.000  C
  C155     1.0000 0.37451  0.97044  0.86593  Biso   1.000  C
  C156     1.0000 0.62549  0.02956  0.86593  Biso   1.000  C
  C157     1.0000 0.52956  0.12549  0.63407  Biso   1.000  C
  C158     1.0000 0.47044  0.87451  0.63407  Biso   1.000  C
  C159     1.0000 0.12549  0.47044  0.63407  Biso   1.000  C
  C160     1.0000 0.87451  0.52956  0.63407  Biso   1.000  C
  C161     1.0000 0.00296  0.31559  0.09256  Biso   1.000  C
  C162     1.0000 0.99704  0.68441  0.09256  Biso   1.000  C
  C163     1.0000 0.68441  0.00296  0.09256  Biso   1.000  C
  C164     1.0000 0.31559  0.99704  0.09256  Biso   1.000  C
  C165     1.0000 0.49704  0.81559  0.40744  Biso   1.000  C
  C166     1.0000 0.50296  0.18441  0.40744  Biso   1.000  C
  C167     1.0000 0.81559  0.50296  0.40744  Biso   1.000  C
  C168     1.0000 0.18441  0.49704  0.40744  Biso   1.000  C
  C169     1.0000 0.99704  0.68441  0.90744  Biso   1.000  C
  C170     1.0000 0.00296  0.31559  0.90744  Biso   1.000  C
  C171     1.0000 0.31559  0.99704  0.90744  Biso   1.000  C
  C172     1.0000 0.68441  0.00296  0.90744  Biso   1.000  C
  C173     1.0000 0.50296  0.18441  0.59256  Biso   1.000  C
  C174     1.0000 0.49704  0.81559  0.59256  Biso   1.000  C
  C175     1.0000 0.18441  0.49704  0.59256  Biso   1.000  C
  C176     1.0000 0.81559  0.50296  0.59256  Biso   1.000  C
  O129     1.0000 0.04649  0.14033  0.11186  Biso   1.000  O
  O130     1.0000 0.95351  0.85967  0.11186  Biso   1.000  O
  O131     1.0000 0.85967  0.04649  0.11186  Biso   1.000  O
  O132     1.0000 0.14033  0.95351  0.11186  Biso   1.000  O
  O133     1.0000 0.45351  0.64033  0.38814  Biso   1.000  O
  O134     1.0000 0.54649  0.35967  0.38814  Biso   1.000  O
  O135     1.0000 0.64033  0.54649  0.38814  Biso   1.000  O
  O136     1.0000 0.35967  0.45351  0.38814  Biso   1.000  O
  O137     1.0000 0.95351  0.85967  0.88814  Biso   1.000  O
  O138     1.0000 0.04649  0.14033  0.88814  Biso   1.000  O
  O139     1.0000 0.14033  0.95351  0.88814  Biso   1.000  O
  O140     1.0000 0.85967  0.04649  0.88814  Biso   1.000  O
  O141     1.0000 0.54649  0.35967  0.61186  Biso   1.000  O
  O142     1.0000 0.45351  0.64033  0.61186  Biso   1.000  O
  O143     1.0000 0.35967  0.45351  0.61186  Biso   1.000  O
  O144     1.0000 0.64033  0.54649  0.61186  Biso   1.000  O
  C177     1.0000 0.31406  0.23196  0.13323  Biso   1.000  C
  C178     1.0000 0.68594  0.76804  0.13323  Biso   1.000  C
  C179     1.0000 0.76804  0.31406  0.13323  Biso   1.000  C
  C180     1.0000 0.23196  0.68594  0.13323  Biso   1.000  C
  C181     1.0000 0.18594  0.73196  0.36677  Biso   1.000  C
  C182     1.0000 0.81406  0.26804  0.36677  Biso   1.000  C
  C183     1.0000 0.73196  0.81406  0.36677  Biso   1.000  C
  C184     1.0000 0.26804  0.18594  0.36677  Biso   1.000  C
  C185     1.0000 0.68594  0.76804  0.86677  Biso   1.000  C
  C186     1.0000 0.31406  0.23196  0.86677  Biso   1.000  C
  C187     1.0000 0.23196  0.68594  0.86677  Biso   1.000  C
  C188     1.0000 0.76804  0.31406  0.86677  Biso   1.000  C
  C189     1.0000 0.81406  0.26804  0.63323  Biso   1.000  C
  C190     1.0000 0.18594  0.73196  0.63323  Biso   1.000  C
  C191     1.0000 0.26804  0.18594  0.63323  Biso   1.000  C
  C192     1.0000 0.73196  0.81406  0.63323  Biso   1.000  C
  H97      1.0000 0.26130  0.25130  0.16610  Biso   1.000  H
  H98      1.0000 0.73870  0.74870  0.16610  Biso   1.000  H
  H99      1.0000 0.74870  0.26130  0.16610  Biso   1.000  H
  H100     1.0000 0.25130  0.73870  0.16610  Biso   1.000  H
  H101     1.0000 0.23870  0.75130  0.33390  Biso   1.000  H
  H102     1.0000 0.76130  0.24870  0.33390  Biso   1.000  H
  H103     1.0000 0.75130  0.76130  0.33390  Biso   1.000  H
  H104     1.0000 0.24870  0.23870  0.33390  Biso   1.000  H
  H105     1.0000 0.73870  0.74870  0.83390  Biso   1.000  H
  H106     1.0000 0.26130  0.25130  0.83390  Biso   1.000  H
  H107     1.0000 0.25130  0.73870  0.83390  Biso   1.000  H
  H108     1.0000 0.74870  0.26130  0.83390  Biso   1.000  H
  H109     1.0000 0.76130  0.24870  0.66610  Biso   1.000  H
  H110     1.0000 0.23870  0.75130  0.66610  Biso   1.000  H
  H111     1.0000 0.24870  0.23870  0.66610  Biso   1.000  H
  H112     1.0000 0.75130  0.76130  0.66610  Biso   1.000  H
  H113     1.0000 0.20970  0.18850  0.08100  Biso   1.000  H
  H114     1.0000 0.79030  0.81150  0.08100  Biso   1.000  H
  H115     1.0000 0.81150  0.20970  0.08100  Biso   1.000  H
  H116     1.0000 0.18850  0.79030  0.08100  Biso   1.000  H
  H117     1.0000 0.29030  0.68850  0.41900  Biso   1.000  H
  H118     1.0000 0.70970  0.31150  0.41900  Biso   1.000  H
  H119     1.0000 0.68850  0.70970  0.41900  Biso   1.000  H
  H120     1.0000 0.31150  0.29030  0.41900  Biso   1.000  H
  H121     1.0000 0.79030  0.81150  0.91900  Biso   1.000  H
  H122     1.0000 0.20970  0.18850  0.91900  Biso   1.000  H
  H123     1.0000 0.18850  0.79030  0.91900  Biso   1.000  H
  H124     1.0000 0.81150  0.20970  0.91900  Biso   1.000  H
  H125     1.0000 0.70970  0.31150  0.58100  Biso   1.000  H
  H126     1.0000 0.29030  0.68850  0.58100  Biso   1.000  H
  H127     1.0000 0.31150  0.29030  0.58100  Biso   1.000  H
  H128     1.0000 0.68850  0.70970  0.58100  Biso   1.000  H
  C193     1.0000 0.28289  0.19581  0.08148  Biso   1.000  C
  C194     1.0000 0.71711  0.80419  0.08148  Biso   1.000  C
  C195     1.0000 0.80419  0.28289  0.08148  Biso   1.000  C
  C196     1.0000 0.19581  0.71711  0.08148  Biso   1.000  C
  C197     1.0000 0.21711  0.69581  0.41852  Biso   1.000  C
  C198     1.0000 0.78289  0.30419  0.41852  Biso   1.000  C
  C199     1.0000 0.69581  0.78289  0.41852  Biso   1.000  C
  C200     1.0000 0.30419  0.21711  0.41852  Biso   1.000  C
  C201     1.0000 0.71711  0.80419  0.91852  Biso   1.000  C
  C202     1.0000 0.28289  0.19581  0.91852  Biso   1.000  C
  C203     1.0000 0.19581  0.71711  0.91852  Biso   1.000  C
  C204     1.0000 0.80419  0.28289  0.91852  Biso   1.000  C
  C205     1.0000 0.78289  0.30419  0.58148  Biso   1.000  C
  C206     1.0000 0.21711  0.69581  0.58148  Biso   1.000  C
  C207     1.0000 0.30419  0.21711  0.58148  Biso   1.000  C
  C208     1.0000 0.69581  0.78289  0.58148  Biso   1.000  C
  C209     1.0000 0.00356  0.41118  0.11694  Biso   1.000  C
  C210     1.0000 0.99644  0.58882  0.11694  Biso   1.000  C
  C211     1.0000 0.58882  0.00356  0.11694  Biso   1.000  C
  C212     1.0000 0.41118  0.99644  0.11694  Biso   1.000  C
  C213     1.0000 0.49644  0.91118  0.38306  Biso   1.000  C
  C214     1.0000 0.50356  0.08882  0.38306  Biso   1.000  C
  C215     1.0000 0.91118  0.50356  0.38306  Biso   1.000  C
  C216     1.0000 0.08882  0.49644  0.38306  Biso   1.000  C
  C217     1.0000 0.99644  0.58882  0.88306  Biso   1.000  C
  C218     1.0000 0.00356  0.41118  0.88306  Biso   1.000  C
  C219     1.0000 0.41118  0.99644  0.88306  Biso   1.000  C
  C220     1.0000 0.58882  0.00356  0.88306  Biso   1.000  C
  C221     1.0000 0.50356  0.08882  0.61694  Biso   1.000  C
  C222     1.0000 0.49644  0.91118  0.61694  Biso   1.000  C
  C223     1.0000 0.08882  0.49644  0.61694  Biso   1.000  C
  C224     1.0000 0.91118  0.50356  0.61694  Biso   1.000  C
  H129     1.0000 0.04670  0.38200  0.15380  Biso   1.000  H
  H130     1.0000 0.95330  0.61800  0.15380  Biso   1.000  H
  H131     1.0000 0.61800  0.04670  0.15380  Biso   1.000  H
  H132     1.0000 0.38200  0.95330  0.15380  Biso   1.000  H
  H133     1.0000 0.45330  0.88200  0.34620  Biso   1.000  H
  H134     1.0000 0.54670  0.11800  0.34620  Biso   1.000  H
  H135     1.0000 0.88200  0.54670  0.34620  Biso   1.000  H
  H136     1.0000 0.11800  0.45330  0.34620  Biso   1.000  H
  H137     1.0000 0.95330  0.61800  0.84620  Biso   1.000  H
  H138     1.0000 0.04670  0.38200  0.84620  Biso   1.000  H
  H139     1.0000 0.38200  0.95330  0.84620  Biso   1.000  H
  H140     1.0000 0.61800  0.04670  0.84620  Biso   1.000  H
  H141     1.0000 0.54670  0.11800  0.65380  Biso   1.000  H
  H142     1.0000 0.45330  0.88200  0.65380  Biso   1.000  H
  H143     1.0000 0.11800  0.45330  0.65380  Biso   1.000  H
  H144     1.0000 0.88200  0.54670  0.65380  Biso   1.000  H
  H145     1.0000 0.00290  0.28380  0.08420  Biso   1.000  H
  H146     1.0000 0.99710  0.71620  0.08420  Biso   1.000  H
  H147     1.0000 0.71620  0.00290  0.08420  Biso   1.000  H
  H148     1.0000 0.28380  0.99710  0.08420  Biso   1.000  H
  H149     1.0000 0.49710  0.78380  0.41580  Biso   1.000  H
  H150     1.0000 0.50290  0.21620  0.41580  Biso   1.000  H
  H151     1.0000 0.78380  0.50290  0.41580  Biso   1.000  H
  H152     1.0000 0.21620  0.49710  0.41580  Biso   1.000  H
  H153     1.0000 0.99710  0.71620  0.91580  Biso   1.000  H
  H154     1.0000 0.00290  0.28380  0.91580  Biso   1.000  H
  H155     1.0000 0.28380  0.99710  0.91580  Biso   1.000  H
  H156     1.0000 0.71620  0.00290  0.91580  Biso   1.000  H
  H157     1.0000 0.50290  0.21620  0.58420  Biso   1.000  H
  H158     1.0000 0.49710  0.78380  0.58420  Biso   1.000  H
  H159     1.0000 0.21620  0.49710  0.58420  Biso   1.000  H
  H160     1.0000 0.78380  0.50290  0.58420  Biso   1.000  H
  C225     1.0000 0.97655  0.35127  0.07616  Biso   1.000  C
  C226     1.0000 0.02345  0.64873  0.07616  Biso   1.000  C
  C227     1.0000 0.64873  0.97655  0.07616  Biso   1.000  C
  C228     1.0000 0.35127  0.02345  0.07616  Biso   1.000  C
  C229     1.0000 0.52345  0.85127  0.42384  Biso   1.000  C
  C230     1.0000 0.47655  0.14873  0.42384  Biso   1.000  C
  C231     1.0000 0.85127  0.47655  0.42384  Biso   1.000  C
  C232     1.0000 0.14873  0.52345  0.42384  Biso   1.000  C
  C233     1.0000 0.02345  0.64873  0.92384  Biso   1.000  C
  C234     1.0000 0.97655  0.35127  0.92384  Biso   1.000  C
  C235     1.0000 0.35127  0.02345  0.92384  Biso   1.000  C
  C236     1.0000 0.64873  0.97655  0.92384  Biso   1.000  C
  C237     1.0000 0.47655  0.14873  0.57616  Biso   1.000  C
  C238     1.0000 0.52345  0.85127  0.57616  Biso   1.000  C
  C239     1.0000 0.14873  0.52345  0.57616  Biso   1.000  C
  C240     1.0000 0.85127  0.47655  0.57616  Biso   1.000  C
  C241     1.0000 0.00210  0.15810  0.10850  Biso   1.000  C
  C242     1.0000 0.99790  0.84190  0.10850  Biso   1.000  C
  C243     1.0000 0.84190  0.00210  0.10850  Biso   1.000  C
  C244     1.0000 0.15810  0.99790  0.10850  Biso   1.000  C
  C245     1.0000 0.49790  0.65810  0.39150  Biso   1.000  C
  C246     1.0000 0.50210  0.34190  0.39150  Biso   1.000  C
  C247     1.0000 0.65810  0.50210  0.39150  Biso   1.000  C
  C248     1.0000 0.34190  0.49790  0.39150  Biso   1.000  C
  C249     1.0000 0.99790  0.84190  0.89150  Biso   1.000  C
  C250     1.0000 0.00210  0.15810  0.89150  Biso   1.000  C
  C251     1.0000 0.15810  0.99790  0.89150  Biso   1.000  C
  C252     1.0000 0.84190  0.00210  0.89150  Biso   1.000  C
  C253     1.0000 0.50210  0.34190  0.60850  Biso   1.000  C
  C254     1.0000 0.49790  0.65810  0.60850  Biso   1.000  C
  C255     1.0000 0.34190  0.49790  0.60850  Biso   1.000  C
  C256     1.0000 0.65810  0.50210  0.60850  Biso   1.000  C
  C257     1.0000 0.35646  0.24480  0.15490  Biso   1.000  C
  C258     1.0000 0.64354  0.75520  0.15490  Biso   1.000  C
  C259     1.0000 0.75520  0.35646  0.15490  Biso   1.000  C
  C260     1.0000 0.24480  0.64354  0.15490  Biso   1.000  C
  C261     1.0000 0.14354  0.74480  0.34510  Biso   1.000  C
  C262     1.0000 0.85646  0.25520  0.34510  Biso   1.000  C
  C263     1.0000 0.74480  0.85646  0.34510  Biso   1.000  C
  C264     1.0000 0.25520  0.14354  0.34510  Biso   1.000  C
  C265     1.0000 0.64354  0.75520  0.84510  Biso   1.000  C
  C266     1.0000 0.35646  0.24480  0.84510  Biso   1.000  C
  C267     1.0000 0.24480  0.64354  0.84510  Biso   1.000  C
  C268     1.0000 0.75520  0.35646  0.84510  Biso   1.000  C
  C269     1.0000 0.85646  0.25520  0.65490  Biso   1.000  C
  C270     1.0000 0.14354  0.74480  0.65490  Biso   1.000  C
  C271     1.0000 0.25520  0.14354  0.65490  Biso   1.000  C
  C272     1.0000 0.74480  0.85646  0.65490  Biso   1.000  C
  C273     1.0000 0.32202  0.21183  0.10096  Biso   1.000  C
  C274     1.0000 0.67798  0.78817  0.10096  Biso   1.000  C
  C275     1.0000 0.78817  0.32202  0.10096  Biso   1.000  C
  C276     1.0000 0.21183  0.67798  0.10096  Biso   1.000  C
  C277     1.0000 0.17798  0.71183  0.39904  Biso   1.000  C
  C278     1.0000 0.82202  0.28817  0.39904  Biso   1.000  C
  C279     1.0000 0.71183  0.82202  0.39904  Biso   1.000  C
  C280     1.0000 0.28817  0.17798  0.39904  Biso   1.000  C
  C281     1.0000 0.67798  0.78817  0.89904  Biso   1.000  C
  C282     1.0000 0.32202  0.21183  0.89904  Biso   1.000  C
  C283     1.0000 0.21183  0.67798  0.89904  Biso   1.000  C
  C284     1.0000 0.78817  0.32202  0.89904  Biso   1.000  C
  C285     1.0000 0.82202  0.28817  0.60096  Biso   1.000  C
  C286     1.0000 0.17798  0.71183  0.60096  Biso   1.000  C
  C287     1.0000 0.28817  0.17798  0.60096  Biso   1.000  C
  C288     1.0000 0.71183  0.82202  0.60096  Biso   1.000  C
  C289     1.0000 0.29256  0.17044  0.04807  Biso   1.000  C
  C290     1.0000 0.70744  0.82956  0.04807  Biso   1.000  C
  C291     1.0000 0.82956  0.29256  0.04807  Biso   1.000  C
  C292     1.0000 0.17044  0.70744  0.04807  Biso   1.000  C
  C293     1.0000 0.20744  0.67044  0.45193  Biso   1.000  C
  C294     1.0000 0.79256  0.32956  0.45193  Biso   1.000  C
  C295     1.0000 0.67044  0.79256  0.45193  Biso   1.000  C
  C296     1.0000 0.32956  0.20744  0.45193  Biso   1.000  C
  C297     1.0000 0.70744  0.82956  0.95193  Biso   1.000  C
  C298     1.0000 0.29256  0.17044  0.95193  Biso   1.000  C
  C299     1.0000 0.17044  0.70744  0.95193  Biso   1.000  C
  C300     1.0000 0.82956  0.29256  0.95193  Biso   1.000  C
  C301     1.0000 0.79256  0.32956  0.54807  Biso   1.000  C
  C302     1.0000 0.20744  0.67044  0.54807  Biso   1.000  C
  C303     1.0000 0.32956  0.20744  0.54807  Biso   1.000  C
  C304     1.0000 0.67044  0.79256  0.54807  Biso   1.000  C
  C305     1.0000 0.00193  0.46137  0.12887  Biso   1.000  C
  C306     1.0000 0.99807  0.53863  0.12887  Biso   1.000  C
  C307     1.0000 0.53863  0.00193  0.12887  Biso   1.000  C
  C308     1.0000 0.46137  0.99807  0.12887  Biso   1.000  C
  C309     1.0000 0.49807  0.96137  0.37113  Biso   1.000  C
  C310     1.0000 0.50193  0.03863  0.37113  Biso   1.000  C
  C311     1.0000 0.96137  0.50193  0.37113  Biso   1.000  C
  C312     1.0000 0.03863  0.49807  0.37113  Biso   1.000  C
  C313     1.0000 0.99807  0.53863  0.87113  Biso   1.000  C
  C314     1.0000 0.00193  0.46137  0.87113  Biso   1.000  C
  C315     1.0000 0.46137  0.99807  0.87113  Biso   1.000  C
  C316     1.0000 0.53863  0.00193  0.87113  Biso   1.000  C
  C317     1.0000 0.50193  0.03863  0.62887  Biso   1.000  C
  C318     1.0000 0.49807  0.96137  0.62887  Biso   1.000  C
  C319     1.0000 0.03863  0.49807  0.62887  Biso   1.000  C
  C320     1.0000 0.96137  0.50193  0.62887  Biso   1.000  C
  C321     1.0000 0.97719  0.39895  0.08798  Biso   1.000  C
  C322     1.0000 0.02281  0.60105  0.08798  Biso   1.000  C
  C323     1.0000 0.60105  0.97719  0.08798  Biso   1.000  C
  C324     1.0000 0.39895  0.02281  0.08798  Biso   1.000  C
  C325     1.0000 0.52281  0.89895  0.41202  Biso   1.000  C
  C326     1.0000 0.47719  0.10105  0.41202  Biso   1.000  C
  C327     1.0000 0.89895  0.47719  0.41202  Biso   1.000  C
  C328     1.0000 0.10105  0.52281  0.41202  Biso   1.000  C
  C329     1.0000 0.02281  0.60105  0.91202  Biso   1.000  C
  C330     1.0000 0.97719  0.39895  0.91202  Biso   1.000  C
  C331     1.0000 0.39895  0.02281  0.91202  Biso   1.000  C
  C332     1.0000 0.60105  0.97719  0.91202  Biso   1.000  C
  C333     1.0000 0.47719  0.10105  0.58798  Biso   1.000  C
  C334     1.0000 0.52281  0.89895  0.58798  Biso   1.000  C
  C335     1.0000 0.10105  0.52281  0.58798  Biso   1.000  C
  C336     1.0000 0.89895  0.47719  0.58798  Biso   1.000  C
  C337     1.0000 0.94454  0.33842  0.04602  Biso   1.000  C
  C338     1.0000 0.05546  0.66158  0.04602  Biso   1.000  C
  C339     1.0000 0.66158  0.94454  0.04602  Biso   1.000  C
  C340     1.0000 0.33842  0.05546  0.04602  Biso   1.000  C
  C341     1.0000 0.55546  0.83842  0.45398  Biso   1.000  C
  C342     1.0000 0.44454  0.16158  0.45398  Biso   1.000  C
  C343     1.0000 0.83842  0.44454  0.45398  Biso   1.000  C
  C344     1.0000 0.16158  0.55546  0.45398  Biso   1.000  C
  C345     1.0000 0.05546  0.66158  0.95398  Biso   1.000  C
  C346     1.0000 0.94454  0.33842  0.95398  Biso   1.000  C
  C347     1.0000 0.33842  0.05546  0.95398  Biso   1.000  C
  C348     1.0000 0.66158  0.94454  0.95398  Biso   1.000  C
  C349     1.0000 0.44454  0.16158  0.54602  Biso   1.000  C
  C350     1.0000 0.55546  0.83842  0.54602  Biso   1.000  C
  C351     1.0000 0.16158  0.55546  0.54602  Biso   1.000  C
  C352     1.0000 0.83842  0.44454  0.54602  Biso   1.000  C
  N17      1.0000 0.35225  0.26473  0.18573  Biso   1.000  N
  N18      1.0000 0.64775  0.73527  0.18573  Biso   1.000  N
  N19      1.0000 0.73527  0.35225  0.18573  Biso   1.000  N
  N20      1.0000 0.26473  0.64775  0.18573  Biso   1.000  N
  N21      1.0000 0.14775  0.76473  0.31427  Biso   1.000  N
  N22      1.0000 0.85225  0.23527  0.31427  Biso   1.000  N
  N23      1.0000 0.76473  0.85225  0.31427  Biso   1.000  N
  N24      1.0000 0.23527  0.14775  0.31427  Biso   1.000  N
  N25      1.0000 0.64775  0.73527  0.81427  Biso   1.000  N
  N26      1.0000 0.35225  0.26473  0.81427  Biso   1.000  N
  N27      1.0000 0.26473  0.64775  0.81427  Biso   1.000  N
  N28      1.0000 0.73527  0.35225  0.81427  Biso   1.000  N
  N29      1.0000 0.85225  0.23527  0.68573  Biso   1.000  N
  N30      1.0000 0.14775  0.76473  0.68573  Biso   1.000  N
  N31      1.0000 0.23527  0.14775  0.68573  Biso   1.000  N
  N32      1.0000 0.76473  0.85225  0.68573  Biso   1.000  N
  N33      1.0000 0.40350  0.24420  0.14430  Biso   1.000  N
  N34      1.0000 0.59650  0.75580  0.14430  Biso   1.000  N
  N35      1.0000 0.75580  0.40350  0.14430  Biso   1.000  N
  N36      1.0000 0.24420  0.59650  0.14430  Biso   1.000  N
  N37      1.0000 0.09650  0.74420  0.35570  Biso   1.000  N
  N38      1.0000 0.90350  0.25580  0.35570  Biso   1.000  N
  N39      1.0000 0.74420  0.90350  0.35570  Biso   1.000  N
  N40      1.0000 0.25580  0.09650  0.35570  Biso   1.000  N
  N41      1.0000 0.59650  0.75580  0.85570  Biso   1.000  N
  N42      1.0000 0.40350  0.24420  0.85570  Biso   1.000  N
  N43      1.0000 0.24420  0.59650  0.85570  Biso   1.000  N
  N44      1.0000 0.75580  0.40350  0.85570  Biso   1.000  N
  N45      1.0000 0.90350  0.25580  0.64430  Biso   1.000  N
  N46      1.0000 0.09650  0.74420  0.64430  Biso   1.000  N
  N47      1.0000 0.25580  0.09650  0.64430  Biso   1.000  N
  N48      1.0000 0.74420  0.90350  0.64430  Biso   1.000  N
  H161     1.0000 0.35360  0.20920  0.09260  Biso   1.000  H
  H162     1.0000 0.64640  0.79080  0.09260  Biso   1.000  H
  H163     1.0000 0.79080  0.35360  0.09260  Biso   1.000  H
  H164     1.0000 0.20920  0.64640  0.09260  Biso   1.000  H
  H165     1.0000 0.14640  0.70920  0.40740  Biso   1.000  H
  H166     1.0000 0.85360  0.29080  0.40740  Biso   1.000  H
  H167     1.0000 0.70920  0.85360  0.40740  Biso   1.000  H
  H168     1.0000 0.29080  0.14640  0.40740  Biso   1.000  H
  H169     1.0000 0.64640  0.79080  0.90740  Biso   1.000  H
  H170     1.0000 0.35360  0.20920  0.90740  Biso   1.000  H
  H171     1.0000 0.20920  0.64640  0.90740  Biso   1.000  H
  H172     1.0000 0.79080  0.35360  0.90740  Biso   1.000  H
  H173     1.0000 0.85360  0.29080  0.59260  Biso   1.000  H
  H174     1.0000 0.14640  0.70920  0.59260  Biso   1.000  H
  H175     1.0000 0.29080  0.14640  0.59260  Biso   1.000  H
  H176     1.0000 0.70920  0.85360  0.59260  Biso   1.000  H
  O145     1.0000 0.33492  0.17402  0.03647  Biso   1.000  O
  O146     1.0000 0.66508  0.82598  0.03647  Biso   1.000  O
  O147     1.0000 0.82598  0.33492  0.03647  Biso   1.000  O
  O148     1.0000 0.17402  0.66508  0.03647  Biso   1.000  O
  O149     1.0000 0.16508  0.67402  0.46353  Biso   1.000  O
  O150     1.0000 0.83492  0.32598  0.46353  Biso   1.000  O
  O151     1.0000 0.67402  0.83492  0.46353  Biso   1.000  O
  O152     1.0000 0.32598  0.16508  0.46353  Biso   1.000  O
  O153     1.0000 0.66508  0.82598  0.96353  Biso   1.000  O
  O154     1.0000 0.33492  0.17402  0.96353  Biso   1.000  O
  O155     1.0000 0.17402  0.66508  0.96353  Biso   1.000  O
  O156     1.0000 0.82598  0.33492  0.96353  Biso   1.000  O
  O157     1.0000 0.83492  0.32598  0.53647  Biso   1.000  O
  O158     1.0000 0.16508  0.67402  0.53647  Biso   1.000  O
  O159     1.0000 0.32598  0.16508  0.53647  Biso   1.000  O
  O160     1.0000 0.67402  0.83492  0.53647  Biso   1.000  O
  O161     1.0000 0.25839  0.14630  0.03581  Biso   1.000  O
  O162     1.0000 0.74161  0.85370  0.03581  Biso   1.000  O
  O163     1.0000 0.85370  0.25839  0.03581  Biso   1.000  O
  O164     1.0000 0.14630  0.74161  0.03581  Biso   1.000  O
  O165     1.0000 0.24161  0.64630  0.46419  Biso   1.000  O
  O166     1.0000 0.75839  0.35370  0.46419  Biso   1.000  O
  O167     1.0000 0.64630  0.75839  0.46419  Biso   1.000  O
  O168     1.0000 0.35370  0.24161  0.46419  Biso   1.000  O
  O169     1.0000 0.74161  0.85370  0.96419  Biso   1.000  O
  O170     1.0000 0.25839  0.14630  0.96419  Biso   1.000  O
  O171     1.0000 0.14630  0.74161  0.96419  Biso   1.000  O
  O172     1.0000 0.85370  0.25839  0.96419  Biso   1.000  O
  O173     1.0000 0.75839  0.35370  0.53581  Biso   1.000  O
  O174     1.0000 0.24161  0.64630  0.53581  Biso   1.000  O
  O175     1.0000 0.35370  0.24161  0.53581  Biso   1.000  O
  O176     1.0000 0.64630  0.75839  0.53581  Biso   1.000  O
  N49      1.0000 0.00000  0.50000  0.10778  Biso   1.000  N
  N50      1.0000 0.50000  0.00000  0.10778  Biso   1.000  N
  N51      1.0000 0.50000  0.00000  0.39222  Biso   1.000  N
  N52      1.0000 0.00000  0.50000  0.39222  Biso   1.000  N
  N53      1.0000 0.00000  0.50000  0.89222  Biso   1.000  N
  N54      1.0000 0.50000  0.00000  0.89222  Biso   1.000  N
  N55      1.0000 0.50000  0.00000  0.60778  Biso   1.000  N
  N56      1.0000 0.00000  0.50000  0.60778  Biso   1.000  N
  N57      1.0000 0.00130  0.47561  0.16084  Biso   1.000  N
  N58      1.0000 0.99870  0.52439  0.16084  Biso   1.000  N
  N59      1.0000 0.52439  0.00130  0.16084  Biso   1.000  N
  N60      1.0000 0.47561  0.99870  0.16084  Biso   1.000  N
  N61      1.0000 0.49870  0.97561  0.33916  Biso   1.000  N
  N62      1.0000 0.50130  0.02439  0.33916  Biso   1.000  N
  N63      1.0000 0.97561  0.50130  0.33916  Biso   1.000  N
  N64      1.0000 0.02439  0.49870  0.33916  Biso   1.000  N
  N65      1.0000 0.99870  0.52439  0.83916  Biso   1.000  N
  N66      1.0000 0.00130  0.47561  0.83916  Biso   1.000  N
  N67      1.0000 0.47561  0.99870  0.83916  Biso   1.000  N
  N68      1.0000 0.52439  0.00130  0.83916  Biso   1.000  N
  N69      1.0000 0.50130  0.02439  0.66084  Biso   1.000  N
  N70      1.0000 0.49870  0.97561  0.66084  Biso   1.000  N
  N71      1.0000 0.02439  0.49870  0.66084  Biso   1.000  N
  N72      1.0000 0.97561  0.50130  0.66084  Biso   1.000  N
  H177     1.0000 0.95980  0.42290  0.07640  Biso   1.000  H
  H178     1.0000 0.04020  0.57710  0.07640  Biso   1.000  H
  H179     1.0000 0.57710  0.95980  0.07640  Biso   1.000  H
  H180     1.0000 0.42290  0.04020  0.07640  Biso   1.000  H
  H181     1.0000 0.54020  0.92290  0.42360  Biso   1.000  H
  H182     1.0000 0.45980  0.07710  0.42360  Biso   1.000  H
  H183     1.0000 0.92290  0.45980  0.42360  Biso   1.000  H
  H184     1.0000 0.07710  0.54020  0.42360  Biso   1.000  H
  H185     1.0000 0.04020  0.57710  0.92360  Biso   1.000  H
  H186     1.0000 0.95980  0.42290  0.92360  Biso   1.000  H
  H187     1.0000 0.42290  0.04020  0.92360  Biso   1.000  H
  H188     1.0000 0.57710  0.95980  0.92360  Biso   1.000  H
  H189     1.0000 0.45980  0.07710  0.57640  Biso   1.000  H
  H190     1.0000 0.54020  0.92290  0.57640  Biso   1.000  H
  H191     1.0000 0.07710  0.54020  0.57640  Biso   1.000  H
  H192     1.0000 0.92290  0.45980  0.57640  Biso   1.000  H
  O177     1.0000 0.91799  0.37184  0.03481  Biso   1.000  O
  O178     1.0000 0.08201  0.62816  0.03481  Biso   1.000  O
  O179     1.0000 0.62816  0.91799  0.03481  Biso   1.000  O
  O180     1.0000 0.37184  0.08201  0.03481  Biso   1.000  O
  O181     1.0000 0.58201  0.87184  0.46519  Biso   1.000  O
  O182     1.0000 0.41799  0.12816  0.46519  Biso   1.000  O
  O183     1.0000 0.87184  0.41799  0.46519  Biso   1.000  O
  O184     1.0000 0.12816  0.58201  0.46519  Biso   1.000  O
  O185     1.0000 0.08201  0.62816  0.96519  Biso   1.000  O
  O186     1.0000 0.91799  0.37184  0.96519  Biso   1.000  O
  O187     1.0000 0.37184  0.08201  0.96519  Biso   1.000  O
  O188     1.0000 0.62816  0.91799  0.96519  Biso   1.000  O
  O189     1.0000 0.41799  0.12816  0.53481  Biso   1.000  O
  O190     1.0000 0.58201  0.87184  0.53481  Biso   1.000  O
  O191     1.0000 0.12816  0.58201  0.53481  Biso   1.000  O
  O192     1.0000 0.87184  0.41799  0.53481  Biso   1.000  O
  O193     1.0000 0.94652  0.29532  0.03546  Biso   1.000  O
  O194     1.0000 0.05348  0.70468  0.03546  Biso   1.000  O
  O195     1.0000 0.70468  0.94652  0.03546  Biso   1.000  O
  O196     1.0000 0.29532  0.05348  0.03546  Biso   1.000  O
  O197     1.0000 0.55348  0.79532  0.46454  Biso   1.000  O
  O198     1.0000 0.44652  0.20468  0.46454  Biso   1.000  O
  O199     1.0000 0.79532  0.44652  0.46454  Biso   1.000  O
  O200     1.0000 0.20468  0.55348  0.46454  Biso   1.000  O
  O201     1.0000 0.05348  0.70468  0.96454  Biso   1.000  O
  O202     1.0000 0.94652  0.29532  0.96454  Biso   1.000  O
  O203     1.0000 0.29532  0.05348  0.96454  Biso   1.000  O
  O204     1.0000 0.70468  0.94652  0.96454  Biso   1.000  O
  O205     1.0000 0.44652  0.20468  0.53546  Biso   1.000  O
  O206     1.0000 0.55348  0.79532  0.53546  Biso   1.000  O
  O207     1.0000 0.20468  0.55348  0.53546  Biso   1.000  O
  O208     1.0000 0.79532  0.44652  0.53546  Biso   1.000  O
  C353     1.0000 0.35141  0.36554  0.29676  Biso   1.000  C
  C354     1.0000 0.64859  0.63446  0.29676  Biso   1.000  C
  C355     1.0000 0.63446  0.35141  0.29676  Biso   1.000  C
  C356     1.0000 0.36554  0.64859  0.29676  Biso   1.000  C
  C357     1.0000 0.14859  0.86554  0.20324  Biso   1.000  C
  C358     1.0000 0.85141  0.13446  0.20324  Biso   1.000  C
  C359     1.0000 0.86554  0.85141  0.20324  Biso   1.000  C
  C360     1.0000 0.13446  0.14859  0.20324  Biso   1.000  C
  C361     1.0000 0.64859  0.63446  0.70324  Biso   1.000  C
  C362     1.0000 0.35141  0.36554  0.70324  Biso   1.000  C
  C363     1.0000 0.36554  0.64859  0.70324  Biso   1.000  C
  C364     1.0000 0.63446  0.35141  0.70324  Biso   1.000  C
  C365     1.0000 0.85141  0.13446  0.79676  Biso   1.000  C
  C366     1.0000 0.14859  0.86554  0.79676  Biso   1.000  C
  C367     1.0000 0.13446  0.14859  0.79676  Biso   1.000  C
  C368     1.0000 0.86554  0.85141  0.79676  Biso   1.000  C
  C369     1.0000 0.39874  0.26770  0.19683  Biso   1.000  C
  C370     1.0000 0.60126  0.73230  0.19683  Biso   1.000  C
  C371     1.0000 0.73230  0.39874  0.19683  Biso   1.000  C
  C372     1.0000 0.26770  0.60126  0.19683  Biso   1.000  C
  C373     1.0000 0.10126  0.76770  0.30317  Biso   1.000  C
  C374     1.0000 0.89874  0.23230  0.30317  Biso   1.000  C
  C375     1.0000 0.76770  0.89874  0.30317  Biso   1.000  C
  C376     1.0000 0.23230  0.10126  0.30317  Biso   1.000  C
  C377     1.0000 0.60126  0.73230  0.80317  Biso   1.000  C
  C378     1.0000 0.39874  0.26770  0.80317  Biso   1.000  C
  C379     1.0000 0.26770  0.60126  0.80317  Biso   1.000  C
  C380     1.0000 0.73230  0.39874  0.80317  Biso   1.000  C
  C381     1.0000 0.89874  0.23230  0.69683  Biso   1.000  C
  C382     1.0000 0.10126  0.76770  0.69683  Biso   1.000  C
  C383     1.0000 0.23230  0.10126  0.69683  Biso   1.000  C
  C384     1.0000 0.76770  0.89874  0.69683  Biso   1.000  C
  H193     1.0000 0.41480  0.23650  0.12460  Biso   1.000  H
  H194     1.0000 0.58520  0.76350  0.12460  Biso   1.000  H
  H195     1.0000 0.76350  0.41480  0.12460  Biso   1.000  H
  H196     1.0000 0.23650  0.58520  0.12460  Biso   1.000  H
  H197     1.0000 0.08520  0.73650  0.37540  Biso   1.000  H
  H198     1.0000 0.91480  0.26350  0.37540  Biso   1.000  H
  H199     1.0000 0.73650  0.91480  0.37540  Biso   1.000  H
  H200     1.0000 0.26350  0.08520  0.37540  Biso   1.000  H
  H201     1.0000 0.58520  0.76350  0.87540  Biso   1.000  H
  H202     1.0000 0.41480  0.23650  0.87540  Biso   1.000  H
  H203     1.0000 0.23650  0.58520  0.87540  Biso   1.000  H
  H204     1.0000 0.76350  0.41480  0.87540  Biso   1.000  H
  H205     1.0000 0.91480  0.26350  0.62460  Biso   1.000  H
  H206     1.0000 0.08520  0.73650  0.62460  Biso   1.000  H
  H207     1.0000 0.26350  0.08520  0.62460  Biso   1.000  H
  H208     1.0000 0.73650  0.91480  0.62460  Biso   1.000  H
  N73      1.0000 0.42890  0.25900  0.17260  Biso   1.000  N
  N74      1.0000 0.57110  0.74100  0.17260  Biso   1.000  N
  N75      1.0000 0.74100  0.42890  0.17260  Biso   1.000  N
  N76      1.0000 0.25900  0.57110  0.17260  Biso   1.000  N
  N77      1.0000 0.07110  0.75900  0.32740  Biso   1.000  N
  N78      1.0000 0.92890  0.24100  0.32740  Biso   1.000  N
  N79      1.0000 0.75900  0.92890  0.32740  Biso   1.000  N
  N80      1.0000 0.24100  0.07110  0.32740  Biso   1.000  N
  N81      1.0000 0.57110  0.74100  0.82740  Biso   1.000  N
  N82      1.0000 0.42890  0.25900  0.82740  Biso   1.000  N
  N83      1.0000 0.25900  0.57110  0.82740  Biso   1.000  N
  N84      1.0000 0.74100  0.42890  0.82740  Biso   1.000  N
  N85      1.0000 0.92890  0.24100  0.67260  Biso   1.000  N
  N86      1.0000 0.07110  0.75900  0.67260  Biso   1.000  N
  N87      1.0000 0.24100  0.07110  0.67260  Biso   1.000  N
  N88      1.0000 0.75900  0.92890  0.67260  Biso   1.000  N
  Cu33     1.0000 0.36017  0.13177  0.00000  Biso   1.000  Cu
  Cu34     1.0000 0.63983  0.86823  0.00000  Biso   1.000  Cu
  Cu35     1.0000 0.86823  0.36017  0.00000  Biso   1.000  Cu
  Cu36     1.0000 0.13177  0.63983  0.00000  Biso   1.000  Cu
  Cu37     1.0000 0.13983  0.63177  0.50000  Biso   1.000  Cu
  Cu38     1.0000 0.86017  0.36823  0.50000  Biso   1.000  Cu
  Cu39     1.0000 0.63177  0.86017  0.50000  Biso   1.000  Cu
  Cu40     1.0000 0.36823  0.13983  0.50000  Biso   1.000  Cu
  Cu41     1.0000 0.26931  0.09713  0.00000  Biso   1.000  Cu
  Cu42     1.0000 0.73069  0.90287  0.00000  Biso   1.000  Cu
  Cu43     1.0000 0.90287  0.26931  0.00000  Biso   1.000  Cu
  Cu44     1.0000 0.09713  0.73069  0.00000  Biso   1.000  Cu
  Cu45     1.0000 0.23069  0.59713  0.50000  Biso   1.000  Cu
  Cu46     1.0000 0.76931  0.40287  0.50000  Biso   1.000  Cu
  Cu47     1.0000 0.59713  0.76931  0.50000  Biso   1.000  Cu
  Cu48     1.0000 0.40287  0.23069  0.50000  Biso   1.000  Cu
  H209     1.0000 0.00230  0.45700  0.17840  Biso   1.000  H
  H210     1.0000 0.99770  0.54300  0.17840  Biso   1.000  H
  H211     1.0000 0.54300  0.00230  0.17840  Biso   1.000  H
  H212     1.0000 0.45700  0.99770  0.17840  Biso   1.000  H
  H213     1.0000 0.49770  0.95700  0.32160  Biso   1.000  H
  H214     1.0000 0.50230  0.04300  0.32160  Biso   1.000  H
  H215     1.0000 0.95700  0.50230  0.32160  Biso   1.000  H
  H216     1.0000 0.04300  0.49770  0.32160  Biso   1.000  H
  H217     1.0000 0.99770  0.54300  0.82160  Biso   1.000  H
  H218     1.0000 0.00230  0.45700  0.82160  Biso   1.000  H
  H219     1.0000 0.45700  0.99770  0.82160  Biso   1.000  H
  H220     1.0000 0.54300  0.00230  0.82160  Biso   1.000  H
  H221     1.0000 0.50230  0.04300  0.67840  Biso   1.000  H
  H222     1.0000 0.49770  0.95700  0.67840  Biso   1.000  H
  H223     1.0000 0.04300  0.49770  0.67840  Biso   1.000  H
  H224     1.0000 0.95700  0.50230  0.67840  Biso   1.000  H
  C385     1.0000 0.38977  0.33719  0.27804  Biso   1.000  C
  C386     1.0000 0.61023  0.66281  0.27804  Biso   1.000  C
  C387     1.0000 0.66281  0.38977  0.27804  Biso   1.000  C
  C388     1.0000 0.33719  0.61023  0.27804  Biso   1.000  C
  C389     1.0000 0.11023  0.83719  0.22196  Biso   1.000  C
  C390     1.0000 0.88977  0.16281  0.22196  Biso   1.000  C
  C391     1.0000 0.83719  0.88977  0.22196  Biso   1.000  C
  C392     1.0000 0.16281  0.11023  0.22196  Biso   1.000  C
  C393     1.0000 0.61023  0.66281  0.72196  Biso   1.000  C
  C394     1.0000 0.38977  0.33719  0.72196  Biso   1.000  C
  C395     1.0000 0.33719  0.61023  0.72196  Biso   1.000  C
  C396     1.0000 0.66281  0.38977  0.72196  Biso   1.000  C
  C397     1.0000 0.88977  0.16281  0.77804  Biso   1.000  C
  C398     1.0000 0.11023  0.83719  0.77804  Biso   1.000  C
  C399     1.0000 0.16281  0.11023  0.77804  Biso   1.000  C
  C400     1.0000 0.83719  0.88977  0.77804  Biso   1.000  C
  C401     1.0000 0.41300  0.28848  0.22963  Biso   1.000  C
  C402     1.0000 0.58700  0.71152  0.22963  Biso   1.000  C
  C403     1.0000 0.71152  0.41300  0.22963  Biso   1.000  C
  C404     1.0000 0.28848  0.58700  0.22963  Biso   1.000  C
  C405     1.0000 0.08700  0.78848  0.27037  Biso   1.000  C
  C406     1.0000 0.91300  0.21152  0.27037  Biso   1.000  C
  C407     1.0000 0.78848  0.91300  0.27037  Biso   1.000  C
  C408     1.0000 0.21152  0.08700  0.27037  Biso   1.000  C
  C409     1.0000 0.58700  0.71152  0.77037  Biso   1.000  C
  C410     1.0000 0.41300  0.28848  0.77037  Biso   1.000  C
  C411     1.0000 0.28848  0.58700  0.77037  Biso   1.000  C
  C412     1.0000 0.71152  0.41300  0.77037  Biso   1.000  C
  C413     1.0000 0.91300  0.21152  0.72963  Biso   1.000  C
  C414     1.0000 0.08700  0.78848  0.72963  Biso   1.000  C
  C415     1.0000 0.21152  0.08700  0.72963  Biso   1.000  C
  C416     1.0000 0.78848  0.91300  0.72963  Biso   1.000  C
  O209     1.0000 0.43199  0.16220  0.00000  Biso   1.000  O
  O210     1.0000 0.56801  0.83780  0.00000  Biso   1.000  O
  O211     1.0000 0.83780  0.43199  0.00000  Biso   1.000  O
  O212     1.0000 0.16220  0.56801  0.00000  Biso   1.000  O
  O213     1.0000 0.06801  0.66220  0.50000  Biso   1.000  O
  O214     1.0000 0.93199  0.33780  0.50000  Biso   1.000  O
  O215     1.0000 0.66220  0.93199  0.50000  Biso   1.000  O
  O216     1.0000 0.33780  0.06801  0.50000  Biso   1.000  O
  O217     1.0000 0.19630  0.06680  0.00000  Biso   1.000  O
  O218     1.0000 0.80370  0.93320  0.00000  Biso   1.000  O
  O219     1.0000 0.93320  0.19630  0.00000  Biso   1.000  O
  O220     1.0000 0.06680  0.80370  0.00000  Biso   1.000  O
  O221     1.0000 0.30370  0.56680  0.50000  Biso   1.000  O
  O222     1.0000 0.69630  0.43320  0.50000  Biso   1.000  O
  O223     1.0000 0.56680  0.69630  0.50000  Biso   1.000  O
  O224     1.0000 0.43320  0.30370  0.50000  Biso   1.000  O
  C417     1.0000 0.37851  0.31610  0.24716  Biso   1.000  C
  C418     1.0000 0.62149  0.68390  0.24716  Biso   1.000  C
  C419     1.0000 0.68390  0.37851  0.24716  Biso   1.000  C
  C420     1.0000 0.31610  0.62149  0.24716  Biso   1.000  C
  C421     1.0000 0.12149  0.81610  0.25284  Biso   1.000  C
  C422     1.0000 0.87851  0.18390  0.25284  Biso   1.000  C
  C423     1.0000 0.81610  0.87851  0.25284  Biso   1.000  C
  C424     1.0000 0.18390  0.12149  0.25284  Biso   1.000  C
  C425     1.0000 0.62149  0.68390  0.75284  Biso   1.000  C
  C426     1.0000 0.37851  0.31610  0.75284  Biso   1.000  C
  C427     1.0000 0.31610  0.62149  0.75284  Biso   1.000  C
  C428     1.0000 0.68390  0.37851  0.75284  Biso   1.000  C
  C429     1.0000 0.87851  0.18390  0.74716  Biso   1.000  C
  C430     1.0000 0.12149  0.81610  0.74716  Biso   1.000  C
  C431     1.0000 0.18390  0.12149  0.74716  Biso   1.000  C
  C432     1.0000 0.81610  0.87851  0.74716  Biso   1.000  C
  C433     1.0000 0.43558  0.32963  0.29254  Biso   1.000  C
  C434     1.0000 0.56442  0.67037  0.29254  Biso   1.000  C
  C435     1.0000 0.67037  0.43558  0.29254  Biso   1.000  C
  C436     1.0000 0.32963  0.56442  0.29254  Biso   1.000  C
  C437     1.0000 0.06442  0.82963  0.20746  Biso   1.000  C
  C438     1.0000 0.93558  0.17037  0.20746  Biso   1.000  C
  C439     1.0000 0.82963  0.93558  0.20746  Biso   1.000  C
  C440     1.0000 0.17037  0.06442  0.20746  Biso   1.000  C
  C441     1.0000 0.56442  0.67037  0.70746  Biso   1.000  C
  C442     1.0000 0.43558  0.32963  0.70746  Biso   1.000  C
  C443     1.0000 0.32963  0.56442  0.70746  Biso   1.000  C
  C444     1.0000 0.67037  0.43558  0.70746  Biso   1.000  C
  C445     1.0000 0.93558  0.17037  0.79254  Biso   1.000  C
  C446     1.0000 0.06442  0.82963  0.79254  Biso   1.000  C
  C447     1.0000 0.17037  0.06442  0.79254  Biso   1.000  C
  C448     1.0000 0.82963  0.93558  0.79254  Biso   1.000  C
  C449     1.0000 0.45858  0.28021  0.24461  Biso   1.000  C
  C450     1.0000 0.54142  0.71979  0.24461  Biso   1.000  C
  C451     1.0000 0.71979  0.45858  0.24461  Biso   1.000  C
  C452     1.0000 0.28021  0.54142  0.24461  Biso   1.000  C
  C453     1.0000 0.04142  0.78021  0.25539  Biso   1.000  C
  C454     1.0000 0.95858  0.21979  0.25539  Biso   1.000  C
  C455     1.0000 0.78021  0.95858  0.25539  Biso   1.000  C
  C456     1.0000 0.21979  0.04142  0.25539  Biso   1.000  C
  C457     1.0000 0.54142  0.71979  0.75539  Biso   1.000  C
  C458     1.0000 0.45858  0.28021  0.75539  Biso   1.000  C
  C459     1.0000 0.28021  0.54142  0.75539  Biso   1.000  C
  C460     1.0000 0.71979  0.45858  0.75539  Biso   1.000  C
  C461     1.0000 0.95858  0.21979  0.74461  Biso   1.000  C
  C462     1.0000 0.04142  0.78021  0.74461  Biso   1.000  C
  C463     1.0000 0.21979  0.04142  0.74461  Biso   1.000  C
  C464     1.0000 0.78021  0.95858  0.74461  Biso   1.000  C
  H225     1.0000 0.34760  0.32040  0.23800  Biso   1.000  H
  H226     1.0000 0.65240  0.67960  0.23800  Biso   1.000  H
  H227     1.0000 0.67960  0.34760  0.23800  Biso   1.000  H
  H228     1.0000 0.32040  0.65240  0.23800  Biso   1.000  H
  H229     1.0000 0.15240  0.82040  0.26200  Biso   1.000  H
  H230     1.0000 0.84760  0.17960  0.26200  Biso   1.000  H
  H231     1.0000 0.82040  0.84760  0.26200  Biso   1.000  H
  H232     1.0000 0.17960  0.15240  0.26200  Biso   1.000  H
  H233     1.0000 0.65240  0.67960  0.76200  Biso   1.000  H
  H234     1.0000 0.34760  0.32040  0.76200  Biso   1.000  H
  H235     1.0000 0.32040  0.65240  0.76200  Biso   1.000  H
  H236     1.0000 0.67960  0.34760  0.76200  Biso   1.000  H
  H237     1.0000 0.84760  0.17960  0.73800  Biso   1.000  H
  H238     1.0000 0.15240  0.82040  0.73800  Biso   1.000  H
  H239     1.0000 0.17960  0.15240  0.73800  Biso   1.000  H
  H240     1.0000 0.82040  0.84760  0.73800  Biso   1.000  H
  H241     1.0000 0.44320  0.34380  0.31330  Biso   1.000  H
  H242     1.0000 0.55680  0.65620  0.31330  Biso   1.000  H
  H243     1.0000 0.65620  0.44320  0.31330  Biso   1.000  H
  H244     1.0000 0.34380  0.55680  0.31330  Biso   1.000  H
  H245     1.0000 0.05680  0.84380  0.18670  Biso   1.000  H
  H246     1.0000 0.94320  0.15620  0.18670  Biso   1.000  H
  H247     1.0000 0.84380  0.94320  0.18670  Biso   1.000  H
  H248     1.0000 0.15620  0.05680  0.18670  Biso   1.000  H
  H249     1.0000 0.55680  0.65620  0.68670  Biso   1.000  H
  H250     1.0000 0.44320  0.34380  0.68670  Biso   1.000  H
  H251     1.0000 0.34380  0.55680  0.68670  Biso   1.000  H
  H252     1.0000 0.65620  0.44320  0.68670  Biso   1.000  H
  H253     1.0000 0.94320  0.15620  0.81330  Biso   1.000  H
  H254     1.0000 0.05680  0.84380  0.81330  Biso   1.000  H
  H255     1.0000 0.15620  0.05680  0.81330  Biso   1.000  H
  H256     1.0000 0.84380  0.94320  0.81330  Biso   1.000  H
  C465     1.0000 0.46963  0.30114  0.27609  Biso   1.000  C
  C466     1.0000 0.53037  0.69886  0.27609  Biso   1.000  C
  C467     1.0000 0.69886  0.46963  0.27609  Biso   1.000  C
  C468     1.0000 0.30114  0.53037  0.27609  Biso   1.000  C
  C469     1.0000 0.03037  0.80114  0.22391  Biso   1.000  C
  C470     1.0000 0.96963  0.19886  0.22391  Biso   1.000  C
  C471     1.0000 0.80114  0.96963  0.22391  Biso   1.000  C
  C472     1.0000 0.19886  0.03037  0.22391  Biso   1.000  C
  C473     1.0000 0.53037  0.69886  0.72391  Biso   1.000  C
  C474     1.0000 0.46963  0.30114  0.72391  Biso   1.000  C
  C475     1.0000 0.30114  0.53037  0.72391  Biso   1.000  C
  C476     1.0000 0.69886  0.46963  0.72391  Biso   1.000  C
  C477     1.0000 0.96963  0.19886  0.77609  Biso   1.000  C
  C478     1.0000 0.03037  0.80114  0.77609  Biso   1.000  C
  C479     1.0000 0.19886  0.03037  0.77609  Biso   1.000  C
  C480     1.0000 0.80114  0.96963  0.77609  Biso   1.000  C
  H257     1.0000 0.48150  0.26080  0.23360  Biso   1.000  H
  H258     1.0000 0.51850  0.73920  0.23360  Biso   1.000  H
  H259     1.0000 0.73920  0.48150  0.23360  Biso   1.000  H
  H260     1.0000 0.26080  0.51850  0.23360  Biso   1.000  H
  H261     1.0000 0.01850  0.76080  0.26640  Biso   1.000  H
  H262     1.0000 0.98150  0.23920  0.26640  Biso   1.000  H
  H263     1.0000 0.76080  0.98150  0.26640  Biso   1.000  H
  H264     1.0000 0.23920  0.01850  0.26640  Biso   1.000  H
  H265     1.0000 0.51850  0.73920  0.76640  Biso   1.000  H
  H266     1.0000 0.48150  0.26080  0.76640  Biso   1.000  H
  H267     1.0000 0.26080  0.51850  0.76640  Biso   1.000  H
  H268     1.0000 0.73920  0.48150  0.76640  Biso   1.000  H
  H269     1.0000 0.98150  0.23920  0.73360  Biso   1.000  H
  H270     1.0000 0.01850  0.76080  0.73360  Biso   1.000  H
  H271     1.0000 0.23920  0.01850  0.73360  Biso   1.000  H
  H272     1.0000 0.76080  0.98150  0.73360  Biso   1.000  H
  C481     1.0000 0.51777  0.29166  0.29336  Biso   1.000  C
  C482     1.0000 0.48223  0.70834  0.29336  Biso   1.000  C
  C483     1.0000 0.70834  0.51777  0.29336  Biso   1.000  C
  C484     1.0000 0.29166  0.48223  0.29336  Biso   1.000  C
  C485     1.0000 0.98223  0.79166  0.20664  Biso   1.000  C
  C486     1.0000 0.01777  0.20834  0.20664  Biso   1.000  C
  C487     1.0000 0.79166  0.01777  0.20664  Biso   1.000  C
  C488     1.0000 0.20834  0.98223  0.20664  Biso   1.000  C
  C489     1.0000 0.48223  0.70834  0.70664  Biso   1.000  C
  C490     1.0000 0.51777  0.29166  0.70664  Biso   1.000  C
  C491     1.0000 0.29166  0.48223  0.70664  Biso   1.000  C
  C492     1.0000 0.70834  0.51777  0.70664  Biso   1.000  C
  C493     1.0000 0.01777  0.20834  0.79336  Biso   1.000  C
  C494     1.0000 0.98223  0.79166  0.79336  Biso   1.000  C
  C495     1.0000 0.20834  0.98223  0.79336  Biso   1.000  C
  C496     1.0000 0.79166  0.01777  0.79336  Biso   1.000  C
  N89      1.0000 0.39910  0.22610  0.15020  Biso   1.000  N
  N90      1.0000 0.60090  0.77390  0.15020  Biso   1.000  N
  N91      1.0000 0.77390  0.39910  0.15020  Biso   1.000  N
  N92      1.0000 0.22610  0.60090  0.15020  Biso   1.000  N
  N93      1.0000 0.10090  0.72610  0.34980  Biso   1.000  N
  N94      1.0000 0.89910  0.27390  0.34980  Biso   1.000  N
  N95      1.0000 0.72610  0.89910  0.34980  Biso   1.000  N
  N96      1.0000 0.27390  0.10090  0.34980  Biso   1.000  N
  N97      1.0000 0.60090  0.77390  0.84980  Biso   1.000  N
  N98      1.0000 0.39910  0.22610  0.84980  Biso   1.000  N
  N99      1.0000 0.22610  0.60090  0.84980  Biso   1.000  N
  N100     1.0000 0.77390  0.39910  0.84980  Biso   1.000  N
  N101     1.0000 0.89910  0.27390  0.65020  Biso   1.000  N
  N102     1.0000 0.10090  0.72610  0.65020  Biso   1.000  N
  N103     1.0000 0.27390  0.10090  0.65020  Biso   1.000  N
  N104     1.0000 0.72610  0.89910  0.65020  Biso   1.000  N
  H273     1.0000 0.40750  0.20780  0.13340  Biso   1.000  H
  H274     1.0000 0.59250  0.79220  0.13340  Biso   1.000  H
  H275     1.0000 0.79220  0.40750  0.13340  Biso   1.000  H
  H276     1.0000 0.20780  0.59250  0.13340  Biso   1.000  H
  H277     1.0000 0.09250  0.70780  0.36660  Biso   1.000  H
  H278     1.0000 0.90750  0.29220  0.36660  Biso   1.000  H
  H279     1.0000 0.70780  0.90750  0.36660  Biso   1.000  H
  H280     1.0000 0.29220  0.09250  0.36660  Biso   1.000  H
  H281     1.0000 0.59250  0.79220  0.86660  Biso   1.000  H
  H282     1.0000 0.40750  0.20780  0.86660  Biso   1.000  H
  H283     1.0000 0.20780  0.59250  0.86660  Biso   1.000  H
  H284     1.0000 0.79220  0.40750  0.86660  Biso   1.000  H
  H285     1.0000 0.90750  0.29220  0.63340  Biso   1.000  H
  H286     1.0000 0.09250  0.70780  0.63340  Biso   1.000  H
  H287     1.0000 0.29220  0.09250  0.63340  Biso   1.000  H
  H288     1.0000 0.70780  0.90750  0.63340  Biso   1.000  H
  N105     1.0000 0.42780  0.23980  0.17560  Biso   1.000  N
  N106     1.0000 0.57220  0.76020  0.17560  Biso   1.000  N
  N107     1.0000 0.76020  0.42780  0.17560  Biso   1.000  N
  N108     1.0000 0.23980  0.57220  0.17560  Biso   1.000  N
  N109     1.0000 0.07220  0.73980  0.32440  Biso   1.000  N
  N110     1.0000 0.92780  0.26020  0.32440  Biso   1.000  N
  N111     1.0000 0.73980  0.92780  0.32440  Biso   1.000  N
  N112     1.0000 0.26020  0.07220  0.32440  Biso   1.000  N
  N113     1.0000 0.57220  0.76020  0.82440  Biso   1.000  N
  N114     1.0000 0.42780  0.23980  0.82440  Biso   1.000  N
  N115     1.0000 0.23980  0.57220  0.82440  Biso   1.000  N
  N116     1.0000 0.76020  0.42780  0.82440  Biso   1.000  N
  N117     1.0000 0.92780  0.26020  0.67560  Biso   1.000  N
  N118     1.0000 0.07220  0.73980  0.67560  Biso   1.000  N
  N119     1.0000 0.26020  0.07220  0.67560  Biso   1.000  N
  N120     1.0000 0.73980  0.92780  0.67560  Biso   1.000  N
  H289     1.0000 0.45820  0.23270  0.17840  Biso   1.000  H
  H290     1.0000 0.54180  0.76730  0.17840  Biso   1.000  H
  H291     1.0000 0.76730  0.45820  0.17840  Biso   1.000  H
  H292     1.0000 0.23270  0.54180  0.17840  Biso   1.000  H
  H293     1.0000 0.04180  0.73270  0.32160  Biso   1.000  H
  H294     1.0000 0.95820  0.26730  0.32160  Biso   1.000  H
  H295     1.0000 0.73270  0.95820  0.32160  Biso   1.000  H
  H296     1.0000 0.26730  0.04180  0.32160  Biso   1.000  H
  H297     1.0000 0.54180  0.76730  0.82160  Biso   1.000  H
  H298     1.0000 0.45820  0.23270  0.82160  Biso   1.000  H
  H299     1.0000 0.23270  0.54180  0.82160  Biso   1.000  H
  H300     1.0000 0.76730  0.45820  0.82160  Biso   1.000  H
  H301     1.0000 0.95820  0.26730  0.67840  Biso   1.000  H
  H302     1.0000 0.04180  0.73270  0.67840  Biso   1.000  H
  H303     1.0000 0.26730  0.04180  0.67840  Biso   1.000  H
  H304     1.0000 0.73270  0.95820  0.67840  Biso   1.000  H
  C497     1.0000 0.03480  0.09520  0.11920  Biso   1.000  C
  C498     1.0000 0.96520  0.90480  0.11920  Biso   1.000  C
  C499     1.0000 0.90480  0.03480  0.11920  Biso   1.000  C
  C500     1.0000 0.09520  0.96520  0.11920  Biso   1.000  C
  C501     1.0000 0.46520  0.59520  0.38080  Biso   1.000  C
  C502     1.0000 0.53480  0.40480  0.38080  Biso   1.000  C
  C503     1.0000 0.59520  0.53480  0.38080  Biso   1.000  C
  C504     1.0000 0.40480  0.46520  0.38080  Biso   1.000  C
  C505     1.0000 0.96520  0.90480  0.88080  Biso   1.000  C
  C506     1.0000 0.03480  0.09520  0.88080  Biso   1.000  C
  C507     1.0000 0.09520  0.96520  0.88080  Biso   1.000  C
  C508     1.0000 0.90480  0.03480  0.88080  Biso   1.000  C
  C509     1.0000 0.53480  0.40480  0.61920  Biso   1.000  C
  C510     1.0000 0.46520  0.59520  0.61920  Biso   1.000  C
  C511     1.0000 0.40480  0.46520  0.61920  Biso   1.000  C
  C512     1.0000 0.59520  0.53480  0.61920  Biso   1.000  C
  H305     1.0000 0.46000  0.26190  0.17390  Biso   1.000  H
  H306     1.0000 0.54000  0.73810  0.17390  Biso   1.000  H
  H307     1.0000 0.73810  0.46000  0.17390  Biso   1.000  H
  H308     1.0000 0.26190  0.54000  0.17390  Biso   1.000  H
  H309     1.0000 0.04000  0.76190  0.32610  Biso   1.000  H
  H310     1.0000 0.96000  0.23810  0.32610  Biso   1.000  H
  H311     1.0000 0.76190  0.96000  0.32610  Biso   1.000  H
  H312     1.0000 0.23810  0.04000  0.32610  Biso   1.000  H
  H313     1.0000 0.54000  0.73810  0.82610  Biso   1.000  H
  H314     1.0000 0.46000  0.26190  0.82610  Biso   1.000  H
  H315     1.0000 0.26190  0.54000  0.82610  Biso   1.000  H
  H316     1.0000 0.73810  0.46000  0.82610  Biso   1.000  H
  H317     1.0000 0.96000  0.23810  0.67390  Biso   1.000  H
  H318     1.0000 0.04000  0.76190  0.67390  Biso   1.000  H
  H319     1.0000 0.23810  0.04000  0.67390  Biso   1.000  H
  H320     1.0000 0.76190  0.96000  0.67390  Biso   1.000  H
