data_image0
_cell_length_a       18.6789
_cell_length_b       18.6789
_cell_length_c       69.259
_cell_angle_alpha    90
_cell_angle_beta     90
_cell_angle_gamma    120

_symmetry_space_group_name_H-M    "P 1"
_symmetry_int_tables_number       1

loop_
  _symmetry_equiv_pos_as_xyz
  'x, y, z'

loop_
  _atom_site_label
  _atom_site_occupancy
  _atom_site_fract_x
  _atom_site_fract_y
  _atom_site_fract_z
  _atom_site_thermal_displace_type
  _atom_site_B_iso_or_equiv
  _atom_site_type_symbol
  N1       1.0000 0.45138  0.22712  0.95971  Biso   1.000  N
  N2       1.0000 0.77288  0.22426  0.95971  Biso   1.000  N
  N3       1.0000 0.77574  0.54862  0.95971  Biso   1.000  N
  N4       1.0000 0.22712  0.45138  0.54029  Biso   1.000  N
  N5       1.0000 0.54862  0.77574  0.54029  Biso   1.000  N
  N6       1.0000 0.22426  0.77288  0.54029  Biso   1.000  N
  N7       1.0000 0.11805  0.56045  0.29304  Biso   1.000  N
  N8       1.0000 0.43955  0.55759  0.29304  Biso   1.000  N
  N9       1.0000 0.44241  0.88195  0.29304  Biso   1.000  N
  N10      1.0000 0.89379  0.78471  0.87362  Biso   1.000  N
  N11      1.0000 0.21529  0.10907  0.87362  Biso   1.000  N
  N12      1.0000 0.89093  0.10621  0.87362  Biso   1.000  N
  N13      1.0000 0.78471  0.89379  0.62638  Biso   1.000  N
  N14      1.0000 0.10621  0.89093  0.62638  Biso   1.000  N
  N15      1.0000 0.10907  0.21529  0.62638  Biso   1.000  N
  N16      1.0000 0.56045  0.11805  0.20696  Biso   1.000  N
  N17      1.0000 0.88195  0.44241  0.20696  Biso   1.000  N
  N18      1.0000 0.55759  0.43955  0.20696  Biso   1.000  N
  N19      1.0000 0.54862  0.77288  0.04029  Biso   1.000  N
  N20      1.0000 0.22712  0.77574  0.04029  Biso   1.000  N
  N21      1.0000 0.22426  0.45138  0.04029  Biso   1.000  N
  N22      1.0000 0.77288  0.54862  0.45971  Biso   1.000  N
  N23      1.0000 0.45138  0.22426  0.45971  Biso   1.000  N
  N24      1.0000 0.77574  0.22712  0.45971  Biso   1.000  N
  N25      1.0000 0.21529  0.10621  0.37362  Biso   1.000  N
  N26      1.0000 0.89379  0.10907  0.37362  Biso   1.000  N
  N27      1.0000 0.89093  0.78471  0.37362  Biso   1.000  N
  N28      1.0000 0.43955  0.88195  0.79304  Biso   1.000  N
  N29      1.0000 0.11805  0.55759  0.79304  Biso   1.000  N
  N30      1.0000 0.44241  0.56045  0.79304  Biso   1.000  N
  N31      1.0000 0.88195  0.43955  0.70696  Biso   1.000  N
  N32      1.0000 0.56045  0.44241  0.70696  Biso   1.000  N
  N33      1.0000 0.55759  0.11805  0.70696  Biso   1.000  N
  N34      1.0000 0.10621  0.21529  0.12638  Biso   1.000  N
  N35      1.0000 0.78471  0.89093  0.12638  Biso   1.000  N
  N36      1.0000 0.10907  0.89379  0.12638  Biso   1.000  N
  Cu1      1.0000 0.16279  0.87582  0.09963  Biso   1.000  Cu
  Cu2      1.0000 0.12418  0.28697  0.09963  Biso   1.000  Cu
  Cu3      1.0000 0.71303  0.83721  0.09963  Biso   1.000  Cu
  Cu4      1.0000 0.87582  0.16279  0.40037  Biso   1.000  Cu
  Cu5      1.0000 0.83721  0.71303  0.40037  Biso   1.000  Cu
  Cu6      1.0000 0.28697  0.12418  0.40037  Biso   1.000  Cu
  Cu7      1.0000 0.82946  0.20915  0.43296  Biso   1.000  Cu
  Cu8      1.0000 0.79085  0.62030  0.43296  Biso   1.000  Cu
  Cu9      1.0000 0.37970  0.17054  0.43296  Biso   1.000  Cu
  Cu10     1.0000 0.54249  0.49612  0.73370  Biso   1.000  Cu
  Cu11     1.0000 0.50388  0.04636  0.73370  Biso   1.000  Cu
  Cu12     1.0000 0.95364  0.45751  0.73370  Biso   1.000  Cu
  Cu13     1.0000 0.49612  0.54249  0.76630  Biso   1.000  Cu
  Cu14     1.0000 0.45751  0.95364  0.76630  Biso   1.000  Cu
  Cu15     1.0000 0.04636  0.50388  0.76630  Biso   1.000  Cu
  Cu16     1.0000 0.20915  0.82946  0.06704  Biso   1.000  Cu
  Cu17     1.0000 0.17054  0.37970  0.06704  Biso   1.000  Cu
  Cu18     1.0000 0.62030  0.79085  0.06704  Biso   1.000  Cu
  Cu19     1.0000 0.83721  0.12418  0.90037  Biso   1.000  Cu
  Cu20     1.0000 0.87582  0.71303  0.90037  Biso   1.000  Cu
  Cu21     1.0000 0.28697  0.16279  0.90037  Biso   1.000  Cu
  Cu22     1.0000 0.12418  0.83721  0.59963  Biso   1.000  Cu
  Cu23     1.0000 0.16279  0.28697  0.59963  Biso   1.000  Cu
  Cu24     1.0000 0.71303  0.87582  0.59963  Biso   1.000  Cu
  Cu25     1.0000 0.50388  0.45751  0.23370  Biso   1.000  Cu
  Cu26     1.0000 0.54249  0.04636  0.23370  Biso   1.000  Cu
  Cu27     1.0000 0.95364  0.49612  0.23370  Biso   1.000  Cu
  Cu28     1.0000 0.79085  0.17054  0.93296  Biso   1.000  Cu
  Cu29     1.0000 0.82946  0.62030  0.93296  Biso   1.000  Cu
  Cu30     1.0000 0.37970  0.20915  0.93296  Biso   1.000  Cu
  Cu31     1.0000 0.17054  0.79085  0.56704  Biso   1.000  Cu
  Cu32     1.0000 0.20915  0.37970  0.56704  Biso   1.000  Cu
  Cu33     1.0000 0.62030  0.82946  0.56704  Biso   1.000  Cu
  Cu34     1.0000 0.45751  0.50388  0.26630  Biso   1.000  Cu
  Cu35     1.0000 0.49612  0.95364  0.26630  Biso   1.000  Cu
  Cu36     1.0000 0.04636  0.54249  0.26630  Biso   1.000  Cu
  O1       1.0000 0.19411  0.98045  0.08716  Biso   1.000  O
  O2       1.0000 0.01955  0.21366  0.08716  Biso   1.000  O
  O3       1.0000 0.78634  0.80589  0.08716  Biso   1.000  O
  O4       1.0000 0.98045  0.19411  0.41284  Biso   1.000  O
  O5       1.0000 0.80589  0.78634  0.41284  Biso   1.000  O
  O6       1.0000 0.21366  0.01955  0.41284  Biso   1.000  O
  O7       1.0000 0.86078  0.31378  0.42049  Biso   1.000  O
  O8       1.0000 0.68622  0.54699  0.42049  Biso   1.000  O
  O9       1.0000 0.45301  0.13922  0.42049  Biso   1.000  O
  O10      1.0000 0.64712  0.52744  0.74617  Biso   1.000  O
  O11      1.0000 0.47256  0.11967  0.74617  Biso   1.000  O
  O12      1.0000 0.88033  0.35288  0.74617  Biso   1.000  O
  O13      1.0000 0.52744  0.64712  0.75383  Biso   1.000  O
  O14      1.0000 0.35288  0.88033  0.75383  Biso   1.000  O
  O15      1.0000 0.11967  0.47256  0.75383  Biso   1.000  O
  O16      1.0000 0.31378  0.86078  0.07951  Biso   1.000  O
  O17      1.0000 0.13922  0.45301  0.07951  Biso   1.000  O
  O18      1.0000 0.54699  0.68622  0.07951  Biso   1.000  O
  O19      1.0000 0.80589  0.01955  0.91284  Biso   1.000  O
  O20      1.0000 0.98045  0.78634  0.91284  Biso   1.000  O
  O21      1.0000 0.21366  0.19411  0.91284  Biso   1.000  O
  O22      1.0000 0.01955  0.80589  0.58716  Biso   1.000  O
  O23      1.0000 0.19411  0.21366  0.58716  Biso   1.000  O
  O24      1.0000 0.78634  0.98045  0.58716  Biso   1.000  O
  O25      1.0000 0.47256  0.35288  0.24617  Biso   1.000  O
  O26      1.0000 0.64712  0.11967  0.24617  Biso   1.000  O
  O27      1.0000 0.88033  0.52744  0.24617  Biso   1.000  O
  O28      1.0000 0.68622  0.13922  0.92049  Biso   1.000  O
  O29      1.0000 0.86078  0.54699  0.92049  Biso   1.000  O
  O30      1.0000 0.45301  0.31378  0.92049  Biso   1.000  O
  O31      1.0000 0.13922  0.68622  0.57951  Biso   1.000  O
  O32      1.0000 0.31378  0.45301  0.57951  Biso   1.000  O
  O33      1.0000 0.54699  0.86078  0.57951  Biso   1.000  O
  O34      1.0000 0.35288  0.47256  0.25383  Biso   1.000  O
  O35      1.0000 0.52744  0.88033  0.25383  Biso   1.000  O
  O36      1.0000 0.11967  0.64712  0.25383  Biso   1.000  O
  O37      1.0000 0.24828  0.94829  0.06191  Biso   1.000  O
  O38      1.0000 0.05171  0.29999  0.06191  Biso   1.000  O
  O39      1.0000 0.70001  0.75172  0.06191  Biso   1.000  O
  O40      1.0000 0.94829  0.24828  0.43809  Biso   1.000  O
  O41      1.0000 0.75172  0.70001  0.43809  Biso   1.000  O
  O42      1.0000 0.29999  0.05171  0.43809  Biso   1.000  O
  O43      1.0000 0.91495  0.28162  0.39524  Biso   1.000  O
  O44      1.0000 0.71838  0.63332  0.39524  Biso   1.000  O
  O45      1.0000 0.36668  0.08505  0.39524  Biso   1.000  O
  O46      1.0000 0.61496  0.58161  0.77142  Biso   1.000  O
  O47      1.0000 0.41839  0.03334  0.77142  Biso   1.000  O
  O48      1.0000 0.96666  0.38504  0.77142  Biso   1.000  O
  O49      1.0000 0.58161  0.61496  0.72858  Biso   1.000  O
  O50      1.0000 0.38504  0.96666  0.72858  Biso   1.000  O
  O51      1.0000 0.03334  0.41839  0.72858  Biso   1.000  O
  O52      1.0000 0.28162  0.91495  0.10476  Biso   1.000  O
  O53      1.0000 0.08505  0.36668  0.10476  Biso   1.000  O
  O54      1.0000 0.63332  0.71838  0.10476  Biso   1.000  O
  O55      1.0000 0.75172  0.05171  0.93809  Biso   1.000  O
  O56      1.0000 0.94829  0.70001  0.93809  Biso   1.000  O
  O57      1.0000 0.29999  0.24828  0.93809  Biso   1.000  O
  O58      1.0000 0.05171  0.75172  0.56191  Biso   1.000  O
  O59      1.0000 0.24828  0.29999  0.56191  Biso   1.000  O
  O60      1.0000 0.70001  0.94829  0.56191  Biso   1.000  O
  O61      1.0000 0.41839  0.38504  0.27142  Biso   1.000  O
  O62      1.0000 0.61496  0.03334  0.27142  Biso   1.000  O
  O63      1.0000 0.96666  0.58161  0.27142  Biso   1.000  O
  O64      1.0000 0.71838  0.08505  0.89524  Biso   1.000  O
  O65      1.0000 0.91495  0.63332  0.89524  Biso   1.000  O
  O66      1.0000 0.36668  0.28162  0.89524  Biso   1.000  O
  O67      1.0000 0.08505  0.71838  0.60476  Biso   1.000  O
  O68      1.0000 0.28162  0.36668  0.60476  Biso   1.000  O
  O69      1.0000 0.63332  0.91495  0.60476  Biso   1.000  O
  O70      1.0000 0.38504  0.41839  0.22858  Biso   1.000  O
  O71      1.0000 0.58161  0.96666  0.22858  Biso   1.000  O
  O72      1.0000 0.03334  0.61496  0.22858  Biso   1.000  O
  O73      1.0000 0.20024  0.30044  0.05731  Biso   1.000  O
  O74      1.0000 0.69956  0.89980  0.05731  Biso   1.000  O
  O75      1.0000 0.10020  0.79976  0.05731  Biso   1.000  O
  O76      1.0000 0.30044  0.20024  0.44269  Biso   1.000  O
  O77      1.0000 0.79976  0.10020  0.44269  Biso   1.000  O
  O78      1.0000 0.89980  0.69956  0.44269  Biso   1.000  O
  O79      1.0000 0.86691  0.63377  0.39064  Biso   1.000  O
  O80      1.0000 0.36623  0.23313  0.39064  Biso   1.000  O
  O81      1.0000 0.76687  0.13309  0.39064  Biso   1.000  O
  O82      1.0000 0.96711  0.53357  0.77602  Biso   1.000  O
  O83      1.0000 0.46643  0.43353  0.77602  Biso   1.000  O
  O84      1.0000 0.56647  0.03289  0.77602  Biso   1.000  O
  O85      1.0000 0.53357  0.96711  0.72398  Biso   1.000  O
  O86      1.0000 0.03289  0.56647  0.72398  Biso   1.000  O
  O87      1.0000 0.43353  0.46643  0.72398  Biso   1.000  O
  O88      1.0000 0.63377  0.86691  0.10936  Biso   1.000  O
  O89      1.0000 0.13309  0.76687  0.10936  Biso   1.000  O
  O90      1.0000 0.23313  0.36623  0.10936  Biso   1.000  O
  O91      1.0000 0.79976  0.69956  0.94269  Biso   1.000  O
  O92      1.0000 0.30044  0.10020  0.94269  Biso   1.000  O
  O93      1.0000 0.89980  0.20024  0.94269  Biso   1.000  O
  O94      1.0000 0.69956  0.79976  0.55731  Biso   1.000  O
  O95      1.0000 0.20024  0.89980  0.55731  Biso   1.000  O
  O96      1.0000 0.10020  0.30044  0.55731  Biso   1.000  O
  O97      1.0000 0.46643  0.03289  0.27602  Biso   1.000  O
  O98      1.0000 0.96711  0.43353  0.27602  Biso   1.000  O
  O99      1.0000 0.56647  0.53357  0.27602  Biso   1.000  O
  O100     1.0000 0.36623  0.13309  0.89064  Biso   1.000  O
  O101     1.0000 0.86691  0.23313  0.89064  Biso   1.000  O
  O102     1.0000 0.76687  0.63377  0.89064  Biso   1.000  O
  O103     1.0000 0.13309  0.36623  0.60936  Biso   1.000  O
  O104     1.0000 0.63377  0.76687  0.60936  Biso   1.000  O
  O105     1.0000 0.23313  0.86691  0.60936  Biso   1.000  O
  O106     1.0000 0.03289  0.46643  0.22398  Biso   1.000  O
  O107     1.0000 0.53357  0.56647  0.22398  Biso   1.000  O
  O108     1.0000 0.43353  0.96711  0.22398  Biso   1.000  O
  O109     1.0000 0.17411  0.23091  0.08502  Biso   1.000  O
  O110     1.0000 0.76909  0.94320  0.08502  Biso   1.000  O
  O111     1.0000 0.05680  0.82589  0.08502  Biso   1.000  O
  O112     1.0000 0.23091  0.17411  0.41498  Biso   1.000  O
  O113     1.0000 0.82589  0.05680  0.41498  Biso   1.000  O
  O114     1.0000 0.94320  0.76909  0.41498  Biso   1.000  O
  O115     1.0000 0.84078  0.56424  0.41835  Biso   1.000  O
  O116     1.0000 0.43576  0.27653  0.41835  Biso   1.000  O
  O117     1.0000 0.72347  0.15922  0.41835  Biso   1.000  O
  O118     1.0000 0.89758  0.50744  0.74831  Biso   1.000  O
  O119     1.0000 0.49256  0.39013  0.74831  Biso   1.000  O
  O120     1.0000 0.60987  0.10242  0.74831  Biso   1.000  O
  O121     1.0000 0.50744  0.89758  0.75169  Biso   1.000  O
  O122     1.0000 0.10242  0.60987  0.75169  Biso   1.000  O
  O123     1.0000 0.39013  0.49256  0.75169  Biso   1.000  O
  O124     1.0000 0.56424  0.84078  0.08165  Biso   1.000  O
  O125     1.0000 0.15922  0.72347  0.08165  Biso   1.000  O
  O126     1.0000 0.27653  0.43576  0.08165  Biso   1.000  O
  O127     1.0000 0.82589  0.76909  0.91498  Biso   1.000  O
  O128     1.0000 0.23091  0.05680  0.91498  Biso   1.000  O
  O129     1.0000 0.94320  0.17411  0.91498  Biso   1.000  O
  O130     1.0000 0.76909  0.82589  0.58502  Biso   1.000  O
  O131     1.0000 0.17411  0.94320  0.58502  Biso   1.000  O
  O132     1.0000 0.05680  0.23091  0.58502  Biso   1.000  O
  O133     1.0000 0.49256  0.10242  0.24831  Biso   1.000  O
  O134     1.0000 0.89758  0.39013  0.24831  Biso   1.000  O
  O135     1.0000 0.60987  0.50744  0.24831  Biso   1.000  O
  O136     1.0000 0.43576  0.15922  0.91835  Biso   1.000  O
  O137     1.0000 0.84078  0.27653  0.91835  Biso   1.000  O
  O138     1.0000 0.72347  0.56424  0.91835  Biso   1.000  O
  O139     1.0000 0.15922  0.43576  0.58165  Biso   1.000  O
  O140     1.0000 0.56424  0.72347  0.58165  Biso   1.000  O
  O141     1.0000 0.27653  0.84078  0.58165  Biso   1.000  O
  O142     1.0000 0.10242  0.49256  0.25169  Biso   1.000  O
  O143     1.0000 0.50744  0.60987  0.25169  Biso   1.000  O
  O144     1.0000 0.39013  0.89758  0.25169  Biso   1.000  O
  C1       1.0000 0.51970  0.22320  0.95748  Biso   1.000  C
  C2       1.0000 0.77680  0.29650  0.95748  Biso   1.000  C
  C3       1.0000 0.70350  0.48030  0.95748  Biso   1.000  C
  C4       1.0000 0.22320  0.51970  0.54252  Biso   1.000  C
  C5       1.0000 0.48030  0.70350  0.54252  Biso   1.000  C
  C6       1.0000 0.29650  0.77680  0.54252  Biso   1.000  C
  C7       1.0000 0.18637  0.55653  0.29081  Biso   1.000  C
  C8       1.0000 0.44347  0.62983  0.29081  Biso   1.000  C
  C9       1.0000 0.37017  0.81363  0.29081  Biso   1.000  C
  C10      1.0000 0.88987  0.85303  0.87585  Biso   1.000  C
  C11      1.0000 0.14697  0.03683  0.87585  Biso   1.000  C
  C12      1.0000 0.96317  0.11013  0.87585  Biso   1.000  C
  C13      1.0000 0.85303  0.88987  0.62415  Biso   1.000  C
  C14      1.0000 0.11013  0.96317  0.62415  Biso   1.000  C
  C15      1.0000 0.03683  0.14697  0.62415  Biso   1.000  C
  C16      1.0000 0.55653  0.18637  0.20919  Biso   1.000  C
  C17      1.0000 0.81363  0.37017  0.20919  Biso   1.000  C
  C18      1.0000 0.62983  0.44347  0.20919  Biso   1.000  C
  C19      1.0000 0.48030  0.77680  0.04252  Biso   1.000  C
  C20      1.0000 0.22320  0.70350  0.04252  Biso   1.000  C
  C21      1.0000 0.29650  0.51970  0.04252  Biso   1.000  C
  C22      1.0000 0.77680  0.48030  0.45748  Biso   1.000  C
  C23      1.0000 0.51970  0.29650  0.45748  Biso   1.000  C
  C24      1.0000 0.70350  0.22320  0.45748  Biso   1.000  C
  C25      1.0000 0.14697  0.11013  0.37585  Biso   1.000  C
  C26      1.0000 0.88987  0.03683  0.37585  Biso   1.000  C
  C27      1.0000 0.96317  0.85303  0.37585  Biso   1.000  C
  C28      1.0000 0.44347  0.81363  0.79081  Biso   1.000  C
  C29      1.0000 0.18637  0.62983  0.79081  Biso   1.000  C
  C30      1.0000 0.37017  0.55653  0.79081  Biso   1.000  C
  C31      1.0000 0.81363  0.44347  0.70919  Biso   1.000  C
  C32      1.0000 0.55653  0.37017  0.70919  Biso   1.000  C
  C33      1.0000 0.62983  0.18637  0.70919  Biso   1.000  C
  C34      1.0000 0.11013  0.14697  0.12415  Biso   1.000  C
  C35      1.0000 0.85303  0.96317  0.12415  Biso   1.000  C
  C36      1.0000 0.03683  0.88987  0.12415  Biso   1.000  C
  H1       1.0000 0.54230  0.23030  0.94490  Biso   1.000  H
  H2       1.0000 0.76970  0.31200  0.94490  Biso   1.000  H
  H3       1.0000 0.68800  0.45770  0.94490  Biso   1.000  H
  H4       1.0000 0.23030  0.54230  0.55510  Biso   1.000  H
  H5       1.0000 0.45770  0.68800  0.55510  Biso   1.000  H
  H6       1.0000 0.31200  0.76970  0.55510  Biso   1.000  H
  H7       1.0000 0.20897  0.56363  0.27823  Biso   1.000  H
  H8       1.0000 0.43637  0.64533  0.27823  Biso   1.000  H
  H9       1.0000 0.35467  0.79103  0.27823  Biso   1.000  H
  H10      1.0000 0.89697  0.87563  0.88843  Biso   1.000  H
  H11      1.0000 0.12437  0.02133  0.88843  Biso   1.000  H
  H12      1.0000 0.97867  0.10303  0.88843  Biso   1.000  H
  H13      1.0000 0.87563  0.89697  0.61157  Biso   1.000  H
  H14      1.0000 0.10303  0.97867  0.61157  Biso   1.000  H
  H15      1.0000 0.02133  0.12437  0.61157  Biso   1.000  H
  H16      1.0000 0.56363  0.20897  0.22177  Biso   1.000  H
  H17      1.0000 0.79103  0.35467  0.22177  Biso   1.000  H
  H18      1.0000 0.64533  0.43637  0.22177  Biso   1.000  H
  H19      1.0000 0.45770  0.76970  0.05510  Biso   1.000  H
  H20      1.0000 0.23030  0.68800  0.05510  Biso   1.000  H
  H21      1.0000 0.31200  0.54230  0.05510  Biso   1.000  H
  H22      1.0000 0.76970  0.45770  0.44490  Biso   1.000  H
  H23      1.0000 0.54230  0.31200  0.44490  Biso   1.000  H
  H24      1.0000 0.68800  0.23030  0.44490  Biso   1.000  H
  H25      1.0000 0.12437  0.10303  0.38843  Biso   1.000  H
  H26      1.0000 0.89697  0.02133  0.38843  Biso   1.000  H
  H27      1.0000 0.97867  0.87563  0.38843  Biso   1.000  H
  H28      1.0000 0.43637  0.79103  0.77823  Biso   1.000  H
  H29      1.0000 0.20897  0.64533  0.77823  Biso   1.000  H
  H30      1.0000 0.35467  0.56363  0.77823  Biso   1.000  H
  H31      1.0000 0.79103  0.43637  0.72177  Biso   1.000  H
  H32      1.0000 0.56363  0.35467  0.72177  Biso   1.000  H
  H33      1.0000 0.64533  0.20897  0.72177  Biso   1.000  H
  H34      1.0000 0.10303  0.12437  0.11157  Biso   1.000  H
  H35      1.0000 0.87563  0.97867  0.11157  Biso   1.000  H
  H36      1.0000 0.02133  0.89697  0.11157  Biso   1.000  H
  C37      1.0000 0.56050  0.20920  0.97282  Biso   1.000  C
  C38      1.0000 0.79080  0.35130  0.97282  Biso   1.000  C
  C39      1.0000 0.64870  0.43950  0.97282  Biso   1.000  C
  C40      1.0000 0.20920  0.56050  0.52718  Biso   1.000  C
  C41      1.0000 0.43950  0.64870  0.52718  Biso   1.000  C
  C42      1.0000 0.35130  0.79080  0.52718  Biso   1.000  C
  C43      1.0000 0.22717  0.54253  0.30615  Biso   1.000  C
  C44      1.0000 0.45747  0.68463  0.30615  Biso   1.000  C
  C45      1.0000 0.31537  0.77283  0.30615  Biso   1.000  C
  C46      1.0000 0.87587  0.89383  0.86051  Biso   1.000  C
  C47      1.0000 0.10617  0.98203  0.86051  Biso   1.000  C
  C48      1.0000 0.01797  0.12413  0.86051  Biso   1.000  C
  C49      1.0000 0.89383  0.87587  0.63949  Biso   1.000  C
  C50      1.0000 0.12413  0.01797  0.63949  Biso   1.000  C
  C51      1.0000 0.98203  0.10617  0.63949  Biso   1.000  C
  C52      1.0000 0.54253  0.22717  0.19385  Biso   1.000  C
  C53      1.0000 0.77283  0.31537  0.19385  Biso   1.000  C
  C54      1.0000 0.68463  0.45747  0.19385  Biso   1.000  C
  C55      1.0000 0.43950  0.79080  0.02718  Biso   1.000  C
  C56      1.0000 0.20920  0.64870  0.02718  Biso   1.000  C
  C57      1.0000 0.35130  0.56050  0.02718  Biso   1.000  C
  C58      1.0000 0.79080  0.43950  0.47282  Biso   1.000  C
  C59      1.0000 0.56050  0.35130  0.47282  Biso   1.000  C
  C60      1.0000 0.64870  0.20920  0.47282  Biso   1.000  C
  C61      1.0000 0.10617  0.12413  0.36051  Biso   1.000  C
  C62      1.0000 0.87587  0.98203  0.36051  Biso   1.000  C
  C63      1.0000 0.01797  0.89383  0.36051  Biso   1.000  C
  C64      1.0000 0.45747  0.77283  0.80615  Biso   1.000  C
  C65      1.0000 0.22717  0.68463  0.80615  Biso   1.000  C
  C66      1.0000 0.31537  0.54253  0.80615  Biso   1.000  C
  C67      1.0000 0.77283  0.45747  0.69385  Biso   1.000  C
  C68      1.0000 0.54253  0.31537  0.69385  Biso   1.000  C
  C69      1.0000 0.68463  0.22717  0.69385  Biso   1.000  C
  C70      1.0000 0.12413  0.10617  0.13949  Biso   1.000  C
  C71      1.0000 0.89383  0.01797  0.13949  Biso   1.000  C
  C72      1.0000 0.98203  0.87587  0.13949  Biso   1.000  C
  H37      1.0000 0.60990  0.20760  0.97050  Biso   1.000  H
  H38      1.0000 0.79240  0.40230  0.97050  Biso   1.000  H
  H39      1.0000 0.59770  0.39010  0.97050  Biso   1.000  H
  H40      1.0000 0.20760  0.60990  0.52950  Biso   1.000  H
  H41      1.0000 0.39010  0.59770  0.52950  Biso   1.000  H
  H42      1.0000 0.40230  0.79240  0.52950  Biso   1.000  H
  H43      1.0000 0.27657  0.54093  0.30383  Biso   1.000  H
  H44      1.0000 0.45907  0.73563  0.30383  Biso   1.000  H
  H45      1.0000 0.26437  0.72343  0.30383  Biso   1.000  H
  H46      1.0000 0.87427  0.94323  0.86283  Biso   1.000  H
  H47      1.0000 0.05677  0.93103  0.86283  Biso   1.000  H
  H48      1.0000 0.06897  0.12573  0.86283  Biso   1.000  H
  H49      1.0000 0.94323  0.87427  0.63717  Biso   1.000  H
  H50      1.0000 0.12573  0.06897  0.63717  Biso   1.000  H
  H51      1.0000 0.93103  0.05677  0.63717  Biso   1.000  H
  H52      1.0000 0.54093  0.27657  0.19617  Biso   1.000  H
  H53      1.0000 0.72343  0.26437  0.19617  Biso   1.000  H
  H54      1.0000 0.73563  0.45907  0.19617  Biso   1.000  H
  H55      1.0000 0.39010  0.79240  0.02950  Biso   1.000  H
  H56      1.0000 0.20760  0.59770  0.02950  Biso   1.000  H
  H57      1.0000 0.40230  0.60990  0.02950  Biso   1.000  H
  H58      1.0000 0.79240  0.39010  0.47050  Biso   1.000  H
  H59      1.0000 0.60990  0.40230  0.47050  Biso   1.000  H
  H60      1.0000 0.59770  0.20760  0.47050  Biso   1.000  H
  H61      1.0000 0.05677  0.12573  0.36283  Biso   1.000  H
  H62      1.0000 0.87427  0.93103  0.36283  Biso   1.000  H
  H63      1.0000 0.06897  0.94323  0.36283  Biso   1.000  H
  H64      1.0000 0.45907  0.72343  0.80383  Biso   1.000  H
  H65      1.0000 0.27657  0.73563  0.80383  Biso   1.000  H
  H66      1.0000 0.26437  0.54093  0.80383  Biso   1.000  H
  H67      1.0000 0.72343  0.45907  0.69617  Biso   1.000  H
  H68      1.0000 0.54093  0.26437  0.69617  Biso   1.000  H
  H69      1.0000 0.73563  0.27657  0.69617  Biso   1.000  H
  H70      1.0000 0.12573  0.05677  0.13717  Biso   1.000  H
  H71      1.0000 0.94323  0.06897  0.13717  Biso   1.000  H
  H72      1.0000 0.93103  0.87427  0.13717  Biso   1.000  H
  C73      1.0000 0.52890  0.19790  0.99076  Biso   1.000  C
  C74      1.0000 0.80210  0.33100  0.99076  Biso   1.000  C
  C75      1.0000 0.66900  0.47110  0.99076  Biso   1.000  C
  C76      1.0000 0.19790  0.52890  0.50924  Biso   1.000  C
  C77      1.0000 0.47110  0.66900  0.50924  Biso   1.000  C
  C78      1.0000 0.33100  0.80210  0.50924  Biso   1.000  C
  C79      1.0000 0.19557  0.53123  0.32409  Biso   1.000  C
  C80      1.0000 0.46877  0.66433  0.32409  Biso   1.000  C
  C81      1.0000 0.33567  0.80443  0.32409  Biso   1.000  C
  C82      1.0000 0.86457  0.86223  0.84257  Biso   1.000  C
  C83      1.0000 0.13777  0.00233  0.84257  Biso   1.000  C
  C84      1.0000 0.99767  0.13543  0.84257  Biso   1.000  C
  C85      1.0000 0.86223  0.86457  0.65743  Biso   1.000  C
  C86      1.0000 0.13543  0.99767  0.65743  Biso   1.000  C
  C87      1.0000 0.00233  0.13777  0.65743  Biso   1.000  C
  C88      1.0000 0.53123  0.19557  0.17591  Biso   1.000  C
  C89      1.0000 0.80443  0.33567  0.17591  Biso   1.000  C
  C90      1.0000 0.66433  0.46877  0.17591  Biso   1.000  C
  C91      1.0000 0.47110  0.80210  0.00924  Biso   1.000  C
  C92      1.0000 0.19790  0.66900  0.00924  Biso   1.000  C
  C93      1.0000 0.33100  0.52890  0.00924  Biso   1.000  C
  C94      1.0000 0.80210  0.47110  0.49076  Biso   1.000  C
  C95      1.0000 0.52890  0.33100  0.49076  Biso   1.000  C
  C96      1.0000 0.66900  0.19790  0.49076  Biso   1.000  C
  C97      1.0000 0.13777  0.13543  0.34257  Biso   1.000  C
  C98      1.0000 0.86457  0.00233  0.34257  Biso   1.000  C
  C99      1.0000 0.99767  0.86223  0.34257  Biso   1.000  C
  C100     1.0000 0.46877  0.80443  0.82409  Biso   1.000  C
  C101     1.0000 0.19557  0.66433  0.82409  Biso   1.000  C
  C102     1.0000 0.33567  0.53123  0.82409  Biso   1.000  C
  C103     1.0000 0.80443  0.46877  0.67591  Biso   1.000  C
  C104     1.0000 0.53123  0.33567  0.67591  Biso   1.000  C
  C105     1.0000 0.66433  0.19557  0.67591  Biso   1.000  C
  C106     1.0000 0.13543  0.13777  0.15743  Biso   1.000  C
  C107     1.0000 0.86223  0.99767  0.15743  Biso   1.000  C
  C108     1.0000 0.00233  0.86457  0.15743  Biso   1.000  C
  H73      1.0000 0.55630  0.18920  0.00130  Biso   1.000  H
  H74      1.0000 0.81080  0.36710  0.00130  Biso   1.000  H
  H75      1.0000 0.63290  0.44370  0.00130  Biso   1.000  H
  H76      1.0000 0.18920  0.55630  0.49870  Biso   1.000  H
  H77      1.0000 0.44370  0.63290  0.49870  Biso   1.000  H
  H78      1.0000 0.36710  0.81080  0.49870  Biso   1.000  H
  H79      1.0000 0.22297  0.52253  0.33463  Biso   1.000  H
  H80      1.0000 0.47747  0.70043  0.33463  Biso   1.000  H
  H81      1.0000 0.29957  0.77703  0.33463  Biso   1.000  H
  H82      1.0000 0.85587  0.88963  0.83203  Biso   1.000  H
  H83      1.0000 0.11037  0.96623  0.83203  Biso   1.000  H
  H84      1.0000 0.03377  0.14413  0.83203  Biso   1.000  H
  H85      1.0000 0.88963  0.85587  0.66797  Biso   1.000  H
  H86      1.0000 0.14413  0.03377  0.66797  Biso   1.000  H
  H87      1.0000 0.96623  0.11037  0.66797  Biso   1.000  H
  H88      1.0000 0.52253  0.22297  0.16537  Biso   1.000  H
  H89      1.0000 0.77703  0.29957  0.16537  Biso   1.000  H
  H90      1.0000 0.70043  0.47747  0.16537  Biso   1.000  H
  H91      1.0000 0.44370  0.81080  0.99870  Biso   1.000  H
  H92      1.0000 0.18920  0.63290  0.99870  Biso   1.000  H
  H93      1.0000 0.36710  0.55630  0.99870  Biso   1.000  H
  H94      1.0000 0.81080  0.44370  0.50130  Biso   1.000  H
  H95      1.0000 0.55630  0.36710  0.50130  Biso   1.000  H
  H96      1.0000 0.63290  0.18920  0.50130  Biso   1.000  H
  H97      1.0000 0.11037  0.14413  0.33203  Biso   1.000  H
  H98      1.0000 0.85587  0.96623  0.33203  Biso   1.000  H
  H99      1.0000 0.03377  0.88963  0.33203  Biso   1.000  H
  H100     1.0000 0.47747  0.77703  0.83463  Biso   1.000  H
  H101     1.0000 0.22297  0.70043  0.83463  Biso   1.000  H
  H102     1.0000 0.29957  0.52253  0.83463  Biso   1.000  H
  H103     1.0000 0.77703  0.47747  0.66537  Biso   1.000  H
  H104     1.0000 0.52253  0.29957  0.66537  Biso   1.000  H
  H105     1.0000 0.70043  0.22297  0.66537  Biso   1.000  H
  H106     1.0000 0.14413  0.11037  0.16797  Biso   1.000  H
  H107     1.0000 0.88963  0.03377  0.16797  Biso   1.000  H
  H108     1.0000 0.96623  0.85587  0.16797  Biso   1.000  H
  C109     1.0000 0.45530  0.19910  0.99385  Biso   1.000  C
  C110     1.0000 0.80090  0.25620  0.99385  Biso   1.000  C
  C111     1.0000 0.74380  0.54470  0.99385  Biso   1.000  C
  C112     1.0000 0.19910  0.45530  0.50615  Biso   1.000  C
  C113     1.0000 0.54470  0.74380  0.50615  Biso   1.000  C
  C114     1.0000 0.25620  0.80090  0.50615  Biso   1.000  C
  C115     1.0000 0.12197  0.53243  0.32718  Biso   1.000  C
  C116     1.0000 0.46757  0.58953  0.32718  Biso   1.000  C
  C117     1.0000 0.41047  0.87803  0.32718  Biso   1.000  C
  C118     1.0000 0.86577  0.78863  0.83948  Biso   1.000  C
  C119     1.0000 0.21137  0.07713  0.83948  Biso   1.000  C
  C120     1.0000 0.92287  0.13423  0.83948  Biso   1.000  C
  C121     1.0000 0.78863  0.86577  0.66052  Biso   1.000  C
  C122     1.0000 0.13423  0.92287  0.66052  Biso   1.000  C
  C123     1.0000 0.07713  0.21137  0.66052  Biso   1.000  C
  C124     1.0000 0.53243  0.12197  0.17282  Biso   1.000  C
  C125     1.0000 0.87803  0.41047  0.17282  Biso   1.000  C
  C126     1.0000 0.58953  0.46757  0.17282  Biso   1.000  C
  C127     1.0000 0.54470  0.80090  0.00615  Biso   1.000  C
  C128     1.0000 0.19910  0.74380  0.00615  Biso   1.000  C
  C129     1.0000 0.25620  0.45530  0.00615  Biso   1.000  C
  C130     1.0000 0.80090  0.54470  0.49385  Biso   1.000  C
  C131     1.0000 0.45530  0.25620  0.49385  Biso   1.000  C
  C132     1.0000 0.74380  0.19910  0.49385  Biso   1.000  C
  C133     1.0000 0.21137  0.13423  0.33948  Biso   1.000  C
  C134     1.0000 0.86577  0.07713  0.33948  Biso   1.000  C
  C135     1.0000 0.92287  0.78863  0.33948  Biso   1.000  C
  C136     1.0000 0.46757  0.87803  0.82718  Biso   1.000  C
  C137     1.0000 0.12197  0.58953  0.82718  Biso   1.000  C
  C138     1.0000 0.41047  0.53243  0.82718  Biso   1.000  C
  C139     1.0000 0.87803  0.46757  0.67282  Biso   1.000  C
  C140     1.0000 0.53243  0.41047  0.67282  Biso   1.000  C
  C141     1.0000 0.58953  0.12197  0.67282  Biso   1.000  C
  C142     1.0000 0.13423  0.21137  0.16052  Biso   1.000  C
  C143     1.0000 0.78863  0.92287  0.16052  Biso   1.000  C
  C144     1.0000 0.07713  0.86577  0.16052  Biso   1.000  C
  C145     1.0000 0.41870  0.21580  0.97797  Biso   1.000  C
  C146     1.0000 0.78420  0.20290  0.97797  Biso   1.000  C
  C147     1.0000 0.79710  0.58130  0.97797  Biso   1.000  C
  C148     1.0000 0.21580  0.41870  0.52203  Biso   1.000  C
  C149     1.0000 0.58130  0.79710  0.52203  Biso   1.000  C
  C150     1.0000 0.20290  0.78420  0.52203  Biso   1.000  C
  C151     1.0000 0.08537  0.54913  0.31130  Biso   1.000  C
  C152     1.0000 0.45087  0.53623  0.31130  Biso   1.000  C
  C153     1.0000 0.46377  0.91463  0.31130  Biso   1.000  C
  C154     1.0000 0.88247  0.75203  0.85536  Biso   1.000  C
  C155     1.0000 0.24797  0.13043  0.85536  Biso   1.000  C
  C156     1.0000 0.86957  0.11753  0.85536  Biso   1.000  C
  C157     1.0000 0.75203  0.88247  0.64464  Biso   1.000  C
  C158     1.0000 0.11753  0.86957  0.64464  Biso   1.000  C
  C159     1.0000 0.13043  0.24797  0.64464  Biso   1.000  C
  C160     1.0000 0.54913  0.08537  0.18870  Biso   1.000  C
  C161     1.0000 0.91463  0.46377  0.18870  Biso   1.000  C
  C162     1.0000 0.53623  0.45087  0.18870  Biso   1.000  C
  C163     1.0000 0.58130  0.78420  0.02203  Biso   1.000  C
  C164     1.0000 0.21580  0.79710  0.02203  Biso   1.000  C
  C165     1.0000 0.20290  0.41870  0.02203  Biso   1.000  C
  C166     1.0000 0.78420  0.58130  0.47797  Biso   1.000  C
  C167     1.0000 0.41870  0.20290  0.47797  Biso   1.000  C
  C168     1.0000 0.79710  0.21580  0.47797  Biso   1.000  C
  C169     1.0000 0.24797  0.11753  0.35536  Biso   1.000  C
  C170     1.0000 0.88247  0.13043  0.35536  Biso   1.000  C
  C171     1.0000 0.86957  0.75203  0.35536  Biso   1.000  C
  C172     1.0000 0.45087  0.91463  0.81130  Biso   1.000  C
  C173     1.0000 0.08537  0.53623  0.81130  Biso   1.000  C
  C174     1.0000 0.46377  0.54913  0.81130  Biso   1.000  C
  C175     1.0000 0.91463  0.45087  0.68870  Biso   1.000  C
  C176     1.0000 0.54913  0.46377  0.68870  Biso   1.000  C
  C177     1.0000 0.53623  0.08537  0.68870  Biso   1.000  C
  C178     1.0000 0.11753  0.24797  0.14464  Biso   1.000  C
  C179     1.0000 0.75203  0.86957  0.14464  Biso   1.000  C
  C180     1.0000 0.13043  0.88247  0.14464  Biso   1.000  C
  C181     1.0000 0.34580  0.21920  0.98080  Biso   1.000  C
  C182     1.0000 0.78080  0.12660  0.98080  Biso   1.000  C
  C183     1.0000 0.87340  0.65420  0.98080  Biso   1.000  C
  C184     1.0000 0.21920  0.34580  0.51920  Biso   1.000  C
  C185     1.0000 0.65420  0.87340  0.51920  Biso   1.000  C
  C186     1.0000 0.12660  0.78080  0.51920  Biso   1.000  C
  C187     1.0000 0.01247  0.55253  0.31413  Biso   1.000  C
  C188     1.0000 0.44747  0.45993  0.31413  Biso   1.000  C
  C189     1.0000 0.54007  0.98753  0.31413  Biso   1.000  C
  C190     1.0000 0.88587  0.67913  0.85253  Biso   1.000  C
  C191     1.0000 0.32087  0.20673  0.85253  Biso   1.000  C
  C192     1.0000 0.79327  0.11413  0.85253  Biso   1.000  C
  C193     1.0000 0.67913  0.88587  0.64747  Biso   1.000  C
  C194     1.0000 0.11413  0.79327  0.64747  Biso   1.000  C
  C195     1.0000 0.20673  0.32087  0.64747  Biso   1.000  C
  C196     1.0000 0.55253  0.01247  0.18587  Biso   1.000  C
  C197     1.0000 0.98753  0.54007  0.18587  Biso   1.000  C
  C198     1.0000 0.45993  0.44747  0.18587  Biso   1.000  C
  C199     1.0000 0.65420  0.78080  0.01920  Biso   1.000  C
  C200     1.0000 0.21920  0.87340  0.01920  Biso   1.000  C
  C201     1.0000 0.12660  0.34580  0.01920  Biso   1.000  C
  C202     1.0000 0.78080  0.65420  0.48080  Biso   1.000  C
  C203     1.0000 0.34580  0.12660  0.48080  Biso   1.000  C
  C204     1.0000 0.87340  0.21920  0.48080  Biso   1.000  C
  C205     1.0000 0.32087  0.11413  0.35253  Biso   1.000  C
  C206     1.0000 0.88587  0.20673  0.35253  Biso   1.000  C
  C207     1.0000 0.79327  0.67913  0.35253  Biso   1.000  C
  C208     1.0000 0.44747  0.98753  0.81413  Biso   1.000  C
  C209     1.0000 0.01247  0.45993  0.81413  Biso   1.000  C
  C210     1.0000 0.54007  0.55253  0.81413  Biso   1.000  C
  C211     1.0000 0.98753  0.44747  0.68587  Biso   1.000  C
  C212     1.0000 0.55253  0.54007  0.68587  Biso   1.000  C
  C213     1.0000 0.45993  0.01247  0.68587  Biso   1.000  C
  C214     1.0000 0.11413  0.32087  0.14747  Biso   1.000  C
  C215     1.0000 0.67913  0.79327  0.14747  Biso   1.000  C
  C216     1.0000 0.20673  0.88587  0.14747  Biso   1.000  C
  H109     1.0000 0.32100  0.23080  0.97020  Biso   1.000  H
  H110     1.0000 0.76920  0.09020  0.97020  Biso   1.000  H
  H111     1.0000 0.90980  0.67900  0.97020  Biso   1.000  H
  H112     1.0000 0.23080  0.32100  0.52980  Biso   1.000  H
  H113     1.0000 0.67900  0.90980  0.52980  Biso   1.000  H
  H114     1.0000 0.09020  0.76920  0.52980  Biso   1.000  H
  H115     1.0000 0.98767  0.56413  0.30353  Biso   1.000  H
  H116     1.0000 0.43587  0.42353  0.30353  Biso   1.000  H
  H117     1.0000 0.57647  0.01233  0.30353  Biso   1.000  H
  H118     1.0000 0.89747  0.65433  0.86313  Biso   1.000  H
  H119     1.0000 0.34567  0.24313  0.86313  Biso   1.000  H
  H120     1.0000 0.75687  0.10253  0.86313  Biso   1.000  H
  H121     1.0000 0.65433  0.89747  0.63687  Biso   1.000  H
  H122     1.0000 0.10253  0.75687  0.63687  Biso   1.000  H
  H123     1.0000 0.24313  0.34567  0.63687  Biso   1.000  H
  H124     1.0000 0.56413  0.98767  0.19647  Biso   1.000  H
  H125     1.0000 0.01233  0.57647  0.19647  Biso   1.000  H
  H126     1.0000 0.42353  0.43587  0.19647  Biso   1.000  H
  H127     1.0000 0.67900  0.76920  0.02980  Biso   1.000  H
  H128     1.0000 0.23080  0.90980  0.02980  Biso   1.000  H
  H129     1.0000 0.09020  0.32100  0.02980  Biso   1.000  H
  H130     1.0000 0.76920  0.67900  0.47020  Biso   1.000  H
  H131     1.0000 0.32100  0.09020  0.47020  Biso   1.000  H
  H132     1.0000 0.90980  0.23080  0.47020  Biso   1.000  H
  H133     1.0000 0.34567  0.10253  0.36313  Biso   1.000  H
  H134     1.0000 0.89747  0.24313  0.36313  Biso   1.000  H
  H135     1.0000 0.75687  0.65433  0.36313  Biso   1.000  H
  H136     1.0000 0.43587  0.01233  0.80353  Biso   1.000  H
  H137     1.0000 0.98767  0.42353  0.80353  Biso   1.000  H
  H138     1.0000 0.57647  0.56413  0.80353  Biso   1.000  H
  H139     1.0000 0.01233  0.43587  0.69647  Biso   1.000  H
  H140     1.0000 0.56413  0.57647  0.69647  Biso   1.000  H
  H141     1.0000 0.42353  0.98767  0.69647  Biso   1.000  H
  H142     1.0000 0.10253  0.34567  0.13687  Biso   1.000  H
  H143     1.0000 0.65433  0.75687  0.13687  Biso   1.000  H
  H144     1.0000 0.24313  0.89747  0.13687  Biso   1.000  H
  C217     1.0000 0.31060  0.20580  0.99863  Biso   1.000  C
  C218     1.0000 0.79420  0.10480  0.99863  Biso   1.000  C
  C219     1.0000 0.89520  0.68940  0.99863  Biso   1.000  C
  C220     1.0000 0.20580  0.31060  0.50137  Biso   1.000  C
  C221     1.0000 0.68940  0.89520  0.50137  Biso   1.000  C
  C222     1.0000 0.10480  0.79420  0.50137  Biso   1.000  C
  C223     1.0000 0.97727  0.53913  0.33196  Biso   1.000  C
  C224     1.0000 0.46087  0.43813  0.33196  Biso   1.000  C
  C225     1.0000 0.56187  0.02273  0.33196  Biso   1.000  C
  C226     1.0000 0.87247  0.64393  0.83470  Biso   1.000  C
  C227     1.0000 0.35607  0.22853  0.83470  Biso   1.000  C
  C228     1.0000 0.77147  0.12753  0.83470  Biso   1.000  C
  C229     1.0000 0.64393  0.87247  0.66530  Biso   1.000  C
  C230     1.0000 0.12753  0.77147  0.66530  Biso   1.000  C
  C231     1.0000 0.22853  0.35607  0.66530  Biso   1.000  C
  C232     1.0000 0.53913  0.97727  0.16804  Biso   1.000  C
  C233     1.0000 0.02273  0.56187  0.16804  Biso   1.000  C
  C234     1.0000 0.43813  0.46087  0.16804  Biso   1.000  C
  C235     1.0000 0.68940  0.79420  0.00137  Biso   1.000  C
  C236     1.0000 0.20580  0.89520  0.00137  Biso   1.000  C
  C237     1.0000 0.10480  0.31060  0.00137  Biso   1.000  C
  C238     1.0000 0.79420  0.68940  0.49863  Biso   1.000  C
  C239     1.0000 0.31060  0.10480  0.49863  Biso   1.000  C
  C240     1.0000 0.89520  0.20580  0.49863  Biso   1.000  C
  C241     1.0000 0.35607  0.12753  0.33470  Biso   1.000  C
  C242     1.0000 0.87247  0.22853  0.33470  Biso   1.000  C
  C243     1.0000 0.77147  0.64393  0.33470  Biso   1.000  C
  C244     1.0000 0.46087  0.02273  0.83196  Biso   1.000  C
  C245     1.0000 0.97727  0.43813  0.83196  Biso   1.000  C
  C246     1.0000 0.56187  0.53913  0.83196  Biso   1.000  C
  C247     1.0000 0.02273  0.46087  0.66804  Biso   1.000  C
  C248     1.0000 0.53913  0.56187  0.66804  Biso   1.000  C
  C249     1.0000 0.43813  0.97727  0.66804  Biso   1.000  C
  C250     1.0000 0.12753  0.35607  0.16530  Biso   1.000  C
  C251     1.0000 0.64393  0.77147  0.16530  Biso   1.000  C
  C252     1.0000 0.22853  0.87247  0.16530  Biso   1.000  C
  H145     1.0000 0.26220  0.20960  0.00030  Biso   1.000  H
  H146     1.0000 0.79040  0.05260  0.00030  Biso   1.000  H
  H147     1.0000 0.94740  0.73780  0.00030  Biso   1.000  H
  H148     1.0000 0.20960  0.26220  0.49970  Biso   1.000  H
  H149     1.0000 0.73780  0.94740  0.49970  Biso   1.000  H
  H150     1.0000 0.05260  0.79040  0.49970  Biso   1.000  H
  H151     1.0000 0.92887  0.54293  0.33363  Biso   1.000  H
  H152     1.0000 0.45707  0.38593  0.33363  Biso   1.000  H
  H153     1.0000 0.61407  0.07113  0.33363  Biso   1.000  H
  H154     1.0000 0.87627  0.59553  0.83303  Biso   1.000  H
  H155     1.0000 0.40447  0.28073  0.83303  Biso   1.000  H
  H156     1.0000 0.71927  0.12373  0.83303  Biso   1.000  H
  H157     1.0000 0.59553  0.87627  0.66697  Biso   1.000  H
  H158     1.0000 0.12373  0.71927  0.66697  Biso   1.000  H
  H159     1.0000 0.28073  0.40447  0.66697  Biso   1.000  H
  H160     1.0000 0.54293  0.92887  0.16637  Biso   1.000  H
  H161     1.0000 0.07113  0.61407  0.16637  Biso   1.000  H
  H162     1.0000 0.38593  0.45707  0.16637  Biso   1.000  H
  H163     1.0000 0.73780  0.79040  0.99970  Biso   1.000  H
  H164     1.0000 0.20960  0.94740  0.99970  Biso   1.000  H
  H165     1.0000 0.05260  0.26220  0.99970  Biso   1.000  H
  H166     1.0000 0.79040  0.73780  0.50030  Biso   1.000  H
  H167     1.0000 0.26220  0.05260  0.50030  Biso   1.000  H
  H168     1.0000 0.94740  0.20960  0.50030  Biso   1.000  H
  H169     1.0000 0.40447  0.12373  0.33303  Biso   1.000  H
  H170     1.0000 0.87627  0.28073  0.33303  Biso   1.000  H
  H171     1.0000 0.71927  0.59553  0.33303  Biso   1.000  H
  H172     1.0000 0.45707  0.07113  0.83363  Biso   1.000  H
  H173     1.0000 0.92887  0.38593  0.83363  Biso   1.000  H
  H174     1.0000 0.61407  0.54293  0.83363  Biso   1.000  H
  H175     1.0000 0.07113  0.45707  0.66637  Biso   1.000  H
  H176     1.0000 0.54293  0.61407  0.66637  Biso   1.000  H
  H177     1.0000 0.38593  0.92887  0.66637  Biso   1.000  H
  H178     1.0000 0.12373  0.40447  0.16697  Biso   1.000  H
  H179     1.0000 0.59553  0.71927  0.16697  Biso   1.000  H
  H180     1.0000 0.28073  0.87627  0.16697  Biso   1.000  H
  C253     1.0000 0.34520  0.18630  0.01475  Biso   1.000  C
  C254     1.0000 0.81370  0.15890  0.01475  Biso   1.000  C
  C255     1.0000 0.84110  0.65480  0.01475  Biso   1.000  C
  C256     1.0000 0.18630  0.34520  0.48525  Biso   1.000  C
  C257     1.0000 0.65480  0.84110  0.48525  Biso   1.000  C
  C258     1.0000 0.15890  0.81370  0.48525  Biso   1.000  C
  C259     1.0000 0.01187  0.51963  0.34808  Biso   1.000  C
  C260     1.0000 0.48037  0.49223  0.34808  Biso   1.000  C
  C261     1.0000 0.50777  0.98813  0.34808  Biso   1.000  C
  C262     1.0000 0.85297  0.67853  0.81858  Biso   1.000  C
  C263     1.0000 0.32147  0.17443  0.81858  Biso   1.000  C
  C264     1.0000 0.82557  0.14703  0.81858  Biso   1.000  C
  C265     1.0000 0.67853  0.85297  0.68142  Biso   1.000  C
  C266     1.0000 0.14703  0.82557  0.68142  Biso   1.000  C
  C267     1.0000 0.17443  0.32147  0.68142  Biso   1.000  C
  C268     1.0000 0.51963  0.01187  0.15192  Biso   1.000  C
  C269     1.0000 0.98813  0.50777  0.15192  Biso   1.000  C
  C270     1.0000 0.49223  0.48037  0.15192  Biso   1.000  C
  C271     1.0000 0.65480  0.81370  0.98525  Biso   1.000  C
  C272     1.0000 0.18630  0.84110  0.98525  Biso   1.000  C
  C273     1.0000 0.15890  0.34520  0.98525  Biso   1.000  C
  C274     1.0000 0.81370  0.65480  0.51475  Biso   1.000  C
  C275     1.0000 0.34520  0.15890  0.51475  Biso   1.000  C
  C276     1.0000 0.84110  0.18630  0.51475  Biso   1.000  C
  C277     1.0000 0.32147  0.14703  0.31858  Biso   1.000  C
  C278     1.0000 0.85297  0.17443  0.31858  Biso   1.000  C
  C279     1.0000 0.82557  0.67853  0.31858  Biso   1.000  C
  C280     1.0000 0.48037  0.98813  0.84808  Biso   1.000  C
  C281     1.0000 0.01187  0.49223  0.84808  Biso   1.000  C
  C282     1.0000 0.50777  0.51963  0.84808  Biso   1.000  C
  C283     1.0000 0.98813  0.48037  0.65192  Biso   1.000  C
  C284     1.0000 0.51963  0.50777  0.65192  Biso   1.000  C
  C285     1.0000 0.49223  0.01187  0.65192  Biso   1.000  C
  C286     1.0000 0.14703  0.32147  0.18142  Biso   1.000  C
  C287     1.0000 0.67853  0.82557  0.18142  Biso   1.000  C
  C288     1.0000 0.17443  0.85297  0.18142  Biso   1.000  C
  C289     1.0000 0.41630  0.18430  0.01221  Biso   1.000  C
  C290     1.0000 0.81570  0.23200  0.01221  Biso   1.000  C
  C291     1.0000 0.76800  0.58370  0.01221  Biso   1.000  C
  C292     1.0000 0.18430  0.41630  0.48779  Biso   1.000  C
  C293     1.0000 0.58370  0.76800  0.48779  Biso   1.000  C
  C294     1.0000 0.23200  0.81570  0.48779  Biso   1.000  C
  C295     1.0000 0.08297  0.51763  0.34554  Biso   1.000  C
  C296     1.0000 0.48237  0.56533  0.34554  Biso   1.000  C
  C297     1.0000 0.43467  0.91703  0.34554  Biso   1.000  C
  C298     1.0000 0.85097  0.74963  0.82112  Biso   1.000  C
  C299     1.0000 0.25037  0.10133  0.82112  Biso   1.000  C
  C300     1.0000 0.89867  0.14903  0.82112  Biso   1.000  C
  C301     1.0000 0.74963  0.85097  0.67888  Biso   1.000  C
  C302     1.0000 0.14903  0.89867  0.67888  Biso   1.000  C
  C303     1.0000 0.10133  0.25037  0.67888  Biso   1.000  C
  C304     1.0000 0.51763  0.08297  0.15446  Biso   1.000  C
  C305     1.0000 0.91703  0.43467  0.15446  Biso   1.000  C
  C306     1.0000 0.56533  0.48237  0.15446  Biso   1.000  C
  C307     1.0000 0.58370  0.81570  0.98779  Biso   1.000  C
  C308     1.0000 0.18430  0.76800  0.98779  Biso   1.000  C
  C309     1.0000 0.23200  0.41630  0.98779  Biso   1.000  C
  C310     1.0000 0.81570  0.58370  0.51221  Biso   1.000  C
  C311     1.0000 0.41630  0.23200  0.51221  Biso   1.000  C
  C312     1.0000 0.76800  0.18430  0.51221  Biso   1.000  C
  C313     1.0000 0.25037  0.14903  0.32112  Biso   1.000  C
  C314     1.0000 0.85097  0.10133  0.32112  Biso   1.000  C
  C315     1.0000 0.89867  0.74963  0.32112  Biso   1.000  C
  C316     1.0000 0.48237  0.91703  0.84554  Biso   1.000  C
  C317     1.0000 0.08297  0.56533  0.84554  Biso   1.000  C
  C318     1.0000 0.43467  0.51763  0.84554  Biso   1.000  C
  C319     1.0000 0.91703  0.48237  0.65446  Biso   1.000  C
  C320     1.0000 0.51763  0.43467  0.65446  Biso   1.000  C
  C321     1.0000 0.56533  0.08297  0.65446  Biso   1.000  C
  C322     1.0000 0.14903  0.25037  0.17888  Biso   1.000  C
  C323     1.0000 0.74963  0.89867  0.17888  Biso   1.000  C
  C324     1.0000 0.10133  0.85097  0.17888  Biso   1.000  C
  H181     1.0000 0.44060  0.17280  0.02300  Biso   1.000  H
  H182     1.0000 0.82720  0.26780  0.02300  Biso   1.000  H
  H183     1.0000 0.73220  0.55940  0.02300  Biso   1.000  H
  H184     1.0000 0.17280  0.44060  0.47700  Biso   1.000  H
  H185     1.0000 0.55940  0.73220  0.47700  Biso   1.000  H
  H186     1.0000 0.26780  0.82720  0.47700  Biso   1.000  H
  H187     1.0000 0.10727  0.50613  0.35633  Biso   1.000  H
  H188     1.0000 0.49387  0.60113  0.35633  Biso   1.000  H
  H189     1.0000 0.39887  0.89273  0.35633  Biso   1.000  H
  H190     1.0000 0.83947  0.77393  0.81033  Biso   1.000  H
  H191     1.0000 0.22607  0.06553  0.81033  Biso   1.000  H
  H192     1.0000 0.93447  0.16053  0.81033  Biso   1.000  H
  H193     1.0000 0.77393  0.83947  0.68967  Biso   1.000  H
  H194     1.0000 0.16053  0.93447  0.68967  Biso   1.000  H
  H195     1.0000 0.06553  0.22607  0.68967  Biso   1.000  H
  H196     1.0000 0.50613  0.10727  0.14367  Biso   1.000  H
  H197     1.0000 0.89273  0.39887  0.14367  Biso   1.000  H
  H198     1.0000 0.60113  0.49387  0.14367  Biso   1.000  H
  H199     1.0000 0.55940  0.82720  0.97700  Biso   1.000  H
  H200     1.0000 0.17280  0.73220  0.97700  Biso   1.000  H
  H201     1.0000 0.26780  0.44060  0.97700  Biso   1.000  H
  H202     1.0000 0.82720  0.55940  0.52300  Biso   1.000  H
  H203     1.0000 0.44060  0.26780  0.52300  Biso   1.000  H
  H204     1.0000 0.73220  0.17280  0.52300  Biso   1.000  H
  H205     1.0000 0.22607  0.16053  0.31033  Biso   1.000  H
  H206     1.0000 0.83947  0.06553  0.31033  Biso   1.000  H
  H207     1.0000 0.93447  0.77393  0.31033  Biso   1.000  H
  H208     1.0000 0.49387  0.89273  0.85633  Biso   1.000  H
  H209     1.0000 0.10727  0.60113  0.85633  Biso   1.000  H
  H210     1.0000 0.39887  0.50613  0.85633  Biso   1.000  H
  H211     1.0000 0.89273  0.49387  0.64367  Biso   1.000  H
  H212     1.0000 0.50613  0.39887  0.64367  Biso   1.000  H
  H213     1.0000 0.60113  0.10727  0.64367  Biso   1.000  H
  H214     1.0000 0.16053  0.22607  0.18967  Biso   1.000  H
  H215     1.0000 0.77393  0.93447  0.18967  Biso   1.000  H
  H216     1.0000 0.06553  0.83947  0.18967  Biso   1.000  H
  C325     1.0000 0.30110  0.16520  0.03369  Biso   1.000  C
  C326     1.0000 0.83480  0.13590  0.03369  Biso   1.000  C
  C327     1.0000 0.86410  0.69890  0.03369  Biso   1.000  C
  C328     1.0000 0.16520  0.30110  0.46631  Biso   1.000  C
  C329     1.0000 0.69890  0.86410  0.46631  Biso   1.000  C
  C330     1.0000 0.13590  0.83480  0.46631  Biso   1.000  C
  C331     1.0000 0.96777  0.49853  0.36702  Biso   1.000  C
  C332     1.0000 0.50147  0.46923  0.36702  Biso   1.000  C
  C333     1.0000 0.53077  0.03223  0.36702  Biso   1.000  C
  C334     1.0000 0.83187  0.63443  0.79964  Biso   1.000  C
  C335     1.0000 0.36557  0.19743  0.79964  Biso   1.000  C
  C336     1.0000 0.80257  0.16813  0.79964  Biso   1.000  C
  C337     1.0000 0.63443  0.83187  0.70036  Biso   1.000  C
  C338     1.0000 0.16813  0.80257  0.70036  Biso   1.000  C
  C339     1.0000 0.19743  0.36557  0.70036  Biso   1.000  C
  C340     1.0000 0.49853  0.96777  0.13298  Biso   1.000  C
  C341     1.0000 0.03223  0.53077  0.13298  Biso   1.000  C
  C342     1.0000 0.46923  0.50147  0.13298  Biso   1.000  C
  C343     1.0000 0.69890  0.83480  0.96631  Biso   1.000  C
  C344     1.0000 0.16520  0.86410  0.96631  Biso   1.000  C
  C345     1.0000 0.13590  0.30110  0.96631  Biso   1.000  C
  C346     1.0000 0.83480  0.69890  0.53369  Biso   1.000  C
  C347     1.0000 0.30110  0.13590  0.53369  Biso   1.000  C
  C348     1.0000 0.86410  0.16520  0.53369  Biso   1.000  C
  C349     1.0000 0.36557  0.16813  0.29964  Biso   1.000  C
  C350     1.0000 0.83187  0.19743  0.29964  Biso   1.000  C
  C351     1.0000 0.80257  0.63443  0.29964  Biso   1.000  C
  C352     1.0000 0.50147  0.03223  0.86702  Biso   1.000  C
  C353     1.0000 0.96777  0.46923  0.86702  Biso   1.000  C
  C354     1.0000 0.53077  0.49853  0.86702  Biso   1.000  C
  C355     1.0000 0.03223  0.50147  0.63298  Biso   1.000  C
  C356     1.0000 0.49853  0.53077  0.63298  Biso   1.000  C
  C357     1.0000 0.46923  0.96777  0.63298  Biso   1.000  C
  C358     1.0000 0.16813  0.36557  0.20036  Biso   1.000  C
  C359     1.0000 0.63443  0.80257  0.20036  Biso   1.000  C
  C360     1.0000 0.19743  0.83187  0.20036  Biso   1.000  C
  C361     1.0000 0.28990  0.09640  0.04373  Biso   1.000  C
  C362     1.0000 0.90360  0.19350  0.04373  Biso   1.000  C
  C363     1.0000 0.80650  0.71010  0.04373  Biso   1.000  C
  C364     1.0000 0.09640  0.28990  0.45627  Biso   1.000  C
  C365     1.0000 0.71010  0.80650  0.45627  Biso   1.000  C
  C366     1.0000 0.19350  0.90360  0.45627  Biso   1.000  C
  C367     1.0000 0.95657  0.42973  0.37706  Biso   1.000  C
  C368     1.0000 0.57027  0.52683  0.37706  Biso   1.000  C
  C369     1.0000 0.47317  0.04343  0.37706  Biso   1.000  C
  C370     1.0000 0.76307  0.62323  0.78960  Biso   1.000  C
  C371     1.0000 0.37677  0.13983  0.78960  Biso   1.000  C
  C372     1.0000 0.86017  0.23693  0.78960  Biso   1.000  C
  C373     1.0000 0.62323  0.76307  0.71040  Biso   1.000  C
  C374     1.0000 0.23693  0.86017  0.71040  Biso   1.000  C
  C375     1.0000 0.13983  0.37677  0.71040  Biso   1.000  C
  C376     1.0000 0.42973  0.95657  0.12294  Biso   1.000  C
  C377     1.0000 0.04343  0.47317  0.12294  Biso   1.000  C
  C378     1.0000 0.52683  0.57027  0.12294  Biso   1.000  C
  C379     1.0000 0.71010  0.90360  0.95627  Biso   1.000  C
  C380     1.0000 0.09640  0.80650  0.95627  Biso   1.000  C
  C381     1.0000 0.19350  0.28990  0.95627  Biso   1.000  C
  C382     1.0000 0.90360  0.71010  0.54373  Biso   1.000  C
  C383     1.0000 0.28990  0.19350  0.54373  Biso   1.000  C
  C384     1.0000 0.80650  0.09640  0.54373  Biso   1.000  C
  C385     1.0000 0.37677  0.23693  0.28960  Biso   1.000  C
  C386     1.0000 0.76307  0.13983  0.28960  Biso   1.000  C
  C387     1.0000 0.86017  0.62323  0.28960  Biso   1.000  C
  C388     1.0000 0.57027  0.04343  0.87706  Biso   1.000  C
  C389     1.0000 0.95657  0.52683  0.87706  Biso   1.000  C
  C390     1.0000 0.47317  0.42973  0.87706  Biso   1.000  C
  C391     1.0000 0.04343  0.57027  0.62294  Biso   1.000  C
  C392     1.0000 0.42973  0.47317  0.62294  Biso   1.000  C
  C393     1.0000 0.52683  0.95657  0.62294  Biso   1.000  C
  C394     1.0000 0.23693  0.37677  0.21040  Biso   1.000  C
  C395     1.0000 0.62323  0.86017  0.21040  Biso   1.000  C
  C396     1.0000 0.13983  0.76307  0.21040  Biso   1.000  C
  H217     1.0000 0.31090  0.06350  0.03850  Biso   1.000  H
  H218     1.0000 0.93650  0.24740  0.03850  Biso   1.000  H
  H219     1.0000 0.75260  0.68910  0.03850  Biso   1.000  H
  H220     1.0000 0.06350  0.31090  0.46150  Biso   1.000  H
  H221     1.0000 0.68910  0.75260  0.46150  Biso   1.000  H
  H222     1.0000 0.24740  0.93650  0.46150  Biso   1.000  H
  H223     1.0000 0.97757  0.39683  0.37183  Biso   1.000  H
  H224     1.0000 0.60317  0.58073  0.37183  Biso   1.000  H
  H225     1.0000 0.41927  0.02243  0.37183  Biso   1.000  H
  H226     1.0000 0.73017  0.64423  0.79483  Biso   1.000  H
  H227     1.0000 0.35577  0.08593  0.79483  Biso   1.000  H
  H228     1.0000 0.91407  0.26983  0.79483  Biso   1.000  H
  H229     1.0000 0.64423  0.73017  0.70517  Biso   1.000  H
  H230     1.0000 0.26983  0.91407  0.70517  Biso   1.000  H
  H231     1.0000 0.08593  0.35577  0.70517  Biso   1.000  H
  H232     1.0000 0.39683  0.97757  0.12817  Biso   1.000  H
  H233     1.0000 0.02243  0.41927  0.12817  Biso   1.000  H
  H234     1.0000 0.58073  0.60317  0.12817  Biso   1.000  H
  H235     1.0000 0.68910  0.93650  0.96150  Biso   1.000  H
  H236     1.0000 0.06350  0.75260  0.96150  Biso   1.000  H
  H237     1.0000 0.24740  0.31090  0.96150  Biso   1.000  H
  H238     1.0000 0.93650  0.68910  0.53850  Biso   1.000  H
  H239     1.0000 0.31090  0.24740  0.53850  Biso   1.000  H
  H240     1.0000 0.75260  0.06350  0.53850  Biso   1.000  H
  H241     1.0000 0.35577  0.26983  0.29483  Biso   1.000  H
  H242     1.0000 0.73017  0.08593  0.29483  Biso   1.000  H
  H243     1.0000 0.91407  0.64423  0.29483  Biso   1.000  H
  H244     1.0000 0.60317  0.02243  0.87183  Biso   1.000  H
  H245     1.0000 0.97757  0.58073  0.87183  Biso   1.000  H
  H246     1.0000 0.41927  0.39683  0.87183  Biso   1.000  H
  H247     1.0000 0.02243  0.60317  0.62817  Biso   1.000  H
  H248     1.0000 0.39683  0.41927  0.62817  Biso   1.000  H
  H249     1.0000 0.58073  0.97757  0.62817  Biso   1.000  H
  H250     1.0000 0.26983  0.35577  0.20517  Biso   1.000  H
  H251     1.0000 0.64423  0.91407  0.20517  Biso   1.000  H
  H252     1.0000 0.08593  0.73017  0.20517  Biso   1.000  H
  C397     1.0000 0.24870  0.07440  0.06124  Biso   1.000  C
  C398     1.0000 0.92560  0.17430  0.06124  Biso   1.000  C
  C399     1.0000 0.82570  0.75130  0.06124  Biso   1.000  C
  C400     1.0000 0.07440  0.24870  0.43876  Biso   1.000  C
  C401     1.0000 0.75130  0.82570  0.43876  Biso   1.000  C
  C402     1.0000 0.17430  0.92560  0.43876  Biso   1.000  C
  C403     1.0000 0.91537  0.40773  0.39457  Biso   1.000  C
  C404     1.0000 0.59227  0.50763  0.39457  Biso   1.000  C
  C405     1.0000 0.49237  0.08463  0.39457  Biso   1.000  C
  C406     1.0000 0.74107  0.58203  0.77209  Biso   1.000  C
  C407     1.0000 0.41797  0.15903  0.77209  Biso   1.000  C
  C408     1.0000 0.84097  0.25893  0.77209  Biso   1.000  C
  C409     1.0000 0.58203  0.74107  0.72791  Biso   1.000  C
  C410     1.0000 0.25893  0.84097  0.72791  Biso   1.000  C
  C411     1.0000 0.15903  0.41797  0.72791  Biso   1.000  C
  C412     1.0000 0.40773  0.91537  0.10543  Biso   1.000  C
  C413     1.0000 0.08463  0.49237  0.10543  Biso   1.000  C
  C414     1.0000 0.50763  0.59227  0.10543  Biso   1.000  C
  C415     1.0000 0.75130  0.92560  0.93876  Biso   1.000  C
  C416     1.0000 0.07440  0.82570  0.93876  Biso   1.000  C
  C417     1.0000 0.17430  0.24870  0.93876  Biso   1.000  C
  C418     1.0000 0.92560  0.75130  0.56124  Biso   1.000  C
  C419     1.0000 0.24870  0.17430  0.56124  Biso   1.000  C
  C420     1.0000 0.82570  0.07440  0.56124  Biso   1.000  C
  C421     1.0000 0.41797  0.25893  0.27209  Biso   1.000  C
  C422     1.0000 0.74107  0.15903  0.27209  Biso   1.000  C
  C423     1.0000 0.84097  0.58203  0.27209  Biso   1.000  C
  C424     1.0000 0.59227  0.08463  0.89457  Biso   1.000  C
  C425     1.0000 0.91537  0.50763  0.89457  Biso   1.000  C
  C426     1.0000 0.49237  0.40773  0.89457  Biso   1.000  C
  C427     1.0000 0.08463  0.59227  0.60543  Biso   1.000  C
  C428     1.0000 0.40773  0.49237  0.60543  Biso   1.000  C
  C429     1.0000 0.50763  0.91537  0.60543  Biso   1.000  C
  C430     1.0000 0.25893  0.41797  0.22791  Biso   1.000  C
  C431     1.0000 0.58203  0.84097  0.22791  Biso   1.000  C
  C432     1.0000 0.15903  0.74107  0.22791  Biso   1.000  C
  C433     1.0000 0.21990  0.12350  0.06918  Biso   1.000  C
  C434     1.0000 0.87650  0.09640  0.06918  Biso   1.000  C
  C435     1.0000 0.90360  0.78010  0.06918  Biso   1.000  C
  C436     1.0000 0.12350  0.21990  0.43082  Biso   1.000  C
  C437     1.0000 0.78010  0.90360  0.43082  Biso   1.000  C
  C438     1.0000 0.09640  0.87650  0.43082  Biso   1.000  C
  C439     1.0000 0.88657  0.45683  0.40251  Biso   1.000  C
  C440     1.0000 0.54317  0.42973  0.40251  Biso   1.000  C
  C441     1.0000 0.57027  0.11343  0.40251  Biso   1.000  C
  C442     1.0000 0.79017  0.55323  0.76415  Biso   1.000  C
  C443     1.0000 0.44677  0.23693  0.76415  Biso   1.000  C
  C444     1.0000 0.76307  0.20983  0.76415  Biso   1.000  C
  C445     1.0000 0.55323  0.79017  0.73585  Biso   1.000  C
  C446     1.0000 0.20983  0.76307  0.73585  Biso   1.000  C
  C447     1.0000 0.23693  0.44677  0.73585  Biso   1.000  C
  C448     1.0000 0.45683  0.88657  0.09749  Biso   1.000  C
  C449     1.0000 0.11343  0.57027  0.09749  Biso   1.000  C
  C450     1.0000 0.42973  0.54317  0.09749  Biso   1.000  C
  C451     1.0000 0.78010  0.87650  0.93082  Biso   1.000  C
  C452     1.0000 0.12350  0.90360  0.93082  Biso   1.000  C
  C453     1.0000 0.09640  0.21990  0.93082  Biso   1.000  C
  C454     1.0000 0.87650  0.78010  0.56918  Biso   1.000  C
  C455     1.0000 0.21990  0.09640  0.56918  Biso   1.000  C
  C456     1.0000 0.90360  0.12350  0.56918  Biso   1.000  C
  C457     1.0000 0.44677  0.20983  0.26415  Biso   1.000  C
  C458     1.0000 0.79017  0.23693  0.26415  Biso   1.000  C
  C459     1.0000 0.76307  0.55323  0.26415  Biso   1.000  C
  C460     1.0000 0.54317  0.11343  0.90251  Biso   1.000  C
  C461     1.0000 0.88657  0.42973  0.90251  Biso   1.000  C
  C462     1.0000 0.57027  0.45683  0.90251  Biso   1.000  C
  C463     1.0000 0.11343  0.54317  0.59749  Biso   1.000  C
  C464     1.0000 0.45683  0.57027  0.59749  Biso   1.000  C
  C465     1.0000 0.42973  0.88657  0.59749  Biso   1.000  C
  C466     1.0000 0.20983  0.44677  0.23585  Biso   1.000  C
  C467     1.0000 0.55323  0.76307  0.23585  Biso   1.000  C
  C468     1.0000 0.23693  0.79017  0.23585  Biso   1.000  C
  H253     1.0000 0.19270  0.10960  0.08130  Biso   1.000  H
  H254     1.0000 0.89040  0.08310  0.08130  Biso   1.000  H
  H255     1.0000 0.91690  0.80730  0.08130  Biso   1.000  H
  H256     1.0000 0.10960  0.19270  0.41870  Biso   1.000  H
  H257     1.0000 0.80730  0.91690  0.41870  Biso   1.000  H
  H258     1.0000 0.08310  0.89040  0.41870  Biso   1.000  H
  H259     1.0000 0.85937  0.44293  0.41463  Biso   1.000  H
  H260     1.0000 0.55707  0.41643  0.41463  Biso   1.000  H
  H261     1.0000 0.58357  0.14063  0.41463  Biso   1.000  H
  H262     1.0000 0.77627  0.52603  0.75203  Biso   1.000  H
  H263     1.0000 0.47397  0.25023  0.75203  Biso   1.000  H
  H264     1.0000 0.74977  0.22373  0.75203  Biso   1.000  H
  H265     1.0000 0.52603  0.77627  0.74797  Biso   1.000  H
  H266     1.0000 0.22373  0.74977  0.74797  Biso   1.000  H
  H267     1.0000 0.25023  0.47397  0.74797  Biso   1.000  H
  H268     1.0000 0.44293  0.85937  0.08537  Biso   1.000  H
  H269     1.0000 0.14063  0.58357  0.08537  Biso   1.000  H
  H270     1.0000 0.41643  0.55707  0.08537  Biso   1.000  H
  H271     1.0000 0.80730  0.89040  0.91870  Biso   1.000  H
  H272     1.0000 0.10960  0.91690  0.91870  Biso   1.000  H
  H273     1.0000 0.08310  0.19270  0.91870  Biso   1.000  H
  H274     1.0000 0.89040  0.80730  0.58130  Biso   1.000  H
  H275     1.0000 0.19270  0.08310  0.58130  Biso   1.000  H
  H276     1.0000 0.91690  0.10960  0.58130  Biso   1.000  H
  H277     1.0000 0.47397  0.22373  0.25203  Biso   1.000  H
  H278     1.0000 0.77627  0.25023  0.25203  Biso   1.000  H
  H279     1.0000 0.74977  0.52603  0.25203  Biso   1.000  H
  H280     1.0000 0.55707  0.14063  0.91463  Biso   1.000  H
  H281     1.0000 0.85937  0.41643  0.91463  Biso   1.000  H
  H282     1.0000 0.58357  0.44293  0.91463  Biso   1.000  H
  H283     1.0000 0.14063  0.55707  0.58537  Biso   1.000  H
  H284     1.0000 0.44293  0.58357  0.58537  Biso   1.000  H
  H285     1.0000 0.41643  0.85937  0.58537  Biso   1.000  H
  H286     1.0000 0.22373  0.47397  0.24797  Biso   1.000  H
  H287     1.0000 0.52603  0.74977  0.24797  Biso   1.000  H
  H288     1.0000 0.25023  0.77627  0.24797  Biso   1.000  H
  C469     1.0000 0.23090  0.19280  0.05938  Biso   1.000  C
  C470     1.0000 0.80720  0.03810  0.05938  Biso   1.000  C
  C471     1.0000 0.96190  0.76910  0.05938  Biso   1.000  C
  C472     1.0000 0.19280  0.23090  0.44062  Biso   1.000  C
  C473     1.0000 0.76910  0.96190  0.44062  Biso   1.000  C
  C474     1.0000 0.03810  0.80720  0.44062  Biso   1.000  C
  C475     1.0000 0.89757  0.52613  0.39271  Biso   1.000  C
  C476     1.0000 0.47387  0.37143  0.39271  Biso   1.000  C
  C477     1.0000 0.62857  0.10243  0.39271  Biso   1.000  C
  C478     1.0000 0.85947  0.56423  0.77395  Biso   1.000  C
  C479     1.0000 0.43577  0.29523  0.77395  Biso   1.000  C
  C480     1.0000 0.70477  0.14053  0.77395  Biso   1.000  C
  C481     1.0000 0.56423  0.85947  0.72605  Biso   1.000  C
  C482     1.0000 0.14053  0.70477  0.72605  Biso   1.000  C
  C483     1.0000 0.29523  0.43577  0.72605  Biso   1.000  C
  C484     1.0000 0.52613  0.89757  0.10729  Biso   1.000  C
  C485     1.0000 0.10243  0.62857  0.10729  Biso   1.000  C
  C486     1.0000 0.37143  0.47387  0.10729  Biso   1.000  C
  C487     1.0000 0.76910  0.80720  0.94062  Biso   1.000  C
  C488     1.0000 0.19280  0.96190  0.94062  Biso   1.000  C
  C489     1.0000 0.03810  0.23090  0.94062  Biso   1.000  C
  C490     1.0000 0.80720  0.76910  0.55938  Biso   1.000  C
  C491     1.0000 0.23090  0.03810  0.55938  Biso   1.000  C
  C492     1.0000 0.96190  0.19280  0.55938  Biso   1.000  C
  C493     1.0000 0.43577  0.14053  0.27395  Biso   1.000  C
  C494     1.0000 0.85947  0.29523  0.27395  Biso   1.000  C
  C495     1.0000 0.70477  0.56423  0.27395  Biso   1.000  C
  C496     1.0000 0.47387  0.10243  0.89271  Biso   1.000  C
  C497     1.0000 0.89757  0.37143  0.89271  Biso   1.000  C
  C498     1.0000 0.62857  0.52613  0.89271  Biso   1.000  C
  C499     1.0000 0.10243  0.47387  0.60729  Biso   1.000  C
  C500     1.0000 0.52613  0.62857  0.60729  Biso   1.000  C
  C501     1.0000 0.37143  0.89757  0.60729  Biso   1.000  C
  C502     1.0000 0.14053  0.43577  0.22605  Biso   1.000  C
  C503     1.0000 0.56423  0.70477  0.22605  Biso   1.000  C
  C504     1.0000 0.29523  0.85947  0.22605  Biso   1.000  C
  C505     1.0000 0.27050  0.21280  0.04147  Biso   1.000  C
  C506     1.0000 0.78720  0.05770  0.04147  Biso   1.000  C
  C507     1.0000 0.94230  0.72950  0.04147  Biso   1.000  C
  C508     1.0000 0.21280  0.27050  0.45853  Biso   1.000  C
  C509     1.0000 0.72950  0.94230  0.45853  Biso   1.000  C
  C510     1.0000 0.05770  0.78720  0.45853  Biso   1.000  C
  C511     1.0000 0.93717  0.54613  0.37480  Biso   1.000  C
  C512     1.0000 0.45387  0.39103  0.37480  Biso   1.000  C
  C513     1.0000 0.60897  0.06283  0.37480  Biso   1.000  C
  C514     1.0000 0.87947  0.60383  0.79186  Biso   1.000  C
  C515     1.0000 0.39617  0.27563  0.79186  Biso   1.000  C
  C516     1.0000 0.72437  0.12053  0.79186  Biso   1.000  C
  C517     1.0000 0.60383  0.87947  0.70814  Biso   1.000  C
  C518     1.0000 0.12053  0.72437  0.70814  Biso   1.000  C
  C519     1.0000 0.27563  0.39617  0.70814  Biso   1.000  C
  C520     1.0000 0.54613  0.93717  0.12520  Biso   1.000  C
  C521     1.0000 0.06283  0.60897  0.12520  Biso   1.000  C
  C522     1.0000 0.39103  0.45387  0.12520  Biso   1.000  C
  C523     1.0000 0.72950  0.78720  0.95853  Biso   1.000  C
  C524     1.0000 0.21280  0.94230  0.95853  Biso   1.000  C
  C525     1.0000 0.05770  0.27050  0.95853  Biso   1.000  C
  C526     1.0000 0.78720  0.72950  0.54147  Biso   1.000  C
  C527     1.0000 0.27050  0.05770  0.54147  Biso   1.000  C
  C528     1.0000 0.94230  0.21280  0.54147  Biso   1.000  C
  C529     1.0000 0.39617  0.12053  0.29186  Biso   1.000  C
  C530     1.0000 0.87947  0.27563  0.29186  Biso   1.000  C
  C531     1.0000 0.72437  0.60383  0.29186  Biso   1.000  C
  C532     1.0000 0.45387  0.06283  0.87480  Biso   1.000  C
  C533     1.0000 0.93717  0.39103  0.87480  Biso   1.000  C
  C534     1.0000 0.60897  0.54613  0.87480  Biso   1.000  C
  C535     1.0000 0.06283  0.45387  0.62520  Biso   1.000  C
  C536     1.0000 0.54613  0.60897  0.62520  Biso   1.000  C
  C537     1.0000 0.39103  0.93717  0.62520  Biso   1.000  C
  C538     1.0000 0.12053  0.39617  0.20814  Biso   1.000  C
  C539     1.0000 0.60383  0.72437  0.20814  Biso   1.000  C
  C540     1.0000 0.27563  0.87947  0.20814  Biso   1.000  C
  H289     1.0000 0.27650  0.25950  0.03460  Biso   1.000  H
  H290     1.0000 0.74050  0.01700  0.03460  Biso   1.000  H
  H291     1.0000 0.98300  0.72350  0.03460  Biso   1.000  H
  H292     1.0000 0.25950  0.27650  0.46540  Biso   1.000  H
  H293     1.0000 0.72350  0.98300  0.46540  Biso   1.000  H
  H294     1.0000 0.01700  0.74050  0.46540  Biso   1.000  H
  H295     1.0000 0.94317  0.59283  0.36793  Biso   1.000  H
  H296     1.0000 0.40717  0.35033  0.36793  Biso   1.000  H
  H297     1.0000 0.64967  0.05683  0.36793  Biso   1.000  H
  H298     1.0000 0.92617  0.60983  0.79873  Biso   1.000  H
  H299     1.0000 0.39017  0.31633  0.79873  Biso   1.000  H
  H300     1.0000 0.68367  0.07383  0.79873  Biso   1.000  H
  H301     1.0000 0.60983  0.92617  0.70127  Biso   1.000  H
  H302     1.0000 0.07383  0.68367  0.70127  Biso   1.000  H
  H303     1.0000 0.31633  0.39017  0.70127  Biso   1.000  H
  H304     1.0000 0.59283  0.94317  0.13207  Biso   1.000  H
  H305     1.0000 0.05683  0.64967  0.13207  Biso   1.000  H
  H306     1.0000 0.35033  0.40717  0.13207  Biso   1.000  H
  H307     1.0000 0.72350  0.74050  0.96540  Biso   1.000  H
  H308     1.0000 0.25950  0.98300  0.96540  Biso   1.000  H
  H309     1.0000 0.01700  0.27650  0.96540  Biso   1.000  H
  H310     1.0000 0.74050  0.72350  0.53460  Biso   1.000  H
  H311     1.0000 0.27650  0.01700  0.53460  Biso   1.000  H
  H312     1.0000 0.98300  0.25950  0.53460  Biso   1.000  H
  H313     1.0000 0.39017  0.07383  0.29873  Biso   1.000  H
  H314     1.0000 0.92617  0.31633  0.29873  Biso   1.000  H
  H315     1.0000 0.68367  0.60983  0.29873  Biso   1.000  H
  H316     1.0000 0.40717  0.05683  0.86793  Biso   1.000  H
  H317     1.0000 0.94317  0.35033  0.86793  Biso   1.000  H
  H318     1.0000 0.64967  0.59283  0.86793  Biso   1.000  H
  H319     1.0000 0.05683  0.40717  0.63207  Biso   1.000  H
  H320     1.0000 0.59283  0.64967  0.63207  Biso   1.000  H
  H321     1.0000 0.35033  0.94317  0.63207  Biso   1.000  H
  H322     1.0000 0.07383  0.39017  0.20127  Biso   1.000  H
  H323     1.0000 0.60983  0.68367  0.20127  Biso   1.000  H
  H324     1.0000 0.31633  0.92617  0.20127  Biso   1.000  H
  C541     1.0000 0.22920  0.99490  0.07099  Biso   1.000  C
  C542     1.0000 0.00510  0.23430  0.07099  Biso   1.000  C
  C543     1.0000 0.76570  0.77080  0.07099  Biso   1.000  C
  C544     1.0000 0.99490  0.22920  0.42901  Biso   1.000  C
  C545     1.0000 0.77080  0.76570  0.42901  Biso   1.000  C
  C546     1.0000 0.23430  0.00510  0.42901  Biso   1.000  C
  C547     1.0000 0.89587  0.32823  0.40432  Biso   1.000  C
  C548     1.0000 0.67177  0.56763  0.40432  Biso   1.000  C
  C549     1.0000 0.43237  0.10413  0.40432  Biso   1.000  C
  C550     1.0000 0.66157  0.56253  0.76234  Biso   1.000  C
  C551     1.0000 0.43747  0.09903  0.76234  Biso   1.000  C
  C552     1.0000 0.90097  0.33843  0.76234  Biso   1.000  C
  C553     1.0000 0.56253  0.66157  0.73766  Biso   1.000  C
  C554     1.0000 0.33843  0.90097  0.73766  Biso   1.000  C
  C555     1.0000 0.09903  0.43747  0.73766  Biso   1.000  C
  C556     1.0000 0.32823  0.89587  0.09568  Biso   1.000  C
  C557     1.0000 0.10413  0.43237  0.09568  Biso   1.000  C
  C558     1.0000 0.56763  0.67177  0.09568  Biso   1.000  C
  C559     1.0000 0.77080  0.00510  0.92901  Biso   1.000  C
  C560     1.0000 0.99490  0.76570  0.92901  Biso   1.000  C
  C561     1.0000 0.23430  0.22920  0.92901  Biso   1.000  C
  C562     1.0000 0.00510  0.77080  0.57099  Biso   1.000  C
  C563     1.0000 0.22920  0.23430  0.57099  Biso   1.000  C
  C564     1.0000 0.76570  0.99490  0.57099  Biso   1.000  C
  C565     1.0000 0.43747  0.33843  0.26234  Biso   1.000  C
  C566     1.0000 0.66157  0.09903  0.26234  Biso   1.000  C
  C567     1.0000 0.90097  0.56253  0.26234  Biso   1.000  C
  C568     1.0000 0.67177  0.10413  0.90432  Biso   1.000  C
  C569     1.0000 0.89587  0.56763  0.90432  Biso   1.000  C
  C570     1.0000 0.43237  0.32823  0.90432  Biso   1.000  C
  C571     1.0000 0.10413  0.67177  0.59568  Biso   1.000  C
  C572     1.0000 0.32823  0.43237  0.59568  Biso   1.000  C
  C573     1.0000 0.56763  0.89587  0.59568  Biso   1.000  C
  C574     1.0000 0.33843  0.43747  0.23766  Biso   1.000  C
  C575     1.0000 0.56253  0.90097  0.23766  Biso   1.000  C
  C576     1.0000 0.09903  0.66157  0.23766  Biso   1.000  C
  C577     1.0000 0.19890  0.24530  0.06792  Biso   1.000  C
  C578     1.0000 0.75470  0.95360  0.06792  Biso   1.000  C
  C579     1.0000 0.04640  0.80110  0.06792  Biso   1.000  C
  C580     1.0000 0.24530  0.19890  0.43208  Biso   1.000  C
  C581     1.0000 0.80110  0.04640  0.43208  Biso   1.000  C
  C582     1.0000 0.95360  0.75470  0.43208  Biso   1.000  C
  C583     1.0000 0.86557  0.57863  0.40125  Biso   1.000  C
  C584     1.0000 0.42137  0.28693  0.40125  Biso   1.000  C
  C585     1.0000 0.71307  0.13443  0.40125  Biso   1.000  C
  C586     1.0000 0.91197  0.53223  0.76541  Biso   1.000  C
  C587     1.0000 0.46777  0.37973  0.76541  Biso   1.000  C
  C588     1.0000 0.62027  0.08803  0.76541  Biso   1.000  C
  C589     1.0000 0.53223  0.91197  0.73459  Biso   1.000  C
  C590     1.0000 0.08803  0.62027  0.73459  Biso   1.000  C
  C591     1.0000 0.37973  0.46777  0.73459  Biso   1.000  C
  C592     1.0000 0.57863  0.86557  0.09875  Biso   1.000  C
  C593     1.0000 0.13443  0.71307  0.09875  Biso   1.000  C
  C594     1.0000 0.28693  0.42137  0.09875  Biso   1.000  C
  C595     1.0000 0.80110  0.75470  0.93208  Biso   1.000  C
  C596     1.0000 0.24530  0.04640  0.93208  Biso   1.000  C
  C597     1.0000 0.95360  0.19890  0.93208  Biso   1.000  C
  C598     1.0000 0.75470  0.80110  0.56792  Biso   1.000  C
  C599     1.0000 0.19890  0.95360  0.56792  Biso   1.000  C
  C600     1.0000 0.04640  0.24530  0.56792  Biso   1.000  C
  C601     1.0000 0.46777  0.08803  0.26541  Biso   1.000  C
  C602     1.0000 0.91197  0.37973  0.26541  Biso   1.000  C
  C603     1.0000 0.62027  0.53223  0.26541  Biso   1.000  C
  C604     1.0000 0.42137  0.13443  0.90125  Biso   1.000  C
  C605     1.0000 0.86557  0.28693  0.90125  Biso   1.000  C
  C606     1.0000 0.71307  0.57863  0.90125  Biso   1.000  C
  C607     1.0000 0.13443  0.42137  0.59875  Biso   1.000  C
  C608     1.0000 0.57863  0.71307  0.59875  Biso   1.000  C
  C609     1.0000 0.28693  0.86557  0.59875  Biso   1.000  C
  C610     1.0000 0.08803  0.46777  0.23459  Biso   1.000  C
  C611     1.0000 0.53223  0.62027  0.23459  Biso   1.000  C
  C612     1.0000 0.37973  0.91197  0.23459  Biso   1.000  C
