data_image0
_cell_length_a       26.8043
_cell_length_b       12.2613
_cell_length_c       20.0761
_cell_angle_alpha    90
_cell_angle_beta     90
_cell_angle_gamma    90

_symmetry_space_group_name_H-M    "P 1"
_symmetry_int_tables_number       1

loop_
  _symmetry_equiv_pos_as_xyz
  'x, y, z'

loop_
  _atom_site_label
  _atom_site_occupancy
  _atom_site_fract_x
  _atom_site_fract_y
  _atom_site_fract_z
  _atom_site_thermal_displace_type
  _atom_site_B_iso_or_equiv
  _atom_site_type_symbol
  Cu1      1.0000 0.50000  0.00000  0.50000  Biso   1.000  Cu
  Cu2      1.0000 0.50000  0.00000  0.00000  Biso   1.000  Cu
  Cu3      1.0000 0.00000  0.50000  0.50000  Biso   1.000  Cu
  Cu4      1.0000 0.00000  0.50000  0.00000  Biso   1.000  Cu
  O1       1.0000 0.25345  0.77590  0.60490  Biso   1.000  O
  O2       1.0000 0.74655  0.22410  0.10490  Biso   1.000  O
  O3       1.0000 0.25345  0.22410  0.39510  Biso   1.000  O
  O4       1.0000 0.74655  0.77590  0.89510  Biso   1.000  O
  O5       1.0000 0.75345  0.27590  0.60490  Biso   1.000  O
  O6       1.0000 0.24655  0.72410  0.10490  Biso   1.000  O
  O7       1.0000 0.75345  0.72410  0.39510  Biso   1.000  O
  O8       1.0000 0.24655  0.27590  0.89510  Biso   1.000  O
  O9       1.0000 0.74655  0.22410  0.39510  Biso   1.000  O
  O10      1.0000 0.25345  0.77590  0.89510  Biso   1.000  O
  O11      1.0000 0.74655  0.77590  0.60490  Biso   1.000  O
  O12      1.0000 0.25345  0.22410  0.10490  Biso   1.000  O
  O13      1.0000 0.24655  0.72410  0.39510  Biso   1.000  O
  O14      1.0000 0.75345  0.27590  0.89510  Biso   1.000  O
  O15      1.0000 0.24655  0.27590  0.60490  Biso   1.000  O
  O16      1.0000 0.75345  0.72410  0.10490  Biso   1.000  O
  O17      1.0000 0.35730  0.48420  0.60450  Biso   1.000  O
  O18      1.0000 0.64270  0.51580  0.10450  Biso   1.000  O
  O19      1.0000 0.35730  0.51580  0.39550  Biso   1.000  O
  O20      1.0000 0.64270  0.48420  0.89550  Biso   1.000  O
  O21      1.0000 0.85730  0.98420  0.60450  Biso   1.000  O
  O22      1.0000 0.14270  0.01580  0.10450  Biso   1.000  O
  O23      1.0000 0.85730  0.01580  0.39550  Biso   1.000  O
  O24      1.0000 0.14270  0.98420  0.89550  Biso   1.000  O
  O25      1.0000 0.64270  0.51580  0.39550  Biso   1.000  O
  O26      1.0000 0.35730  0.48420  0.89550  Biso   1.000  O
  O27      1.0000 0.64270  0.48420  0.60450  Biso   1.000  O
  O28      1.0000 0.35730  0.51580  0.10450  Biso   1.000  O
  O29      1.0000 0.14270  0.01580  0.39550  Biso   1.000  O
  O30      1.0000 0.85730  0.98420  0.89550  Biso   1.000  O
  O31      1.0000 0.14270  0.98420  0.60450  Biso   1.000  O
  O32      1.0000 0.85730  0.01580  0.10450  Biso   1.000  O
  N1       1.0000 0.44641  0.88670  0.51130  Biso   1.000  N
  N2       1.0000 0.55359  0.11330  0.01130  Biso   1.000  N
  N3       1.0000 0.44641  0.11330  0.48870  Biso   1.000  N
  N4       1.0000 0.55359  0.88670  0.98870  Biso   1.000  N
  N5       1.0000 0.94641  0.38670  0.51130  Biso   1.000  N
  N6       1.0000 0.05359  0.61330  0.01130  Biso   1.000  N
  N7       1.0000 0.94641  0.61330  0.48870  Biso   1.000  N
  N8       1.0000 0.05359  0.38670  0.98870  Biso   1.000  N
  N9       1.0000 0.55359  0.11330  0.48870  Biso   1.000  N
  N10      1.0000 0.44641  0.88670  0.98870  Biso   1.000  N
  N11      1.0000 0.55359  0.88670  0.51130  Biso   1.000  N
  N12      1.0000 0.44641  0.11330  0.01130  Biso   1.000  N
  N13      1.0000 0.05359  0.61330  0.48870  Biso   1.000  N
  N14      1.0000 0.94641  0.38670  0.98870  Biso   1.000  N
  N15      1.0000 0.05359  0.38670  0.51130  Biso   1.000  N
  N16      1.0000 0.94641  0.61330  0.01130  Biso   1.000  N
  N17      1.0000 0.30858  0.63230  0.59030  Biso   1.000  N
  N18      1.0000 0.69142  0.36770  0.09030  Biso   1.000  N
  N19      1.0000 0.30858  0.36770  0.40970  Biso   1.000  N
  N20      1.0000 0.69142  0.63230  0.90970  Biso   1.000  N
  N21      1.0000 0.80858  0.13230  0.59030  Biso   1.000  N
  N22      1.0000 0.19142  0.86770  0.09030  Biso   1.000  N
  N23      1.0000 0.80858  0.86770  0.40970  Biso   1.000  N
  N24      1.0000 0.19142  0.13230  0.90970  Biso   1.000  N
  N25      1.0000 0.69142  0.36770  0.40970  Biso   1.000  N
  N26      1.0000 0.30858  0.63230  0.90970  Biso   1.000  N
  N27      1.0000 0.69142  0.63230  0.59030  Biso   1.000  N
  N28      1.0000 0.30858  0.36770  0.09030  Biso   1.000  N
  N29      1.0000 0.19142  0.86770  0.40970  Biso   1.000  N
  N30      1.0000 0.80858  0.13230  0.90970  Biso   1.000  N
  N31      1.0000 0.19142  0.13230  0.59030  Biso   1.000  N
  N32      1.0000 0.80858  0.86770  0.09030  Biso   1.000  N
  C1       1.0000 0.40620  0.86900  0.46080  Biso   1.000  C
  C2       1.0000 0.59380  0.13100  0.96080  Biso   1.000  C
  C3       1.0000 0.40620  0.13100  0.53920  Biso   1.000  C
  C4       1.0000 0.59380  0.86900  0.03920  Biso   1.000  C
  C5       1.0000 0.90620  0.36900  0.46080  Biso   1.000  C
  C6       1.0000 0.09380  0.63100  0.96080  Biso   1.000  C
  C7       1.0000 0.90620  0.63100  0.53920  Biso   1.000  C
  C8       1.0000 0.09380  0.36900  0.03920  Biso   1.000  C
  C9       1.0000 0.59380  0.13100  0.53920  Biso   1.000  C
  C10      1.0000 0.40620  0.86900  0.03920  Biso   1.000  C
  C11      1.0000 0.59380  0.86900  0.46080  Biso   1.000  C
  C12      1.0000 0.40620  0.13100  0.96080  Biso   1.000  C
  C13      1.0000 0.09380  0.63100  0.53920  Biso   1.000  C
  C14      1.0000 0.90620  0.36900  0.03920  Biso   1.000  C
  C15      1.0000 0.09380  0.36900  0.46080  Biso   1.000  C
  C16      1.0000 0.90620  0.63100  0.96080  Biso   1.000  C
  H1       1.0000 0.40760  0.91140  0.42120  Biso   1.000  H
  H2       1.0000 0.59240  0.08860  0.92120  Biso   1.000  H
  H3       1.0000 0.40760  0.08860  0.57880  Biso   1.000  H
  H4       1.0000 0.59240  0.91140  0.07880  Biso   1.000  H
  H5       1.0000 0.90760  0.41140  0.42120  Biso   1.000  H
  H6       1.0000 0.09240  0.58860  0.92120  Biso   1.000  H
  H7       1.0000 0.90760  0.58860  0.57880  Biso   1.000  H
  H8       1.0000 0.09240  0.41140  0.07880  Biso   1.000  H
  H9       1.0000 0.59240  0.08860  0.57880  Biso   1.000  H
  H10      1.0000 0.40760  0.91140  0.07880  Biso   1.000  H
  H11      1.0000 0.59240  0.91140  0.42120  Biso   1.000  H
  H12      1.0000 0.40760  0.08860  0.92120  Biso   1.000  H
  H13      1.0000 0.09240  0.58860  0.57880  Biso   1.000  H
  H14      1.0000 0.90760  0.41140  0.07880  Biso   1.000  H
  H15      1.0000 0.09240  0.41140  0.42120  Biso   1.000  H
  H16      1.0000 0.90760  0.58860  0.92120  Biso   1.000  H
  C17      1.0000 0.36800  0.79740  0.46680  Biso   1.000  C
  C18      1.0000 0.63200  0.20260  0.96680  Biso   1.000  C
  C19      1.0000 0.36800  0.20260  0.53320  Biso   1.000  C
  C20      1.0000 0.63200  0.79740  0.03320  Biso   1.000  C
  C21      1.0000 0.86800  0.29740  0.46680  Biso   1.000  C
  C22      1.0000 0.13200  0.70260  0.96680  Biso   1.000  C
  C23      1.0000 0.86800  0.70260  0.53320  Biso   1.000  C
  C24      1.0000 0.13200  0.29740  0.03320  Biso   1.000  C
  C25      1.0000 0.63200  0.20260  0.53320  Biso   1.000  C
  C26      1.0000 0.36800  0.79740  0.03320  Biso   1.000  C
  C27      1.0000 0.63200  0.79740  0.46680  Biso   1.000  C
  C28      1.0000 0.36800  0.20260  0.96680  Biso   1.000  C
  C29      1.0000 0.13200  0.70260  0.53320  Biso   1.000  C
  C30      1.0000 0.86800  0.29740  0.03320  Biso   1.000  C
  C31      1.0000 0.13200  0.29740  0.46680  Biso   1.000  C
  C32      1.0000 0.86800  0.70260  0.96680  Biso   1.000  C
  H17      1.0000 0.34310  0.78950  0.43340  Biso   1.000  H
  H18      1.0000 0.65690  0.21050  0.93340  Biso   1.000  H
  H19      1.0000 0.34310  0.21050  0.56660  Biso   1.000  H
  H20      1.0000 0.65690  0.78950  0.06660  Biso   1.000  H
  H21      1.0000 0.84310  0.28950  0.43340  Biso   1.000  H
  H22      1.0000 0.15690  0.71050  0.93340  Biso   1.000  H
  H23      1.0000 0.84310  0.71050  0.56660  Biso   1.000  H
  H24      1.0000 0.15690  0.28950  0.06660  Biso   1.000  H
  H25      1.0000 0.65690  0.21050  0.56660  Biso   1.000  H
  H26      1.0000 0.34310  0.78950  0.06660  Biso   1.000  H
  H27      1.0000 0.65690  0.78950  0.43340  Biso   1.000  H
  H28      1.0000 0.34310  0.21050  0.93340  Biso   1.000  H
  H29      1.0000 0.15690  0.71050  0.56660  Biso   1.000  H
  H30      1.0000 0.84310  0.28950  0.06660  Biso   1.000  H
  H31      1.0000 0.15690  0.28950  0.43340  Biso   1.000  H
  H32      1.0000 0.84310  0.71050  0.93340  Biso   1.000  H
  C33      1.0000 0.36760  0.73930  0.52230  Biso   1.000  C
  C34      1.0000 0.63240  0.26070  0.02230  Biso   1.000  C
  C35      1.0000 0.36760  0.26070  0.47770  Biso   1.000  C
  C36      1.0000 0.63240  0.73930  0.97770  Biso   1.000  C
  C37      1.0000 0.86760  0.23930  0.52230  Biso   1.000  C
  C38      1.0000 0.13240  0.76070  0.02230  Biso   1.000  C
  C39      1.0000 0.86760  0.76070  0.47770  Biso   1.000  C
  C40      1.0000 0.13240  0.23930  0.97770  Biso   1.000  C
  C41      1.0000 0.63240  0.26070  0.47770  Biso   1.000  C
  C42      1.0000 0.36760  0.73930  0.97770  Biso   1.000  C
  C43      1.0000 0.63240  0.73930  0.52230  Biso   1.000  C
  C44      1.0000 0.36760  0.26070  0.02230  Biso   1.000  C
  C45      1.0000 0.13240  0.76070  0.47770  Biso   1.000  C
  C46      1.0000 0.86760  0.23930  0.97770  Biso   1.000  C
  C47      1.0000 0.13240  0.23930  0.52230  Biso   1.000  C
  C48      1.0000 0.86760  0.76070  0.02230  Biso   1.000  C
  C49      1.0000 0.39970  0.74710  0.57100  Biso   1.000  C
  C50      1.0000 0.60030  0.25290  0.07100  Biso   1.000  C
  C51      1.0000 0.39970  0.25290  0.42900  Biso   1.000  C
  C52      1.0000 0.60030  0.74710  0.92900  Biso   1.000  C
  C53      1.0000 0.89970  0.24710  0.57100  Biso   1.000  C
  C54      1.0000 0.10030  0.75290  0.07100  Biso   1.000  C
  C55      1.0000 0.89970  0.75290  0.42900  Biso   1.000  C
  C56      1.0000 0.10030  0.24710  0.92900  Biso   1.000  C
  C57      1.0000 0.60030  0.25290  0.42900  Biso   1.000  C
  C58      1.0000 0.39970  0.74710  0.92900  Biso   1.000  C
  C59      1.0000 0.60030  0.74710  0.57100  Biso   1.000  C
  C60      1.0000 0.39970  0.25290  0.07100  Biso   1.000  C
  C61      1.0000 0.10030  0.75290  0.42900  Biso   1.000  C
  C62      1.0000 0.89970  0.24710  0.92900  Biso   1.000  C
  C63      1.0000 0.10030  0.24710  0.57100  Biso   1.000  C
  C64      1.0000 0.89970  0.75290  0.07100  Biso   1.000  C
  H33      1.0000 0.39670  0.70370  0.61000  Biso   1.000  H
  H34      1.0000 0.60330  0.29630  0.11000  Biso   1.000  H
  H35      1.0000 0.39670  0.29630  0.39000  Biso   1.000  H
  H36      1.0000 0.60330  0.70370  0.89000  Biso   1.000  H
  H37      1.0000 0.89670  0.20370  0.61000  Biso   1.000  H
  H38      1.0000 0.10330  0.79630  0.11000  Biso   1.000  H
  H39      1.0000 0.89670  0.79630  0.39000  Biso   1.000  H
  H40      1.0000 0.10330  0.20370  0.89000  Biso   1.000  H
  H41      1.0000 0.60330  0.29630  0.39000  Biso   1.000  H
  H42      1.0000 0.39670  0.70370  0.89000  Biso   1.000  H
  H43      1.0000 0.60330  0.70370  0.61000  Biso   1.000  H
  H44      1.0000 0.39670  0.29630  0.11000  Biso   1.000  H
  H45      1.0000 0.10330  0.79630  0.39000  Biso   1.000  H
  H46      1.0000 0.89670  0.20370  0.89000  Biso   1.000  H
  H47      1.0000 0.10330  0.20370  0.61000  Biso   1.000  H
  H48      1.0000 0.89670  0.79630  0.11000  Biso   1.000  H
  C65      1.0000 0.43820  0.82080  0.56370  Biso   1.000  C
  C66      1.0000 0.56180  0.17920  0.06370  Biso   1.000  C
  C67      1.0000 0.43820  0.17920  0.43630  Biso   1.000  C
  C68      1.0000 0.56180  0.82080  0.93630  Biso   1.000  C
  C69      1.0000 0.93820  0.32080  0.56370  Biso   1.000  C
  C70      1.0000 0.06180  0.67920  0.06370  Biso   1.000  C
  C71      1.0000 0.93820  0.67920  0.43630  Biso   1.000  C
  C72      1.0000 0.06180  0.32080  0.93630  Biso   1.000  C
  C73      1.0000 0.56180  0.17920  0.43630  Biso   1.000  C
  C74      1.0000 0.43820  0.82080  0.93630  Biso   1.000  C
  C75      1.0000 0.56180  0.82080  0.56370  Biso   1.000  C
  C76      1.0000 0.43820  0.17920  0.06370  Biso   1.000  C
  C77      1.0000 0.06180  0.67920  0.43630  Biso   1.000  C
  C78      1.0000 0.93820  0.32080  0.93630  Biso   1.000  C
  C79      1.0000 0.06180  0.32080  0.56370  Biso   1.000  C
  C80      1.0000 0.93820  0.67920  0.06370  Biso   1.000  C
  H49      1.0000 0.46140  0.82550  0.59950  Biso   1.000  H
  H50      1.0000 0.53860  0.17450  0.09950  Biso   1.000  H
  H51      1.0000 0.46140  0.17450  0.40050  Biso   1.000  H
  H52      1.0000 0.53860  0.82550  0.90050  Biso   1.000  H
  H53      1.0000 0.96140  0.32550  0.59950  Biso   1.000  H
  H54      1.0000 0.03860  0.67450  0.09950  Biso   1.000  H
  H55      1.0000 0.96140  0.67450  0.40050  Biso   1.000  H
  H56      1.0000 0.03860  0.32550  0.90050  Biso   1.000  H
  H57      1.0000 0.53860  0.17450  0.40050  Biso   1.000  H
  H58      1.0000 0.46140  0.82550  0.90050  Biso   1.000  H
  H59      1.0000 0.53860  0.82550  0.59950  Biso   1.000  H
  H60      1.0000 0.46140  0.17450  0.09950  Biso   1.000  H
  H61      1.0000 0.03860  0.67450  0.40050  Biso   1.000  H
  H62      1.0000 0.96140  0.32550  0.90050  Biso   1.000  H
  H63      1.0000 0.03860  0.32550  0.59950  Biso   1.000  H
  H64      1.0000 0.96140  0.67450  0.09950  Biso   1.000  H
  C81      1.0000 0.32450  0.66130  0.52310  Biso   1.000  C
  C82      1.0000 0.67550  0.33870  0.02310  Biso   1.000  C
  C83      1.0000 0.32450  0.33870  0.47690  Biso   1.000  C
  C84      1.0000 0.67550  0.66130  0.97690  Biso   1.000  C
  C85      1.0000 0.82450  0.16130  0.52310  Biso   1.000  C
  C86      1.0000 0.17550  0.83870  0.02310  Biso   1.000  C
  C87      1.0000 0.82450  0.83870  0.47690  Biso   1.000  C
  C88      1.0000 0.17550  0.16130  0.97690  Biso   1.000  C
  C89      1.0000 0.67550  0.33870  0.47690  Biso   1.000  C
  C90      1.0000 0.32450  0.66130  0.97690  Biso   1.000  C
  C91      1.0000 0.67550  0.66130  0.52310  Biso   1.000  C
  C92      1.0000 0.32450  0.33870  0.02310  Biso   1.000  C
  C93      1.0000 0.17550  0.83870  0.47690  Biso   1.000  C
  C94      1.0000 0.82450  0.16130  0.97690  Biso   1.000  C
  C95      1.0000 0.17550  0.16130  0.52310  Biso   1.000  C
  C96      1.0000 0.82450  0.83870  0.02310  Biso   1.000  C
  H65      1.0000 0.29610  0.69450  0.49900  Biso   1.000  H
  H66      1.0000 0.70390  0.30550  0.99900  Biso   1.000  H
  H67      1.0000 0.29610  0.30550  0.50100  Biso   1.000  H
  H68      1.0000 0.70390  0.69450  0.00100  Biso   1.000  H
  H69      1.0000 0.79610  0.19450  0.49900  Biso   1.000  H
  H70      1.0000 0.20390  0.80550  0.99900  Biso   1.000  H
  H71      1.0000 0.79610  0.80550  0.50100  Biso   1.000  H
  H72      1.0000 0.20390  0.19450  0.00100  Biso   1.000  H
  H73      1.0000 0.70390  0.30550  0.50100  Biso   1.000  H
  H74      1.0000 0.29610  0.69450  0.00100  Biso   1.000  H
  H75      1.0000 0.70390  0.69450  0.49900  Biso   1.000  H
  H76      1.0000 0.29610  0.30550  0.99900  Biso   1.000  H
  H77      1.0000 0.20390  0.80550  0.50100  Biso   1.000  H
  H78      1.0000 0.79610  0.19450  0.00100  Biso   1.000  H
  H79      1.0000 0.20390  0.19450  0.49900  Biso   1.000  H
  H80      1.0000 0.79610  0.80550  0.99900  Biso   1.000  H
  H81      1.0000 0.33420  0.59400  0.49900  Biso   1.000  H
  H82      1.0000 0.66580  0.40600  0.99900  Biso   1.000  H
  H83      1.0000 0.33420  0.40600  0.50100  Biso   1.000  H
  H84      1.0000 0.66580  0.59400  0.00100  Biso   1.000  H
  H85      1.0000 0.83420  0.09400  0.49900  Biso   1.000  H
  H86      1.0000 0.16580  0.90600  0.99900  Biso   1.000  H
  H87      1.0000 0.83420  0.90600  0.50100  Biso   1.000  H
  H88      1.0000 0.16580  0.09400  0.00100  Biso   1.000  H
  H89      1.0000 0.66580  0.40600  0.50100  Biso   1.000  H
  H90      1.0000 0.33420  0.59400  0.00100  Biso   1.000  H
  H91      1.0000 0.66580  0.59400  0.49900  Biso   1.000  H
  H92      1.0000 0.33420  0.40600  0.99900  Biso   1.000  H
  H93      1.0000 0.16580  0.90600  0.50100  Biso   1.000  H
  H94      1.0000 0.83420  0.09400  0.00100  Biso   1.000  H
  H95      1.0000 0.16580  0.09400  0.49900  Biso   1.000  H
  H96      1.0000 0.83420  0.90600  0.99900  Biso   1.000  H
  C97      1.0000 0.27200  0.69080  0.62470  Biso   1.000  C
  C98      1.0000 0.72800  0.30920  0.12470  Biso   1.000  C
  C99      1.0000 0.27200  0.30920  0.37530  Biso   1.000  C
  C100     1.0000 0.72800  0.69080  0.87530  Biso   1.000  C
  C101     1.0000 0.77200  0.19080  0.62470  Biso   1.000  C
  C102     1.0000 0.22800  0.80920  0.12470  Biso   1.000  C
  C103     1.0000 0.77200  0.80920  0.37530  Biso   1.000  C
  C104     1.0000 0.22800  0.19080  0.87530  Biso   1.000  C
  C105     1.0000 0.72800  0.30920  0.37530  Biso   1.000  C
  C106     1.0000 0.27200  0.69080  0.87530  Biso   1.000  C
  C107     1.0000 0.72800  0.69080  0.62470  Biso   1.000  C
  C108     1.0000 0.27200  0.30920  0.12470  Biso   1.000  C
  C109     1.0000 0.22800  0.80920  0.37530  Biso   1.000  C
  C110     1.0000 0.77200  0.19080  0.87530  Biso   1.000  C
  C111     1.0000 0.22800  0.19080  0.62470  Biso   1.000  C
  C112     1.0000 0.77200  0.80920  0.12470  Biso   1.000  C
  C113     1.0000 0.26100  0.63130  0.68900  Biso   1.000  C
  C114     1.0000 0.73900  0.36870  0.18900  Biso   1.000  C
  C115     1.0000 0.26100  0.36870  0.31100  Biso   1.000  C
  C116     1.0000 0.73900  0.63130  0.81100  Biso   1.000  C
  C117     1.0000 0.76100  0.13130  0.68900  Biso   1.000  C
  C118     1.0000 0.23900  0.86870  0.18900  Biso   1.000  C
  C119     1.0000 0.76100  0.86870  0.31100  Biso   1.000  C
  C120     1.0000 0.23900  0.13130  0.81100  Biso   1.000  C
  C121     1.0000 0.73900  0.36870  0.31100  Biso   1.000  C
  C122     1.0000 0.26100  0.63130  0.81100  Biso   1.000  C
  C123     1.0000 0.73900  0.63130  0.68900  Biso   1.000  C
  C124     1.0000 0.26100  0.36870  0.18900  Biso   1.000  C
  C125     1.0000 0.23900  0.86870  0.31100  Biso   1.000  C
  C126     1.0000 0.76100  0.13130  0.81100  Biso   1.000  C
  C127     1.0000 0.23900  0.13130  0.68900  Biso   1.000  C
  C128     1.0000 0.76100  0.86870  0.18900  Biso   1.000  C
  H97      1.0000 0.22540  0.60650  0.68990  Biso   1.000  H
  H98      1.0000 0.77460  0.39350  0.18990  Biso   1.000  H
  H99      1.0000 0.22540  0.39350  0.31010  Biso   1.000  H
  H100     1.0000 0.77460  0.60650  0.81010  Biso   1.000  H
  H101     1.0000 0.72540  0.10650  0.68990  Biso   1.000  H
  H102     1.0000 0.27460  0.89350  0.18990  Biso   1.000  H
  H103     1.0000 0.72540  0.89350  0.31010  Biso   1.000  H
  H104     1.0000 0.27460  0.10650  0.81010  Biso   1.000  H
  H105     1.0000 0.77460  0.39350  0.31010  Biso   1.000  H
  H106     1.0000 0.22540  0.60650  0.81010  Biso   1.000  H
  H107     1.0000 0.77460  0.60650  0.68990  Biso   1.000  H
  H108     1.0000 0.22540  0.39350  0.18990  Biso   1.000  H
  H109     1.0000 0.27460  0.89350  0.31010  Biso   1.000  H
  H110     1.0000 0.72540  0.10650  0.81010  Biso   1.000  H
  H111     1.0000 0.27460  0.10650  0.68990  Biso   1.000  H
  H112     1.0000 0.72540  0.89350  0.18990  Biso   1.000  H
  C129     1.0000 0.29620  0.53270  0.68870  Biso   1.000  C
  C130     1.0000 0.70380  0.46730  0.18870  Biso   1.000  C
  C131     1.0000 0.29620  0.46730  0.31130  Biso   1.000  C
  C132     1.0000 0.70380  0.53270  0.81130  Biso   1.000  C
  C133     1.0000 0.79620  0.03270  0.68870  Biso   1.000  C
  C134     1.0000 0.20380  0.96730  0.18870  Biso   1.000  C
  C135     1.0000 0.79620  0.96730  0.31130  Biso   1.000  C
  C136     1.0000 0.20380  0.03270  0.81130  Biso   1.000  C
  C137     1.0000 0.70380  0.46730  0.31130  Biso   1.000  C
  C138     1.0000 0.29620  0.53270  0.81130  Biso   1.000  C
  C139     1.0000 0.70380  0.53270  0.68870  Biso   1.000  C
  C140     1.0000 0.29620  0.46730  0.18870  Biso   1.000  C
  C141     1.0000 0.20380  0.96730  0.31130  Biso   1.000  C
  C142     1.0000 0.79620  0.03270  0.81130  Biso   1.000  C
  C143     1.0000 0.20380  0.03270  0.68870  Biso   1.000  C
  C144     1.0000 0.79620  0.96730  0.18870  Biso   1.000  C
  H113     1.0000 0.27630  0.46370  0.68890  Biso   1.000  H
  H114     1.0000 0.72370  0.53630  0.18890  Biso   1.000  H
  H115     1.0000 0.27630  0.53630  0.31110  Biso   1.000  H
  H116     1.0000 0.72370  0.46370  0.81110  Biso   1.000  H
  H117     1.0000 0.77630  0.96370  0.68890  Biso   1.000  H
  H118     1.0000 0.22370  0.03630  0.18890  Biso   1.000  H
  H119     1.0000 0.77630  0.03630  0.31110  Biso   1.000  H
  H120     1.0000 0.22370  0.96370  0.81110  Biso   1.000  H
  H121     1.0000 0.72370  0.53630  0.31110  Biso   1.000  H
  H122     1.0000 0.27630  0.46370  0.81110  Biso   1.000  H
  H123     1.0000 0.72370  0.46370  0.68890  Biso   1.000  H
  H124     1.0000 0.27630  0.53630  0.18890  Biso   1.000  H
  H125     1.0000 0.22370  0.03630  0.31110  Biso   1.000  H
  H126     1.0000 0.77630  0.96370  0.81110  Biso   1.000  H
  H127     1.0000 0.22370  0.96370  0.68890  Biso   1.000  H
  H128     1.0000 0.77630  0.03630  0.18890  Biso   1.000  H
  C145     1.0000 0.32450  0.54220  0.62440  Biso   1.000  C
  C146     1.0000 0.67550  0.45780  0.12440  Biso   1.000  C
  C147     1.0000 0.32450  0.45780  0.37560  Biso   1.000  C
  C148     1.0000 0.67550  0.54220  0.87560  Biso   1.000  C
  C149     1.0000 0.82450  0.04220  0.62440  Biso   1.000  C
  C150     1.0000 0.17550  0.95780  0.12440  Biso   1.000  C
  C151     1.0000 0.82450  0.95780  0.37560  Biso   1.000  C
  C152     1.0000 0.17550  0.04220  0.87560  Biso   1.000  C
  C153     1.0000 0.67550  0.45780  0.37560  Biso   1.000  C
  C154     1.0000 0.32450  0.54220  0.87560  Biso   1.000  C
  C155     1.0000 0.67550  0.54220  0.62440  Biso   1.000  C
  C156     1.0000 0.32450  0.45780  0.12440  Biso   1.000  C
  C157     1.0000 0.17550  0.95780  0.37560  Biso   1.000  C
  C158     1.0000 0.82450  0.04220  0.87560  Biso   1.000  C
  C159     1.0000 0.17550  0.04220  0.62440  Biso   1.000  C
  C160     1.0000 0.82450  0.95780  0.12440  Biso   1.000  C
  C161     1.0000 0.33160  0.53550  0.75000  Biso   1.000  C
  C162     1.0000 0.66840  0.46450  0.25000  Biso   1.000  C
  C163     1.0000 0.33160  0.46450  0.25000  Biso   1.000  C
  C164     1.0000 0.66840  0.53550  0.75000  Biso   1.000  C
  C165     1.0000 0.83160  0.03550  0.75000  Biso   1.000  C
  C166     1.0000 0.16840  0.96450  0.25000  Biso   1.000  C
  C167     1.0000 0.83160  0.96450  0.25000  Biso   1.000  C
  C168     1.0000 0.16840  0.03550  0.75000  Biso   1.000  C
  H129     1.0000 0.35650  0.47460  0.75000  Biso   1.000  H
  H130     1.0000 0.64350  0.52540  0.25000  Biso   1.000  H
  H131     1.0000 0.35650  0.52540  0.25000  Biso   1.000  H
  H132     1.0000 0.64350  0.47460  0.75000  Biso   1.000  H
  H133     1.0000 0.85650  0.97460  0.75000  Biso   1.000  H
  H134     1.0000 0.14350  0.02540  0.25000  Biso   1.000  H
  H135     1.0000 0.85650  0.02540  0.25000  Biso   1.000  H
  H136     1.0000 0.14350  0.97460  0.75000  Biso   1.000  H
  C169     1.0000 0.35620  0.64900  0.75000  Biso   1.000  C
  C170     1.0000 0.64380  0.35100  0.25000  Biso   1.000  C
  C171     1.0000 0.35620  0.35100  0.25000  Biso   1.000  C
  C172     1.0000 0.64380  0.64900  0.75000  Biso   1.000  C
  C173     1.0000 0.85620  0.14900  0.75000  Biso   1.000  C
  C174     1.0000 0.14380  0.85100  0.25000  Biso   1.000  C
  C175     1.0000 0.85620  0.85100  0.25000  Biso   1.000  C
  C176     1.0000 0.14380  0.14900  0.75000  Biso   1.000  C
  H137     1.0000 0.39140  0.65760  0.75000  Biso   1.000  H
  H138     1.0000 0.60860  0.34240  0.25000  Biso   1.000  H
  H139     1.0000 0.39140  0.34240  0.25000  Biso   1.000  H
  H140     1.0000 0.60860  0.65760  0.75000  Biso   1.000  H
  H141     1.0000 0.89140  0.15760  0.75000  Biso   1.000  H
  H142     1.0000 0.10860  0.84240  0.25000  Biso   1.000  H
  H143     1.0000 0.89140  0.84240  0.25000  Biso   1.000  H
  H144     1.0000 0.10860  0.15760  0.75000  Biso   1.000  H
  C177     1.0000 0.32630  0.73230  0.75000  Biso   1.000  C
  C178     1.0000 0.67370  0.26770  0.25000  Biso   1.000  C
  C179     1.0000 0.32630  0.26770  0.25000  Biso   1.000  C
  C180     1.0000 0.67370  0.73230  0.75000  Biso   1.000  C
  C181     1.0000 0.82630  0.23230  0.75000  Biso   1.000  C
  C182     1.0000 0.17370  0.76770  0.25000  Biso   1.000  C
  C183     1.0000 0.82630  0.76770  0.25000  Biso   1.000  C
  C184     1.0000 0.17370  0.23230  0.75000  Biso   1.000  C
  H145     1.0000 0.33810  0.80530  0.75000  Biso   1.000  H
  H146     1.0000 0.66190  0.19470  0.25000  Biso   1.000  H
  H147     1.0000 0.33810  0.19470  0.25000  Biso   1.000  H
  H148     1.0000 0.66190  0.80530  0.75000  Biso   1.000  H
  H149     1.0000 0.83810  0.30530  0.75000  Biso   1.000  H
  H150     1.0000 0.16190  0.69470  0.25000  Biso   1.000  H
  H151     1.0000 0.83810  0.69470  0.25000  Biso   1.000  H
  H152     1.0000 0.16190  0.30530  0.75000  Biso   1.000  H
  C185     1.0000 0.27210  0.70480  0.75000  Biso   1.000  C
  C186     1.0000 0.72790  0.29520  0.25000  Biso   1.000  C
  C187     1.0000 0.27210  0.29520  0.25000  Biso   1.000  C
  C188     1.0000 0.72790  0.70480  0.75000  Biso   1.000  C
  C189     1.0000 0.77210  0.20480  0.75000  Biso   1.000  C
  C190     1.0000 0.22790  0.79520  0.25000  Biso   1.000  C
  C191     1.0000 0.77210  0.79520  0.25000  Biso   1.000  C
  C192     1.0000 0.22790  0.20480  0.75000  Biso   1.000  C
  H153     1.0000 0.25090  0.77190  0.75000  Biso   1.000  H
  H154     1.0000 0.74910  0.22810  0.25000  Biso   1.000  H
  H155     1.0000 0.25090  0.22810  0.25000  Biso   1.000  H
  H156     1.0000 0.74910  0.77190  0.75000  Biso   1.000  H
  H157     1.0000 0.75090  0.27190  0.75000  Biso   1.000  H
  H158     1.0000 0.24910  0.72810  0.25000  Biso   1.000  H
  H159     1.0000 0.75090  0.72810  0.25000  Biso   1.000  H
  H160     1.0000 0.24910  0.27190  0.75000  Biso   1.000  H
  O33      1.0000 0.50000  0.02870  0.62620  Biso   1.000  O
  O34      1.0000 0.50000  0.97130  0.12620  Biso   1.000  O
  O35      1.0000 0.50000  0.97130  0.37380  Biso   1.000  O
  O36      1.0000 0.50000  0.02870  0.87380  Biso   1.000  O
  O37      1.0000 0.00000  0.52870  0.62620  Biso   1.000  O
  O38      1.0000 0.00000  0.47130  0.12620  Biso   1.000  O
  O39      1.0000 0.00000  0.47130  0.37380  Biso   1.000  O
  O40      1.0000 0.00000  0.52870  0.87380  Biso   1.000  O
  H161     1.0000 0.47800  0.06800  0.64800  Biso   1.000  H
  H162     1.0000 0.52200  0.93200  0.14800  Biso   1.000  H
  H163     1.0000 0.47800  0.93200  0.35200  Biso   1.000  H
  H164     1.0000 0.52200  0.06800  0.85200  Biso   1.000  H
  H165     1.0000 0.97800  0.56800  0.64800  Biso   1.000  H
  H166     1.0000 0.02200  0.43200  0.14800  Biso   1.000  H
  H167     1.0000 0.97800  0.43200  0.35200  Biso   1.000  H
  H168     1.0000 0.02200  0.56800  0.85200  Biso   1.000  H
  H169     1.0000 0.52200  0.93200  0.35200  Biso   1.000  H
  H170     1.0000 0.47800  0.06800  0.85200  Biso   1.000  H
  H171     1.0000 0.52200  0.06800  0.64800  Biso   1.000  H
  H172     1.0000 0.47800  0.93200  0.14800  Biso   1.000  H
  H173     1.0000 0.02200  0.43200  0.35200  Biso   1.000  H
  H174     1.0000 0.97800  0.56800  0.85200  Biso   1.000  H
  H175     1.0000 0.02200  0.56800  0.64800  Biso   1.000  H
  H176     1.0000 0.97800  0.43200  0.14800  Biso   1.000  H
  S1       1.0000 0.38661  0.04110  0.74700  Biso   1.000  S
  S2       1.0000 0.61339  0.95890  0.24700  Biso   1.000  S
  S3       1.0000 0.38661  0.95890  0.25300  Biso   1.000  S
  S4       1.0000 0.61339  0.04110  0.75300  Biso   1.000  S
  S5       1.0000 0.88661  0.54110  0.74700  Biso   1.000  S
  S6       1.0000 0.11339  0.45890  0.24700  Biso   1.000  S
  S7       1.0000 0.88661  0.45890  0.25300  Biso   1.000  S
  S8       1.0000 0.11339  0.54110  0.75300  Biso   1.000  S
  S9       1.0000 0.61339  0.95890  0.25300  Biso   1.000  S
  S10      1.0000 0.38661  0.04110  0.75300  Biso   1.000  S
  S11      1.0000 0.61339  0.04110  0.74700  Biso   1.000  S
  S12      1.0000 0.38661  0.95890  0.24700  Biso   1.000  S
  S13      1.0000 0.11339  0.45890  0.25300  Biso   1.000  S
  S14      1.0000 0.88661  0.54110  0.75300  Biso   1.000  S
  S15      1.0000 0.11339  0.54110  0.74700  Biso   1.000  S
  S16      1.0000 0.88661  0.45890  0.24700  Biso   1.000  S
  F1       1.0000 0.39260  0.22170  0.81410  Biso   1.000  F
  F2       1.0000 0.60740  0.77830  0.31410  Biso   1.000  F
  F3       1.0000 0.39260  0.77830  0.18590  Biso   1.000  F
  F4       1.0000 0.60740  0.22170  0.68590  Biso   1.000  F
  F5       1.0000 0.89260  0.72170  0.81410  Biso   1.000  F
  F6       1.0000 0.10740  0.27830  0.31410  Biso   1.000  F
  F7       1.0000 0.89260  0.27830  0.18590  Biso   1.000  F
  F8       1.0000 0.10740  0.72170  0.68590  Biso   1.000  F
  F9       1.0000 0.60740  0.77830  0.18590  Biso   1.000  F
  F10      1.0000 0.39260  0.22170  0.68590  Biso   1.000  F
  F11      1.0000 0.60740  0.22170  0.81410  Biso   1.000  F
  F12      1.0000 0.39260  0.77830  0.31410  Biso   1.000  F
  F13      1.0000 0.10740  0.27830  0.18590  Biso   1.000  F
  F14      1.0000 0.89260  0.72170  0.68590  Biso   1.000  F
  F15      1.0000 0.10740  0.72170  0.81410  Biso   1.000  F
  F16      1.0000 0.89260  0.27830  0.31410  Biso   1.000  F
  F17      1.0000 0.43400  0.22190  0.71870  Biso   1.000  F
  F18      1.0000 0.56600  0.77810  0.21870  Biso   1.000  F
  F19      1.0000 0.43400  0.77810  0.28130  Biso   1.000  F
  F20      1.0000 0.56600  0.22190  0.78130  Biso   1.000  F
  F21      1.0000 0.93400  0.72190  0.71870  Biso   1.000  F
  F22      1.0000 0.06600  0.27810  0.21870  Biso   1.000  F
  F23      1.0000 0.93400  0.27810  0.28130  Biso   1.000  F
  F24      1.0000 0.06600  0.72190  0.78130  Biso   1.000  F
  F25      1.0000 0.56600  0.77810  0.28130  Biso   1.000  F
  F26      1.0000 0.43400  0.22190  0.78130  Biso   1.000  F
  F27      1.0000 0.56600  0.22190  0.71870  Biso   1.000  F
  F28      1.0000 0.43400  0.77810  0.21870  Biso   1.000  F
  F29      1.0000 0.06600  0.27810  0.28130  Biso   1.000  F
  F30      1.0000 0.93400  0.72190  0.78130  Biso   1.000  F
  F31      1.0000 0.06600  0.72190  0.71870  Biso   1.000  F
  F32      1.0000 0.93400  0.27810  0.21870  Biso   1.000  F
  F33      1.0000 0.35340  0.23750  0.71820  Biso   1.000  F
  F34      1.0000 0.64660  0.76250  0.21820  Biso   1.000  F
  F35      1.0000 0.35340  0.76250  0.28180  Biso   1.000  F
  F36      1.0000 0.64660  0.23750  0.78180  Biso   1.000  F
  F37      1.0000 0.85340  0.73750  0.71820  Biso   1.000  F
  F38      1.0000 0.14660  0.26250  0.21820  Biso   1.000  F
  F39      1.0000 0.85340  0.26250  0.28180  Biso   1.000  F
  F40      1.0000 0.14660  0.73750  0.78180  Biso   1.000  F
  F41      1.0000 0.64660  0.76250  0.28180  Biso   1.000  F
  F42      1.0000 0.35340  0.23750  0.78180  Biso   1.000  F
  F43      1.0000 0.64660  0.23750  0.71820  Biso   1.000  F
  F44      1.0000 0.35340  0.76250  0.21820  Biso   1.000  F
  F45      1.0000 0.14660  0.26250  0.28180  Biso   1.000  F
  F46      1.0000 0.85340  0.73750  0.78180  Biso   1.000  F
  F47      1.0000 0.14660  0.73750  0.71820  Biso   1.000  F
  F48      1.0000 0.85340  0.26250  0.21820  Biso   1.000  F
  O41      1.0000 0.43220  0.97880  0.78720  Biso   1.000  O
  O42      1.0000 0.56780  0.02120  0.28720  Biso   1.000  O
  O43      1.0000 0.43220  0.02120  0.21280  Biso   1.000  O
  O44      1.0000 0.56780  0.97880  0.71280  Biso   1.000  O
  O45      1.0000 0.93220  0.47880  0.78720  Biso   1.000  O
  O46      1.0000 0.06780  0.52120  0.28720  Biso   1.000  O
  O47      1.0000 0.93220  0.52120  0.21280  Biso   1.000  O
  O48      1.0000 0.06780  0.47880  0.71280  Biso   1.000  O
  O49      1.0000 0.56780  0.02120  0.21280  Biso   1.000  O
  O50      1.0000 0.43220  0.97880  0.71280  Biso   1.000  O
  O51      1.0000 0.56780  0.97880  0.78720  Biso   1.000  O
  O52      1.0000 0.43220  0.02120  0.28720  Biso   1.000  O
  O53      1.0000 0.06780  0.52120  0.21280  Biso   1.000  O
  O54      1.0000 0.93220  0.47880  0.71280  Biso   1.000  O
  O55      1.0000 0.06780  0.47880  0.78720  Biso   1.000  O
  O56      1.0000 0.93220  0.52120  0.28720  Biso   1.000  O
  O57      1.0000 0.38780  0.99470  0.66920  Biso   1.000  O
  O58      1.0000 0.61220  0.00530  0.16920  Biso   1.000  O
  O59      1.0000 0.38780  0.00530  0.33080  Biso   1.000  O
  O60      1.0000 0.61220  0.99470  0.83080  Biso   1.000  O
  O61      1.0000 0.88780  0.49470  0.66920  Biso   1.000  O
  O62      1.0000 0.11220  0.50530  0.16920  Biso   1.000  O
  O63      1.0000 0.88780  0.50530  0.33080  Biso   1.000  O
  O64      1.0000 0.11220  0.49470  0.83080  Biso   1.000  O
  O65      1.0000 0.61220  0.00530  0.33080  Biso   1.000  O
  O66      1.0000 0.38780  0.99470  0.83080  Biso   1.000  O
  O67      1.0000 0.61220  0.99470  0.66920  Biso   1.000  O
  O68      1.0000 0.38780  0.00530  0.16920  Biso   1.000  O
  O69      1.0000 0.11220  0.50530  0.33080  Biso   1.000  O
  O70      1.0000 0.88780  0.49470  0.83080  Biso   1.000  O
  O71      1.0000 0.11220  0.49470  0.66920  Biso   1.000  O
  O72      1.0000 0.88780  0.50530  0.16920  Biso   1.000  O
  O73      1.0000 0.33380  0.99830  0.77810  Biso   1.000  O
  O74      1.0000 0.66620  0.00170  0.27810  Biso   1.000  O
  O75      1.0000 0.33380  0.00170  0.22190  Biso   1.000  O
  O76      1.0000 0.66620  0.99830  0.72190  Biso   1.000  O
  O77      1.0000 0.83380  0.49830  0.77810  Biso   1.000  O
  O78      1.0000 0.16620  0.50170  0.27810  Biso   1.000  O
  O79      1.0000 0.83380  0.50170  0.22190  Biso   1.000  O
  O80      1.0000 0.16620  0.49830  0.72190  Biso   1.000  O
  O81      1.0000 0.66620  0.00170  0.22190  Biso   1.000  O
  O82      1.0000 0.33380  0.99830  0.72190  Biso   1.000  O
  O83      1.0000 0.66620  0.99830  0.77810  Biso   1.000  O
  O84      1.0000 0.33380  0.00170  0.27810  Biso   1.000  O
  O85      1.0000 0.16620  0.50170  0.22190  Biso   1.000  O
  O86      1.0000 0.83380  0.49830  0.72190  Biso   1.000  O
  O87      1.0000 0.16620  0.49830  0.77810  Biso   1.000  O
  O88      1.0000 0.83380  0.50170  0.27810  Biso   1.000  O
  C193     1.0000 0.39230  0.19150  0.74990  Biso   1.000  C
  C194     1.0000 0.60770  0.80850  0.24990  Biso   1.000  C
  C195     1.0000 0.39230  0.80850  0.25010  Biso   1.000  C
  C196     1.0000 0.60770  0.19150  0.75010  Biso   1.000  C
  C197     1.0000 0.89230  0.69150  0.74990  Biso   1.000  C
  C198     1.0000 0.10770  0.30850  0.24990  Biso   1.000  C
  C199     1.0000 0.89230  0.30850  0.25010  Biso   1.000  C
  C200     1.0000 0.10770  0.69150  0.75010  Biso   1.000  C
  C201     1.0000 0.44400  0.81130  0.46510  Biso   1.000  C
  C202     1.0000 0.55600  0.18870  0.96510  Biso   1.000  C
  C203     1.0000 0.44400  0.18870  0.53490  Biso   1.000  C
  C204     1.0000 0.55600  0.81130  0.03490  Biso   1.000  C
  C205     1.0000 0.94400  0.31130  0.46510  Biso   1.000  C
  C206     1.0000 0.05600  0.68870  0.96510  Biso   1.000  C
  C207     1.0000 0.94400  0.68870  0.53490  Biso   1.000  C
  C208     1.0000 0.05600  0.31130  0.03490  Biso   1.000  C
  C209     1.0000 0.55600  0.18870  0.53490  Biso   1.000  C
  C210     1.0000 0.44400  0.81130  0.03490  Biso   1.000  C
  C211     1.0000 0.55600  0.81130  0.46510  Biso   1.000  C
  C212     1.0000 0.44400  0.18870  0.96510  Biso   1.000  C
  C213     1.0000 0.05600  0.68870  0.53490  Biso   1.000  C
  C214     1.0000 0.94400  0.31130  0.03490  Biso   1.000  C
  C215     1.0000 0.05600  0.31130  0.46510  Biso   1.000  C
  C216     1.0000 0.94400  0.68870  0.96510  Biso   1.000  C
  H177     1.0000 0.46780  0.80830  0.43020  Biso   1.000  H
  H178     1.0000 0.53220  0.19170  0.93020  Biso   1.000  H
  H179     1.0000 0.46780  0.19170  0.56980  Biso   1.000  H
  H180     1.0000 0.53220  0.80830  0.06980  Biso   1.000  H
  H181     1.0000 0.96780  0.30830  0.43020  Biso   1.000  H
  H182     1.0000 0.03220  0.69170  0.93020  Biso   1.000  H
  H183     1.0000 0.96780  0.69170  0.56980  Biso   1.000  H
  H184     1.0000 0.03220  0.30830  0.06980  Biso   1.000  H
  H185     1.0000 0.53220  0.19170  0.56980  Biso   1.000  H
  H186     1.0000 0.46780  0.80830  0.06980  Biso   1.000  H
  H187     1.0000 0.53220  0.80830  0.43020  Biso   1.000  H
  H188     1.0000 0.46780  0.19170  0.93020  Biso   1.000  H
  H189     1.0000 0.03220  0.69170  0.56980  Biso   1.000  H
  H190     1.0000 0.96780  0.30830  0.06980  Biso   1.000  H
  H191     1.0000 0.03220  0.30830  0.43020  Biso   1.000  H
  H192     1.0000 0.96780  0.69170  0.93020  Biso   1.000  H
  C217     1.0000 0.40580  0.73650  0.46880  Biso   1.000  C
  C218     1.0000 0.59420  0.26350  0.96880  Biso   1.000  C
  C219     1.0000 0.40580  0.26350  0.53120  Biso   1.000  C
  C220     1.0000 0.59420  0.73650  0.03120  Biso   1.000  C
  C221     1.0000 0.90580  0.23650  0.46880  Biso   1.000  C
  C222     1.0000 0.09420  0.76350  0.96880  Biso   1.000  C
  C223     1.0000 0.90580  0.76350  0.53120  Biso   1.000  C
  C224     1.0000 0.09420  0.23650  0.03120  Biso   1.000  C
  C225     1.0000 0.59420  0.26350  0.53120  Biso   1.000  C
  C226     1.0000 0.40580  0.73650  0.03120  Biso   1.000  C
  C227     1.0000 0.59420  0.73650  0.46880  Biso   1.000  C
  C228     1.0000 0.40580  0.26350  0.96880  Biso   1.000  C
  C229     1.0000 0.09420  0.76350  0.53120  Biso   1.000  C
  C230     1.0000 0.90580  0.23650  0.03120  Biso   1.000  C
  C231     1.0000 0.09420  0.23650  0.46880  Biso   1.000  C
  C232     1.0000 0.90580  0.76350  0.96880  Biso   1.000  C
  H193     1.0000 0.40390  0.68100  0.43590  Biso   1.000  H
  H194     1.0000 0.59610  0.31900  0.93590  Biso   1.000  H
  H195     1.0000 0.40390  0.31900  0.56410  Biso   1.000  H
  H196     1.0000 0.59610  0.68100  0.06410  Biso   1.000  H
  H197     1.0000 0.90390  0.18100  0.43590  Biso   1.000  H
  H198     1.0000 0.09610  0.81900  0.93590  Biso   1.000  H
  H199     1.0000 0.90390  0.81900  0.56410  Biso   1.000  H
  H200     1.0000 0.09610  0.18100  0.06410  Biso   1.000  H
  H201     1.0000 0.59610  0.31900  0.56410  Biso   1.000  H
  H202     1.0000 0.40390  0.68100  0.06410  Biso   1.000  H
  H203     1.0000 0.59610  0.68100  0.43590  Biso   1.000  H
  H204     1.0000 0.40390  0.31900  0.93590  Biso   1.000  H
  H205     1.0000 0.09610  0.81900  0.56410  Biso   1.000  H
  H206     1.0000 0.90390  0.18100  0.06410  Biso   1.000  H
  H207     1.0000 0.09610  0.18100  0.43590  Biso   1.000  H
  H208     1.0000 0.90390  0.81900  0.93590  Biso   1.000  H
  C233     1.0000 0.37860  0.82650  0.56650  Biso   1.000  C
  C234     1.0000 0.62140  0.17350  0.06650  Biso   1.000  C
  C235     1.0000 0.37860  0.17350  0.43350  Biso   1.000  C
  C236     1.0000 0.62140  0.82650  0.93350  Biso   1.000  C
  C237     1.0000 0.87860  0.32650  0.56650  Biso   1.000  C
  C238     1.0000 0.12140  0.67350  0.06650  Biso   1.000  C
  C239     1.0000 0.87860  0.67350  0.43350  Biso   1.000  C
  C240     1.0000 0.12140  0.32650  0.93350  Biso   1.000  C
  C241     1.0000 0.62140  0.17350  0.43350  Biso   1.000  C
  C242     1.0000 0.37860  0.82650  0.93350  Biso   1.000  C
  C243     1.0000 0.62140  0.82650  0.56650  Biso   1.000  C
  C244     1.0000 0.37860  0.17350  0.06650  Biso   1.000  C
  C245     1.0000 0.12140  0.67350  0.43350  Biso   1.000  C
  C246     1.0000 0.87860  0.32650  0.93350  Biso   1.000  C
  C247     1.0000 0.12140  0.32650  0.56650  Biso   1.000  C
  C248     1.0000 0.87860  0.67350  0.06650  Biso   1.000  C
  H209     1.0000 0.35730  0.83640  0.60380  Biso   1.000  H
  H210     1.0000 0.64270  0.16360  0.10380  Biso   1.000  H
  H211     1.0000 0.35730  0.16360  0.39620  Biso   1.000  H
  H212     1.0000 0.64270  0.83640  0.89620  Biso   1.000  H
  H213     1.0000 0.85730  0.33640  0.60380  Biso   1.000  H
  H214     1.0000 0.14270  0.66360  0.10380  Biso   1.000  H
  H215     1.0000 0.85730  0.66360  0.39620  Biso   1.000  H
  H216     1.0000 0.14270  0.33640  0.89620  Biso   1.000  H
  H217     1.0000 0.64270  0.16360  0.39620  Biso   1.000  H
  H218     1.0000 0.35730  0.83640  0.89620  Biso   1.000  H
  H219     1.0000 0.64270  0.83640  0.60380  Biso   1.000  H
  H220     1.0000 0.35730  0.16360  0.10380  Biso   1.000  H
  H221     1.0000 0.14270  0.66360  0.39620  Biso   1.000  H
  H222     1.0000 0.85730  0.33640  0.89620  Biso   1.000  H
  H223     1.0000 0.14270  0.33640  0.60380  Biso   1.000  H
  H224     1.0000 0.85730  0.66360  0.10380  Biso   1.000  H
  C249     1.0000 0.41760  0.89730  0.55920  Biso   1.000  C
  C250     1.0000 0.58240  0.10270  0.05920  Biso   1.000  C
  C251     1.0000 0.41760  0.10270  0.44080  Biso   1.000  C
  C252     1.0000 0.58240  0.89730  0.94080  Biso   1.000  C
  C253     1.0000 0.91760  0.39730  0.55920  Biso   1.000  C
  C254     1.0000 0.08240  0.60270  0.05920  Biso   1.000  C
  C255     1.0000 0.91760  0.60270  0.44080  Biso   1.000  C
  C256     1.0000 0.08240  0.39730  0.94080  Biso   1.000  C
  C257     1.0000 0.58240  0.10270  0.44080  Biso   1.000  C
  C258     1.0000 0.41760  0.89730  0.94080  Biso   1.000  C
  C259     1.0000 0.58240  0.89730  0.55920  Biso   1.000  C
  C260     1.0000 0.41760  0.10270  0.05920  Biso   1.000  C
  C261     1.0000 0.08240  0.60270  0.44080  Biso   1.000  C
  C262     1.0000 0.91760  0.39730  0.94080  Biso   1.000  C
  C263     1.0000 0.08240  0.39730  0.55920  Biso   1.000  C
  C264     1.0000 0.91760  0.60270  0.05920  Biso   1.000  C
  H225     1.0000 0.42260  0.95420  0.59070  Biso   1.000  H
  H226     1.0000 0.57740  0.04580  0.09070  Biso   1.000  H
  H227     1.0000 0.42260  0.04580  0.40930  Biso   1.000  H
  H228     1.0000 0.57740  0.95420  0.90930  Biso   1.000  H
  H229     1.0000 0.92260  0.45420  0.59070  Biso   1.000  H
  H230     1.0000 0.07740  0.54580  0.09070  Biso   1.000  H
  H231     1.0000 0.92260  0.54580  0.40930  Biso   1.000  H
  H232     1.0000 0.07740  0.45420  0.90930  Biso   1.000  H
  H233     1.0000 0.57740  0.04580  0.40930  Biso   1.000  H
  H234     1.0000 0.42260  0.95420  0.90930  Biso   1.000  H
  H235     1.0000 0.57740  0.95420  0.59070  Biso   1.000  H
  H236     1.0000 0.42260  0.04580  0.09070  Biso   1.000  H
  H237     1.0000 0.07740  0.54580  0.40930  Biso   1.000  H
  H238     1.0000 0.92260  0.45420  0.90930  Biso   1.000  H
  H239     1.0000 0.07740  0.45420  0.59070  Biso   1.000  H
  H240     1.0000 0.92260  0.54580  0.09070  Biso   1.000  H
  H241     1.0000 0.52500  0.01200  0.65300  Biso   1.000  H
  H242     1.0000 0.47500  0.98800  0.15300  Biso   1.000  H
  H243     1.0000 0.52500  0.98800  0.34700  Biso   1.000  H
  H244     1.0000 0.47500  0.01200  0.84700  Biso   1.000  H
  H245     1.0000 0.02500  0.51200  0.65300  Biso   1.000  H
  H246     1.0000 0.97500  0.48800  0.15300  Biso   1.000  H
  H247     1.0000 0.02500  0.48800  0.34700  Biso   1.000  H
  H248     1.0000 0.97500  0.51200  0.84700  Biso   1.000  H
  H249     1.0000 0.47500  0.98800  0.34700  Biso   1.000  H
  H250     1.0000 0.52500  0.01200  0.84700  Biso   1.000  H
  H251     1.0000 0.47500  0.01200  0.65300  Biso   1.000  H
  H252     1.0000 0.52500  0.98800  0.15300  Biso   1.000  H
  H253     1.0000 0.97500  0.48800  0.34700  Biso   1.000  H
  H254     1.0000 0.02500  0.51200  0.84700  Biso   1.000  H
  H255     1.0000 0.97500  0.51200  0.65300  Biso   1.000  H
  H256     1.0000 0.02500  0.48800  0.15300  Biso   1.000  H
