data_image0
_cell_length_a       37.307
_cell_length_b       8.055
_cell_length_c       25.933
_cell_angle_alpha    90
_cell_angle_beta     111.42
_cell_angle_gamma    90

_symmetry_space_group_name_H-M    "P 1"
_symmetry_int_tables_number       1

loop_
  _symmetry_equiv_pos_as_xyz
  'x, y, z'

loop_
  _atom_site_label
  _atom_site_occupancy
  _atom_site_fract_x
  _atom_site_fract_y
  _atom_site_fract_z
  _atom_site_thermal_displace_type
  _atom_site_B_iso_or_equiv
  _atom_site_type_symbol
  Cu1      1.0000 0.10990  0.00305  0.75318  Biso   1.000  Cu
  Cu2      1.0000 0.89010  0.00305  0.74682  Biso   1.000  Cu
  Cu3      1.0000 0.60990  0.50305  0.75318  Biso   1.000  Cu
  Cu4      1.0000 0.39010  0.50305  0.74682  Biso   1.000  Cu
  Cu5      1.0000 0.89010  0.99695  0.24682  Biso   1.000  Cu
  Cu6      1.0000 0.10990  0.99695  0.25318  Biso   1.000  Cu
  Cu7      1.0000 0.39010  0.49695  0.24682  Biso   1.000  Cu
  Cu8      1.0000 0.60990  0.49695  0.25318  Biso   1.000  Cu
  C1       1.0000 0.22662  0.68860  0.91003  Biso   1.000  C
  C2       1.0000 0.77338  0.68860  0.58997  Biso   1.000  C
  C3       1.0000 0.72662  0.18860  0.91003  Biso   1.000  C
  C4       1.0000 0.27338  0.18860  0.58997  Biso   1.000  C
  C5       1.0000 0.77338  0.31140  0.08997  Biso   1.000  C
  C6       1.0000 0.22662  0.31140  0.41003  Biso   1.000  C
  C7       1.0000 0.27338  0.81140  0.08997  Biso   1.000  C
  C8       1.0000 0.72662  0.81140  0.41003  Biso   1.000  C
  H1       1.0000 0.24540  0.73500  0.94230  Biso   1.000  H
  H2       1.0000 0.75460  0.73500  0.55770  Biso   1.000  H
  H3       1.0000 0.74540  0.23500  0.94230  Biso   1.000  H
  H4       1.0000 0.25460  0.23500  0.55770  Biso   1.000  H
  H5       1.0000 0.75460  0.26500  0.05770  Biso   1.000  H
  H6       1.0000 0.24540  0.26500  0.44230  Biso   1.000  H
  H7       1.0000 0.25460  0.76500  0.05770  Biso   1.000  H
  H8       1.0000 0.74540  0.76500  0.44230  Biso   1.000  H
  Cu9      1.0000 0.11274  0.50782  0.86991  Biso   1.000  Cu
  Cu10     1.0000 0.88726  0.50782  0.63009  Biso   1.000  Cu
  Cu11     1.0000 0.61274  0.00782  0.86991  Biso   1.000  Cu
  Cu12     1.0000 0.38726  0.00782  0.63009  Biso   1.000  Cu
  Cu13     1.0000 0.88726  0.49218  0.13009  Biso   1.000  Cu
  Cu14     1.0000 0.11274  0.49218  0.36991  Biso   1.000  Cu
  Cu15     1.0000 0.38727  0.99218  0.13009  Biso   1.000  Cu
  Cu16     1.0000 0.61274  0.99218  0.36991  Biso   1.000  Cu
  C9       1.0000 0.19220  0.62910  0.91192  Biso   1.000  C
  C10      1.0000 0.80780  0.62910  0.58808  Biso   1.000  C
  C11      1.0000 0.69220  0.12910  0.91192  Biso   1.000  C
  C12      1.0000 0.30780  0.12910  0.58808  Biso   1.000  C
  C13      1.0000 0.80780  0.37090  0.08808  Biso   1.000  C
  C14      1.0000 0.19220  0.37090  0.41192  Biso   1.000  C
  C15      1.0000 0.30780  0.87090  0.08808  Biso   1.000  C
  C16      1.0000 0.69220  0.87090  0.41192  Biso   1.000  C
  H9       1.0000 0.18800  0.63860  0.94580  Biso   1.000  H
  H10      1.0000 0.81200  0.63860  0.55420  Biso   1.000  H
  H11      1.0000 0.68800  0.13860  0.94580  Biso   1.000  H
  H12      1.0000 0.31200  0.13860  0.55420  Biso   1.000  H
  H13      1.0000 0.81200  0.36140  0.05420  Biso   1.000  H
  H14      1.0000 0.18800  0.36140  0.44580  Biso   1.000  H
  H15      1.0000 0.31200  0.86140  0.05420  Biso   1.000  H
  H16      1.0000 0.68800  0.86140  0.44580  Biso   1.000  H
  N1       1.0000 0.16310  0.05390  0.80569  Biso   1.000  N
  N2       1.0000 0.83690  0.05390  0.69431  Biso   1.000  N
  N3       1.0000 0.66310  0.55390  0.80569  Biso   1.000  N
  N4       1.0000 0.33690  0.55390  0.69431  Biso   1.000  N
  N5       1.0000 0.83690  0.94610  0.19431  Biso   1.000  N
  N6       1.0000 0.16310  0.94610  0.30569  Biso   1.000  N
  N7       1.0000 0.33690  0.44610  0.19431  Biso   1.000  N
  N8       1.0000 0.66310  0.44610  0.30569  Biso   1.000  N
  N9       1.0000 0.16449  0.55860  0.86838  Biso   1.000  N
  N10      1.0000 0.83551  0.55860  0.63162  Biso   1.000  N
  N11      1.0000 0.66449  0.05860  0.86838  Biso   1.000  N
  N12      1.0000 0.33551  0.05860  0.63162  Biso   1.000  N
  N13      1.0000 0.83551  0.44140  0.13162  Biso   1.000  N
  N14      1.0000 0.16449  0.44140  0.36838  Biso   1.000  N
  N15      1.0000 0.33551  0.94140  0.13162  Biso   1.000  N
  N16      1.0000 0.66449  0.94140  0.36838  Biso   1.000  N
  C17      1.0000 0.23284  0.19260  0.87922  Biso   1.000  C
  C18      1.0000 0.76716  0.19260  0.62078  Biso   1.000  C
  C19      1.0000 0.73284  0.69260  0.87922  Biso   1.000  C
  C20      1.0000 0.26716  0.69260  0.62078  Biso   1.000  C
  C21      1.0000 0.76716  0.80740  0.12078  Biso   1.000  C
  C22      1.0000 0.23284  0.80740  0.37922  Biso   1.000  C
  C23      1.0000 0.26716  0.30740  0.12078  Biso   1.000  C
  C24      1.0000 0.73284  0.30740  0.37922  Biso   1.000  C
  H17      1.0000 0.25580  0.24370  0.90330  Biso   1.000  H
  H18      1.0000 0.74420  0.24370  0.59670  Biso   1.000  H
  H19      1.0000 0.75580  0.74370  0.90330  Biso   1.000  H
  H20      1.0000 0.24420  0.74370  0.59670  Biso   1.000  H
  H21      1.0000 0.74420  0.75630  0.09670  Biso   1.000  H
  H22      1.0000 0.25580  0.75630  0.40330  Biso   1.000  H
  H23      1.0000 0.24420  0.25630  0.09670  Biso   1.000  H
  H24      1.0000 0.75580  0.25630  0.40330  Biso   1.000  H
  C25      1.0000 0.22374  0.18980  0.82259  Biso   1.000  C
  C26      1.0000 0.77626  0.18980  0.67741  Biso   1.000  C
  C27      1.0000 0.72374  0.68980  0.82259  Biso   1.000  C
  C28      1.0000 0.27626  0.68980  0.67741  Biso   1.000  C
  C29      1.0000 0.77626  0.81020  0.17741  Biso   1.000  C
  C30      1.0000 0.22374  0.81020  0.32259  Biso   1.000  C
  C31      1.0000 0.27626  0.31020  0.17741  Biso   1.000  C
  C32      1.0000 0.72374  0.31020  0.32259  Biso   1.000  C
  H25      1.0000 0.24140  0.23390  0.80750  Biso   1.000  H
  H26      1.0000 0.75860  0.23390  0.69250  Biso   1.000  H
  H27      1.0000 0.74140  0.73390  0.80750  Biso   1.000  H
  H28      1.0000 0.25860  0.73390  0.69250  Biso   1.000  H
  H29      1.0000 0.75860  0.76610  0.19250  Biso   1.000  H
  H30      1.0000 0.24140  0.76610  0.30750  Biso   1.000  H
  H31      1.0000 0.25860  0.26610  0.19250  Biso   1.000  H
  H32      1.0000 0.74140  0.26610  0.30750  Biso   1.000  H
  C33      1.0000 0.17244  0.54530  0.82199  Biso   1.000  C
  C34      1.0000 0.82756  0.54530  0.67801  Biso   1.000  C
  C35      1.0000 0.67244  0.04530  0.82199  Biso   1.000  C
  C36      1.0000 0.32756  0.04530  0.67801  Biso   1.000  C
  C37      1.0000 0.82756  0.45470  0.17801  Biso   1.000  C
  C38      1.0000 0.17244  0.45470  0.32199  Biso   1.000  C
  C39      1.0000 0.32756  0.95470  0.17801  Biso   1.000  C
  C40      1.0000 0.67244  0.95470  0.32199  Biso   1.000  C
  C41      1.0000 0.20718  0.11790  0.89966  Biso   1.000  C
  C42      1.0000 0.79282  0.11790  0.60034  Biso   1.000  C
  C43      1.0000 0.70718  0.61790  0.89966  Biso   1.000  C
  C44      1.0000 0.29282  0.61790  0.60034  Biso   1.000  C
  C45      1.0000 0.79282  0.88210  0.10034  Biso   1.000  C
  C46      1.0000 0.20718  0.88210  0.39966  Biso   1.000  C
  C47      1.0000 0.29282  0.38210  0.10034  Biso   1.000  C
  C48      1.0000 0.70718  0.38210  0.39966  Biso   1.000  C
  C49      1.0000 0.20614  0.60710  0.81577  Biso   1.000  C
  C50      1.0000 0.79386  0.60710  0.68423  Biso   1.000  C
  C51      1.0000 0.70614  0.10710  0.81577  Biso   1.000  C
  C52      1.0000 0.29386  0.10710  0.68423  Biso   1.000  C
  C53      1.0000 0.79386  0.39290  0.18423  Biso   1.000  C
  C54      1.0000 0.20614  0.39290  0.31577  Biso   1.000  C
  C55      1.0000 0.29386  0.89290  0.18423  Biso   1.000  C
  C56      1.0000 0.70614  0.89290  0.31577  Biso   1.000  C
  C57      1.0000 0.23372  0.68070  0.86157  Biso   1.000  C
  C58      1.0000 0.76628  0.68070  0.63843  Biso   1.000  C
  C59      1.0000 0.73372  0.18070  0.86157  Biso   1.000  C
  C60      1.0000 0.26628  0.18070  0.63843  Biso   1.000  C
  C61      1.0000 0.76628  0.31930  0.13843  Biso   1.000  C
  C62      1.0000 0.23372  0.31930  0.36157  Biso   1.000  C
  C63      1.0000 0.26628  0.81930  0.13843  Biso   1.000  C
  C64      1.0000 0.73372  0.81930  0.36157  Biso   1.000  C
  H33      1.0000 0.25680  0.72440  0.85950  Biso   1.000  H
  H34      1.0000 0.74320  0.72440  0.64050  Biso   1.000  H
  H35      1.0000 0.75680  0.22440  0.85950  Biso   1.000  H
  H36      1.0000 0.24320  0.22440  0.64050  Biso   1.000  H
  H37      1.0000 0.74320  0.27560  0.14050  Biso   1.000  H
  H38      1.0000 0.25680  0.27560  0.35950  Biso   1.000  H
  H39      1.0000 0.24320  0.77560  0.14050  Biso   1.000  H
  H40      1.0000 0.75680  0.77560  0.35950  Biso   1.000  H
  C65      1.0000 0.18910  0.12320  0.78756  Biso   1.000  C
  C66      1.0000 0.81090  0.12320  0.71244  Biso   1.000  C
  C67      1.0000 0.68910  0.62320  0.78756  Biso   1.000  C
  C68      1.0000 0.31090  0.62320  0.71244  Biso   1.000  C
  C69      1.0000 0.81090  0.87680  0.21244  Biso   1.000  C
  C70      1.0000 0.18910  0.87680  0.28756  Biso   1.000  C
  C71      1.0000 0.31090  0.37680  0.21244  Biso   1.000  C
  C72      1.0000 0.68910  0.37680  0.28756  Biso   1.000  C
  H41      1.0000 0.18350  0.12690  0.74880  Biso   1.000  H
  H42      1.0000 0.81650  0.12690  0.75120  Biso   1.000  H
  H43      1.0000 0.68350  0.62690  0.74880  Biso   1.000  H
  H44      1.0000 0.31650  0.62690  0.75120  Biso   1.000  H
  H45      1.0000 0.81650  0.87310  0.25120  Biso   1.000  H
  H46      1.0000 0.18350  0.87310  0.24880  Biso   1.000  H
  H47      1.0000 0.31650  0.37310  0.25120  Biso   1.000  H
  H48      1.0000 0.68350  0.37310  0.24880  Biso   1.000  H
  C73      1.0000 0.20237  0.56890  0.76002  Biso   1.000  C
  C74      1.0000 0.79763  0.56890  0.73998  Biso   1.000  C
  C75      1.0000 0.70237  0.06890  0.76002  Biso   1.000  C
  C76      1.0000 0.29763  0.06890  0.73998  Biso   1.000  C
  C77      1.0000 0.79763  0.43110  0.23998  Biso   1.000  C
  C78      1.0000 0.20237  0.43110  0.26002  Biso   1.000  C
  C79      1.0000 0.29763  0.93110  0.23998  Biso   1.000  C
  C80      1.0000 0.70237  0.93110  0.26002  Biso   1.000  C
  H49      1.0000 0.22030  0.59470  0.74300  Biso   1.000  H
  H50      1.0000 0.77970  0.59470  0.75700  Biso   1.000  H
  H51      1.0000 0.72030  0.09470  0.74300  Biso   1.000  H
  H52      1.0000 0.27970  0.09470  0.75700  Biso   1.000  H
  H53      1.0000 0.77970  0.40530  0.25700  Biso   1.000  H
  H54      1.0000 0.22030  0.40530  0.24300  Biso   1.000  H
  H55      1.0000 0.27970  0.90530  0.25700  Biso   1.000  H
  H56      1.0000 0.72030  0.90530  0.24300  Biso   1.000  H
  C81      1.0000 0.17305  0.04840  0.86092  Biso   1.000  C
  C82      1.0000 0.82695  0.04840  0.63908  Biso   1.000  C
  C83      1.0000 0.67305  0.54840  0.86092  Biso   1.000  C
  C84      1.0000 0.32695  0.54840  0.63908  Biso   1.000  C
  C85      1.0000 0.82695  0.95160  0.13908  Biso   1.000  C
  C86      1.0000 0.17305  0.95160  0.36092  Biso   1.000  C
  C87      1.0000 0.32695  0.45160  0.13908  Biso   1.000  C
  C88      1.0000 0.67305  0.45160  0.36092  Biso   1.000  C
  C89      1.0000 0.16842  0.48930  0.73638  Biso   1.000  C
  C90      1.0000 0.83158  0.48930  0.76362  Biso   1.000  C
  C91      1.0000 0.66842  0.98930  0.73638  Biso   1.000  C
  C92      1.0000 0.33158  0.98930  0.76362  Biso   1.000  C
  C93      1.0000 0.83158  0.51070  0.26362  Biso   1.000  C
  C94      1.0000 0.16842  0.51070  0.23638  Biso   1.000  C
  C95      1.0000 0.33158  0.01070  0.26362  Biso   1.000  C
  C96      1.0000 0.66842  0.01070  0.23638  Biso   1.000  C
  H57      1.0000 0.15870  0.44840  0.69950  Biso   1.000  H
  H58      1.0000 0.84130  0.44840  0.80050  Biso   1.000  H
  H59      1.0000 0.65870  0.94840  0.69950  Biso   1.000  H
  H60      1.0000 0.34130  0.94840  0.80050  Biso   1.000  H
  H61      1.0000 0.84130  0.55160  0.30050  Biso   1.000  H
  H62      1.0000 0.15870  0.55160  0.19950  Biso   1.000  H
  H63      1.0000 0.34130  0.05160  0.30050  Biso   1.000  H
  H64      1.0000 0.65870  0.05160  0.19950  Biso   1.000  H
  N17      1.0000 0.15217  0.98050  0.88861  Biso   1.000  N
  N18      1.0000 0.84783  0.98050  0.61139  Biso   1.000  N
  N19      1.0000 0.65217  0.48050  0.88861  Biso   1.000  N
  N20      1.0000 0.34783  0.48050  0.61139  Biso   1.000  N
  N21      1.0000 0.84783  0.01950  0.11139  Biso   1.000  N
  N22      1.0000 0.15217  0.01950  0.38861  Biso   1.000  N
  N23      1.0000 0.34783  0.51950  0.11139  Biso   1.000  N
  N24      1.0000 0.65217  0.51950  0.38861  Biso   1.000  N
  H65      1.0000 0.12980  0.93050  0.87360  Biso   1.000  H
  H66      1.0000 0.87020  0.93050  0.62640  Biso   1.000  H
  H67      1.0000 0.62980  0.43050  0.87360  Biso   1.000  H
  H68      1.0000 0.37020  0.43050  0.62640  Biso   1.000  H
  H69      1.0000 0.87020  0.06950  0.12640  Biso   1.000  H
  H70      1.0000 0.12980  0.06950  0.37360  Biso   1.000  H
  H71      1.0000 0.37020  0.56950  0.12640  Biso   1.000  H
  H72      1.0000 0.62980  0.56950  0.37360  Biso   1.000  H
  N25      1.0000 0.14970  0.47560  0.77366  Biso   1.000  N
  N26      1.0000 0.85030  0.47560  0.72634  Biso   1.000  N
  N27      1.0000 0.64970  0.97560  0.77366  Biso   1.000  N
  N28      1.0000 0.35030  0.97560  0.72634  Biso   1.000  N
  N29      1.0000 0.85030  0.52440  0.22634  Biso   1.000  N
  N30      1.0000 0.14970  0.52440  0.27366  Biso   1.000  N
  N31      1.0000 0.35030  0.02440  0.22634  Biso   1.000  N
  N32      1.0000 0.64970  0.02440  0.27366  Biso   1.000  N
  H73      1.0000 0.12710  0.42960  0.76700  Biso   1.000  H
  H74      1.0000 0.87290  0.42960  0.73300  Biso   1.000  H
  H75      1.0000 0.62710  0.92960  0.76700  Biso   1.000  H
  H76      1.0000 0.37290  0.92960  0.73300  Biso   1.000  H
  H77      1.0000 0.87290  0.57040  0.23300  Biso   1.000  H
  H78      1.0000 0.12710  0.57040  0.26700  Biso   1.000  H
  H79      1.0000 0.37290  0.07040  0.23300  Biso   1.000  H
  H80      1.0000 0.62710  0.07040  0.26700  Biso   1.000  H
  C97      1.0000 0.17208  0.00360  0.94435  Biso   1.000  C
  C98      1.0000 0.82792  0.00360  0.55565  Biso   1.000  C
  C99      1.0000 0.67208  0.50360  0.94435  Biso   1.000  C
  C100     1.0000 0.32792  0.50360  0.55565  Biso   1.000  C
  C101     1.0000 0.82792  0.99640  0.05565  Biso   1.000  C
  C102     1.0000 0.17208  0.99640  0.44435  Biso   1.000  C
  C103     1.0000 0.32792  0.49640  0.05565  Biso   1.000  C
  C104     1.0000 0.67208  0.49640  0.44435  Biso   1.000  C
  H81      1.0000 0.16370  0.96600  0.97280  Biso   1.000  H
  H82      1.0000 0.83630  0.96600  0.52720  Biso   1.000  H
  H83      1.0000 0.66370  0.46600  0.97280  Biso   1.000  H
  H84      1.0000 0.33630  0.46600  0.52720  Biso   1.000  H
  H85      1.0000 0.83630  0.03400  0.02720  Biso   1.000  H
  H86      1.0000 0.16370  0.03400  0.47280  Biso   1.000  H
  H87      1.0000 0.33630  0.53400  0.02720  Biso   1.000  H
  H88      1.0000 0.66370  0.53400  0.47280  Biso   1.000  H
  N33      1.0000 0.06443  0.91460  0.68968  Biso   1.000  N
  N34      1.0000 0.93557  0.91460  0.81032  Biso   1.000  N
  N35      1.0000 0.56443  0.41460  0.68968  Biso   1.000  N
  N36      1.0000 0.43557  0.41460  0.81032  Biso   1.000  N
  N37      1.0000 0.93557  0.08540  0.31032  Biso   1.000  N
  N38      1.0000 0.06443  0.08540  0.18968  Biso   1.000  N
  N39      1.0000 0.43557  0.58540  0.31032  Biso   1.000  N
  N40      1.0000 0.56443  0.58540  0.18968  Biso   1.000  N
  N41      1.0000 0.06974  0.41880  0.89123  Biso   1.000  N
  N42      1.0000 0.93026  0.41880  0.60877  Biso   1.000  N
  N43      1.0000 0.56974  0.91880  0.89123  Biso   1.000  N
  N44      1.0000 0.43026  0.91880  0.60877  Biso   1.000  N
  N45      1.0000 0.93026  0.58120  0.10877  Biso   1.000  N
  N46      1.0000 0.06974  0.58120  0.39123  Biso   1.000  N
  N47      1.0000 0.43026  0.08120  0.10877  Biso   1.000  N
  N48      1.0000 0.56974  0.08120  0.39123  Biso   1.000  N
  O1       1.0000 0.10619  0.79660  0.78899  Biso   1.000  O
  O2       1.0000 0.89381  0.79660  0.71101  Biso   1.000  O
  O3       1.0000 0.60619  0.29660  0.78899  Biso   1.000  O
  O4       1.0000 0.39381  0.29660  0.71101  Biso   1.000  O
  O5       1.0000 0.89381  0.20340  0.21101  Biso   1.000  O
  O6       1.0000 0.10619  0.20340  0.28899  Biso   1.000  O
  O7       1.0000 0.39381  0.70340  0.21101  Biso   1.000  O
  O8       1.0000 0.60619  0.70340  0.28899  Biso   1.000  O
  O9       1.0000 0.10795  0.30040  0.83051  Biso   1.000  O
  O10      1.0000 0.89205  0.30040  0.66949  Biso   1.000  O
  O11      1.0000 0.60795  0.80040  0.83051  Biso   1.000  O
  O12      1.0000 0.39205  0.80040  0.66949  Biso   1.000  O
  O13      1.0000 0.89205  0.69960  0.16949  Biso   1.000  O
  O14      1.0000 0.10795  0.69960  0.33051  Biso   1.000  O
  O15      1.0000 0.39205  0.19960  0.16949  Biso   1.000  O
  O16      1.0000 0.60795  0.19960  0.33051  Biso   1.000  O
  C105     1.0000 0.04374  0.81350  0.71757  Biso   1.000  C
  C106     1.0000 0.95626  0.81350  0.78243  Biso   1.000  C
  C107     1.0000 0.54374  0.31350  0.71757  Biso   1.000  C
  C108     1.0000 0.45626  0.31350  0.78243  Biso   1.000  C
  C109     1.0000 0.95626  0.18650  0.28243  Biso   1.000  C
  C110     1.0000 0.04374  0.18650  0.21757  Biso   1.000  C
  C111     1.0000 0.45626  0.68650  0.28243  Biso   1.000  C
  C112     1.0000 0.54374  0.68650  0.21757  Biso   1.000  C
  H89      1.0000 0.02810  0.72770  0.69180  Biso   1.000  H
  H90      1.0000 0.97190  0.72770  0.80820  Biso   1.000  H
  H91      1.0000 0.52810  0.22770  0.69180  Biso   1.000  H
  H92      1.0000 0.47190  0.22770  0.80820  Biso   1.000  H
  H93      1.0000 0.97190  0.27230  0.30820  Biso   1.000  H
  H94      1.0000 0.02810  0.27230  0.19180  Biso   1.000  H
  H95      1.0000 0.47190  0.77230  0.30820  Biso   1.000  H
  H96      1.0000 0.52810  0.77230  0.19180  Biso   1.000  H
  H97      1.0000 0.02620  0.88510  0.72870  Biso   1.000  H
  H98      1.0000 0.97380  0.88510  0.77130  Biso   1.000  H
  H99      1.0000 0.52620  0.38510  0.72870  Biso   1.000  H
  H100     1.0000 0.47380  0.38510  0.77130  Biso   1.000  H
  H101     1.0000 0.97380  0.11490  0.27130  Biso   1.000  H
  H102     1.0000 0.02620  0.11490  0.22870  Biso   1.000  H
  H103     1.0000 0.47380  0.61490  0.27130  Biso   1.000  H
  H104     1.0000 0.52620  0.61490  0.22870  Biso   1.000  H
  C113     1.0000 0.04778  0.31040  0.84425  Biso   1.000  C
  C114     1.0000 0.95222  0.31040  0.65575  Biso   1.000  C
  C115     1.0000 0.54778  0.81040  0.84425  Biso   1.000  C
  C116     1.0000 0.45222  0.81040  0.65575  Biso   1.000  C
  C117     1.0000 0.95222  0.68960  0.15575  Biso   1.000  C
  C118     1.0000 0.04778  0.68960  0.34425  Biso   1.000  C
  C119     1.0000 0.45222  0.18960  0.15575  Biso   1.000  C
  C120     1.0000 0.54778  0.18960  0.34425  Biso   1.000  C
  H105     1.0000 0.02790  0.37650  0.81570  Biso   1.000  H
  H106     1.0000 0.97210  0.37650  0.68430  Biso   1.000  H
  H107     1.0000 0.52790  0.87650  0.81570  Biso   1.000  H
  H108     1.0000 0.47210  0.87650  0.68430  Biso   1.000  H
  H109     1.0000 0.97210  0.62350  0.18430  Biso   1.000  H
  H110     1.0000 0.02790  0.62350  0.31570  Biso   1.000  H
  H111     1.0000 0.47210  0.12350  0.18430  Biso   1.000  H
  H112     1.0000 0.52790  0.12350  0.31570  Biso   1.000  H
  H113     1.0000 0.03460  0.22240  0.85730  Biso   1.000  H
  H114     1.0000 0.96540  0.22240  0.64270  Biso   1.000  H
  H115     1.0000 0.53460  0.72240  0.85730  Biso   1.000  H
  H116     1.0000 0.46540  0.72240  0.64270  Biso   1.000  H
  H117     1.0000 0.96540  0.77760  0.14270  Biso   1.000  H
  H118     1.0000 0.03460  0.77760  0.35730  Biso   1.000  H
  H119     1.0000 0.46540  0.27760  0.14270  Biso   1.000  H
  H120     1.0000 0.53460  0.27760  0.35730  Biso   1.000  H
  O17      1.0000 0.06314  0.60700  0.78889  Biso   1.000  O
  O18      1.0000 0.93686  0.60700  0.71111  Biso   1.000  O
  O19      1.0000 0.56314  0.10700  0.78889  Biso   1.000  O
  O20      1.0000 0.43686  0.10700  0.71111  Biso   1.000  O
  O21      1.0000 0.93686  0.39300  0.21111  Biso   1.000  O
  O22      1.0000 0.06314  0.39300  0.28889  Biso   1.000  O
  O23      1.0000 0.43686  0.89300  0.21111  Biso   1.000  O
  O24      1.0000 0.56314  0.89300  0.28889  Biso   1.000  O
  O25      1.0000 0.06426  0.10830  0.78913  Biso   1.000  O
  O26      1.0000 0.93574  0.10830  0.71087  Biso   1.000  O
  O27      1.0000 0.56426  0.60830  0.78913  Biso   1.000  O
  O28      1.0000 0.43574  0.60830  0.71087  Biso   1.000  O
  O29      1.0000 0.93574  0.89170  0.21087  Biso   1.000  O
  O30      1.0000 0.06426  0.89170  0.28913  Biso   1.000  O
  O31      1.0000 0.43574  0.39170  0.21087  Biso   1.000  O
  O32      1.0000 0.56426  0.39170  0.28913  Biso   1.000  O
  C121     1.0000 0.07297  0.73030  0.76888  Biso   1.000  C
  C122     1.0000 0.92703  0.73030  0.73112  Biso   1.000  C
  C123     1.0000 0.57297  0.23030  0.76888  Biso   1.000  C
  C124     1.0000 0.42703  0.23030  0.73112  Biso   1.000  C
  C125     1.0000 0.92703  0.26970  0.23112  Biso   1.000  C
  C126     1.0000 0.07297  0.26970  0.26888  Biso   1.000  C
  C127     1.0000 0.42703  0.76970  0.23112  Biso   1.000  C
  C128     1.0000 0.57297  0.76970  0.26888  Biso   1.000  C
  C129     1.0000 0.07516  0.23130  0.81921  Biso   1.000  C
  C130     1.0000 0.92484  0.23130  0.68079  Biso   1.000  C
  C131     1.0000 0.57516  0.73130  0.81921  Biso   1.000  C
  C132     1.0000 0.42484  0.73130  0.68079  Biso   1.000  C
  C133     1.0000 0.92484  0.76870  0.18079  Biso   1.000  C
  C134     1.0000 0.07516  0.76870  0.31921  Biso   1.000  C
  C135     1.0000 0.42484  0.26870  0.18079  Biso   1.000  C
  C136     1.0000 0.57516  0.26870  0.31921  Biso   1.000  C
  C137     1.0000 0.20535  0.08740  0.95323  Biso   1.000  C
  C138     1.0000 0.79465  0.08740  0.54677  Biso   1.000  C
  C139     1.0000 0.70535  0.58740  0.95323  Biso   1.000  C
  C140     1.0000 0.29465  0.58740  0.54677  Biso   1.000  C
  C141     1.0000 0.79465  0.91260  0.04677  Biso   1.000  C
  C142     1.0000 0.20535  0.91260  0.45323  Biso   1.000  C
  C143     1.0000 0.29465  0.41260  0.04677  Biso   1.000  C
  C144     1.0000 0.70535  0.41260  0.45323  Biso   1.000  C
  H121     1.0000 0.22380  0.11960  0.98800  Biso   1.000  H
  H122     1.0000 0.77620  0.11960  0.51200  Biso   1.000  H
  H123     1.0000 0.72380  0.61960  0.98800  Biso   1.000  H
  H124     1.0000 0.27620  0.61960  0.51200  Biso   1.000  H
  H125     1.0000 0.77620  0.88040  0.01200  Biso   1.000  H
  H126     1.0000 0.22380  0.88040  0.48800  Biso   1.000  H
  H127     1.0000 0.27620  0.38040  0.01200  Biso   1.000  H
  H128     1.0000 0.72380  0.38040  0.48800  Biso   1.000  H
  O33      1.0000 0.10475  0.19900  0.70792  Biso   1.000  O
  O34      1.0000 0.89525  0.19900  0.79208  Biso   1.000  O
  O35      1.0000 0.60475  0.69900  0.70792  Biso   1.000  O
  O36      1.0000 0.39525  0.69900  0.79208  Biso   1.000  O
  O37      1.0000 0.89525  0.80100  0.29208  Biso   1.000  O
  O38      1.0000 0.10475  0.80100  0.20792  Biso   1.000  O
  O39      1.0000 0.39525  0.30100  0.29208  Biso   1.000  O
  O40      1.0000 0.60475  0.30100  0.20792  Biso   1.000  O
  O41      1.0000 0.10877  0.70650  0.90918  Biso   1.000  O
  O42      1.0000 0.89123  0.70650  0.59082  Biso   1.000  O
  O43      1.0000 0.60877  0.20650  0.90918  Biso   1.000  O
  O44      1.0000 0.39123  0.20650  0.59082  Biso   1.000  O
  O45      1.0000 0.89123  0.29350  0.09082  Biso   1.000  O
  O46      1.0000 0.10877  0.29350  0.40918  Biso   1.000  O
  O47      1.0000 0.39123  0.79350  0.09082  Biso   1.000  O
  O48      1.0000 0.60877  0.79350  0.40918  Biso   1.000  O
  C145     1.0000 0.04399  0.06560  0.66117  Biso   1.000  C
  C146     1.0000 0.95601  0.06560  0.83883  Biso   1.000  C
  C147     1.0000 0.54399  0.56560  0.66117  Biso   1.000  C
  C148     1.0000 0.45601  0.56560  0.83883  Biso   1.000  C
  C149     1.0000 0.95601  0.93440  0.33883  Biso   1.000  C
  C150     1.0000 0.04399  0.93440  0.16117  Biso   1.000  C
  C151     1.0000 0.45601  0.43440  0.33883  Biso   1.000  C
  C152     1.0000 0.54399  0.43440  0.16117  Biso   1.000  C
  H129     1.0000 0.02400  0.09610  0.67620  Biso   1.000  H
  H130     1.0000 0.97600  0.09610  0.82380  Biso   1.000  H
  H131     1.0000 0.52400  0.59610  0.67620  Biso   1.000  H
  H132     1.0000 0.47600  0.59610  0.82380  Biso   1.000  H
  H133     1.0000 0.97600  0.90390  0.32380  Biso   1.000  H
  H134     1.0000 0.02400  0.90390  0.17620  Biso   1.000  H
  H135     1.0000 0.47600  0.40390  0.32380  Biso   1.000  H
  H136     1.0000 0.52400  0.40390  0.17620  Biso   1.000  H
  H137     1.0000 0.03100  0.04200  0.62120  Biso   1.000  H
  H138     1.0000 0.96900  0.04200  0.87880  Biso   1.000  H
  H139     1.0000 0.53100  0.54200  0.62120  Biso   1.000  H
  H140     1.0000 0.46900  0.54200  0.87880  Biso   1.000  H
  H141     1.0000 0.96900  0.95800  0.37880  Biso   1.000  H
  H142     1.0000 0.03100  0.95800  0.12120  Biso   1.000  H
  H143     1.0000 0.46900  0.45800  0.37880  Biso   1.000  H
  H144     1.0000 0.53100  0.45800  0.12120  Biso   1.000  H
  C153     1.0000 0.04938  0.56960  0.89860  Biso   1.000  C
  C154     1.0000 0.95062  0.56960  0.60140  Biso   1.000  C
  C155     1.0000 0.54938  0.06960  0.89860  Biso   1.000  C
  C156     1.0000 0.45062  0.06960  0.60140  Biso   1.000  C
  C157     1.0000 0.95062  0.43040  0.10140  Biso   1.000  C
  C158     1.0000 0.04938  0.43040  0.39860  Biso   1.000  C
  C159     1.0000 0.45062  0.93040  0.10140  Biso   1.000  C
  C160     1.0000 0.54938  0.93040  0.39860  Biso   1.000  C
  H145     1.0000 0.03840  0.54860  0.92750  Biso   1.000  H
  H146     1.0000 0.96160  0.54860  0.57250  Biso   1.000  H
  H147     1.0000 0.53840  0.04860  0.92750  Biso   1.000  H
  H148     1.0000 0.46160  0.04860  0.57250  Biso   1.000  H
  H149     1.0000 0.96160  0.45140  0.07250  Biso   1.000  H
  H150     1.0000 0.03840  0.45140  0.42750  Biso   1.000  H
  H151     1.0000 0.46160  0.95140  0.07250  Biso   1.000  H
  H152     1.0000 0.53840  0.95140  0.42750  Biso   1.000  H
  H153     1.0000 0.02780  0.59450  0.86350  Biso   1.000  H
  H154     1.0000 0.97220  0.59450  0.63650  Biso   1.000  H
  H155     1.0000 0.52780  0.09450  0.86350  Biso   1.000  H
  H156     1.0000 0.47220  0.09450  0.63650  Biso   1.000  H
  H157     1.0000 0.97220  0.40550  0.13650  Biso   1.000  H
  H158     1.0000 0.02780  0.40550  0.36350  Biso   1.000  H
  H159     1.0000 0.47220  0.90550  0.13650  Biso   1.000  H
  H160     1.0000 0.52780  0.90550  0.36350  Biso   1.000  H
  O49      1.0000 0.06059  0.33500  0.63922  Biso   1.000  O
  O50      1.0000 0.93941  0.33500  0.86078  Biso   1.000  O
  O51      1.0000 0.56059  0.83500  0.63922  Biso   1.000  O
  O52      1.0000 0.43941  0.83500  0.86078  Biso   1.000  O
  O53      1.0000 0.93941  0.66500  0.36078  Biso   1.000  O
  O54      1.0000 0.06059  0.66500  0.13922  Biso   1.000  O
  O55      1.0000 0.43941  0.16500  0.36078  Biso   1.000  O
  O56      1.0000 0.56059  0.16500  0.13922  Biso   1.000  O
  O57      1.0000 0.06543  0.84570  0.93217  Biso   1.000  O
  O58      1.0000 0.93457  0.84570  0.56783  Biso   1.000  O
  O59      1.0000 0.56543  0.34570  0.93217  Biso   1.000  O
  O60      1.0000 0.43457  0.34570  0.56783  Biso   1.000  O
  O61      1.0000 0.93457  0.15430  0.06783  Biso   1.000  O
  O62      1.0000 0.06543  0.15430  0.43217  Biso   1.000  O
  O63      1.0000 0.43457  0.65430  0.06783  Biso   1.000  O
  O64      1.0000 0.56543  0.65430  0.43217  Biso   1.000  O
  C161     1.0000 0.07164  0.21090  0.66869  Biso   1.000  C
  C162     1.0000 0.92836  0.21090  0.83131  Biso   1.000  C
  C163     1.0000 0.57164  0.71090  0.66869  Biso   1.000  C
  C164     1.0000 0.42836  0.71090  0.83131  Biso   1.000  C
  C165     1.0000 0.92836  0.78910  0.33131  Biso   1.000  C
  C166     1.0000 0.07164  0.78910  0.16869  Biso   1.000  C
  C167     1.0000 0.42836  0.28910  0.33131  Biso   1.000  C
  C168     1.0000 0.57164  0.28910  0.16869  Biso   1.000  C
  C169     1.0000 0.07624  0.71890  0.91530  Biso   1.000  C
  C170     1.0000 0.92376  0.71890  0.58470  Biso   1.000  C
  C171     1.0000 0.57624  0.21890  0.91530  Biso   1.000  C
  C172     1.0000 0.42376  0.21890  0.58470  Biso   1.000  C
  C173     1.0000 0.92376  0.28110  0.08470  Biso   1.000  C
  C174     1.0000 0.07624  0.28110  0.41530  Biso   1.000  C
  C175     1.0000 0.42376  0.78110  0.08470  Biso   1.000  C
  C176     1.0000 0.57624  0.78110  0.41530  Biso   1.000  C
  C177     1.0000 0.07573  0.80310  0.65170  Biso   1.000  C
  C178     1.0000 0.92427  0.80310  0.84830  Biso   1.000  C
  C179     1.0000 0.57573  0.30310  0.65170  Biso   1.000  C
  C180     1.0000 0.42427  0.30310  0.84830  Biso   1.000  C
  C181     1.0000 0.92427  0.19690  0.34830  Biso   1.000  C
  C182     1.0000 0.07573  0.19690  0.15170  Biso   1.000  C
  C183     1.0000 0.42427  0.69690  0.34830  Biso   1.000  C
  C184     1.0000 0.57573  0.69690  0.15170  Biso   1.000  C
  H161     1.0000 0.08660  0.69930  0.67170  Biso   1.000  H
  H162     1.0000 0.91340  0.69930  0.82830  Biso   1.000  H
  H163     1.0000 0.58660  0.19930  0.67170  Biso   1.000  H
  H164     1.0000 0.41340  0.19930  0.82830  Biso   1.000  H
  H165     1.0000 0.91340  0.30070  0.32830  Biso   1.000  H
  H166     1.0000 0.08660  0.30070  0.17170  Biso   1.000  H
  H167     1.0000 0.41340  0.80070  0.32830  Biso   1.000  H
  H168     1.0000 0.58660  0.80070  0.17170  Biso   1.000  H
  H169     1.0000 0.05230  0.77350  0.61970  Biso   1.000  H
  H170     1.0000 0.94770  0.77350  0.88030  Biso   1.000  H
  H171     1.0000 0.55230  0.27350  0.61970  Biso   1.000  H
  H172     1.0000 0.44770  0.27350  0.88030  Biso   1.000  H
  H173     1.0000 0.94770  0.22650  0.38030  Biso   1.000  H
  H174     1.0000 0.05230  0.22650  0.11970  Biso   1.000  H
  H175     1.0000 0.44770  0.72650  0.38030  Biso   1.000  H
  H176     1.0000 0.55230  0.72650  0.11970  Biso   1.000  H
  C185     1.0000 0.08392  0.31350  0.94238  Biso   1.000  C
  C186     1.0000 0.91608  0.31350  0.55762  Biso   1.000  C
  C187     1.0000 0.58392  0.81350  0.94238  Biso   1.000  C
  C188     1.0000 0.41608  0.81350  0.55762  Biso   1.000  C
  C189     1.0000 0.91608  0.68650  0.05762  Biso   1.000  C
  C190     1.0000 0.08392  0.68650  0.44238  Biso   1.000  C
  C191     1.0000 0.41608  0.18650  0.05762  Biso   1.000  C
  C192     1.0000 0.58392  0.18650  0.44238  Biso   1.000  C
  H177     1.0000 0.09720  0.21500  0.93500  Biso   1.000  H
  H178     1.0000 0.90280  0.21500  0.56500  Biso   1.000  H
  H179     1.0000 0.59720  0.71500  0.93500  Biso   1.000  H
  H180     1.0000 0.40280  0.71500  0.56500  Biso   1.000  H
  H181     1.0000 0.90280  0.78500  0.06500  Biso   1.000  H
  H182     1.0000 0.09720  0.78500  0.43500  Biso   1.000  H
  H183     1.0000 0.40280  0.28500  0.06500  Biso   1.000  H
  H184     1.0000 0.59720  0.28500  0.43500  Biso   1.000  H
  H185     1.0000 0.06150  0.27360  0.95060  Biso   1.000  H
  H186     1.0000 0.93850  0.27360  0.54940  Biso   1.000  H
  H187     1.0000 0.56150  0.77360  0.95060  Biso   1.000  H
  H188     1.0000 0.43850  0.77360  0.54940  Biso   1.000  H
  H189     1.0000 0.93850  0.72640  0.04940  Biso   1.000  H
  H190     1.0000 0.06150  0.72640  0.45060  Biso   1.000  H
  H191     1.0000 0.43850  0.22640  0.04940  Biso   1.000  H
  H192     1.0000 0.56150  0.22640  0.45060  Biso   1.000  H
  C193     1.0000 0.10437  0.87740  0.63056  Biso   1.000  C
  C194     1.0000 0.89563  0.87740  0.86944  Biso   1.000  C
  C195     1.0000 0.60437  0.37740  0.63056  Biso   1.000  C
  C196     1.0000 0.39563  0.37740  0.86944  Biso   1.000  C
  C197     1.0000 0.89563  0.12260  0.36944  Biso   1.000  C
  C198     1.0000 0.10437  0.12260  0.13056  Biso   1.000  C
  C199     1.0000 0.39563  0.62260  0.36944  Biso   1.000  C
  C200     1.0000 0.60437  0.62260  0.13056  Biso   1.000  C
  C201     1.0000 0.11107  0.40230  0.99260  Biso   1.000  C
  C202     1.0000 0.88893  0.40230  0.50740  Biso   1.000  C
  C203     1.0000 0.61107  0.90230  0.99260  Biso   1.000  C
  C204     1.0000 0.38893  0.90230  0.50740  Biso   1.000  C
  C205     1.0000 0.88893  0.59770  0.00740  Biso   1.000  C
  C206     1.0000 0.11107  0.59770  0.49260  Biso   1.000  C
  C207     1.0000 0.38893  0.09770  0.00740  Biso   1.000  C
  C208     1.0000 0.61107  0.09770  0.49260  Biso   1.000  C
  C209     1.0000 0.09279  0.95010  0.57824  Biso   1.000  C
  C210     1.0000 0.90721  0.95010  0.92176  Biso   1.000  C
  C211     1.0000 0.59279  0.45010  0.57824  Biso   1.000  C
  C212     1.0000 0.40721  0.45010  0.92176  Biso   1.000  C
  C213     1.0000 0.90721  0.04990  0.42176  Biso   1.000  C
  C214     1.0000 0.09279  0.04990  0.07824  Biso   1.000  C
  C215     1.0000 0.40721  0.54990  0.42176  Biso   1.000  C
  C216     1.0000 0.59279  0.54990  0.07824  Biso   1.000  C
  H193     1.0000 0.06610  0.95770  0.55640  Biso   1.000  H
  H194     1.0000 0.93390  0.95770  0.94360  Biso   1.000  H
  H195     1.0000 0.56610  0.45770  0.55640  Biso   1.000  H
  H196     1.0000 0.43390  0.45770  0.94360  Biso   1.000  H
  H197     1.0000 0.93390  0.04230  0.44360  Biso   1.000  H
  H198     1.0000 0.06610  0.04230  0.05640  Biso   1.000  H
  H199     1.0000 0.43390  0.54230  0.44360  Biso   1.000  H
  H200     1.0000 0.56610  0.54230  0.05640  Biso   1.000  H
  C217     1.0000 0.15025  0.41420  0.00205  Biso   1.000  C
  C218     1.0000 0.84975  0.41420  0.49795  Biso   1.000  C
  C219     1.0000 0.65025  0.91420  0.00205  Biso   1.000  C
  C220     1.0000 0.34975  0.91420  0.49795  Biso   1.000  C
  C221     1.0000 0.84975  0.58580  0.99795  Biso   1.000  C
  C222     1.0000 0.15025  0.58580  0.50205  Biso   1.000  C
  C223     1.0000 0.34975  0.08580  0.99795  Biso   1.000  C
  C224     1.0000 0.65025  0.08580  0.50205  Biso   1.000  C
  H201     1.0000 0.16000  0.36590  0.97640  Biso   1.000  H
  H202     1.0000 0.84000  0.36590  0.52360  Biso   1.000  H
  H203     1.0000 0.66000  0.86590  0.97640  Biso   1.000  H
  H204     1.0000 0.34000  0.86590  0.52360  Biso   1.000  H
  H205     1.0000 0.84000  0.63410  0.02360  Biso   1.000  H
  H206     1.0000 0.16000  0.63410  0.47640  Biso   1.000  H
  H207     1.0000 0.34000  0.13410  0.02360  Biso   1.000  H
  H208     1.0000 0.66000  0.13410  0.47640  Biso   1.000  H
  C225     1.0000 0.11957  0.01160  0.55745  Biso   1.000  C
  C226     1.0000 0.88043  0.01160  0.94255  Biso   1.000  C
  C227     1.0000 0.61957  0.51160  0.55745  Biso   1.000  C
  C228     1.0000 0.38043  0.51160  0.94255  Biso   1.000  C
  C229     1.0000 0.88043  0.98840  0.44255  Biso   1.000  C
  C230     1.0000 0.11957  0.98840  0.05745  Biso   1.000  C
  C231     1.0000 0.38043  0.48840  0.44255  Biso   1.000  C
  C232     1.0000 0.61957  0.48840  0.05745  Biso   1.000  C
  H209     1.0000 0.11170  0.06240  0.52200  Biso   1.000  H
  H210     1.0000 0.88830  0.06240  0.97800  Biso   1.000  H
  H211     1.0000 0.61170  0.56240  0.52200  Biso   1.000  H
  H212     1.0000 0.38830  0.56240  0.97800  Biso   1.000  H
  H213     1.0000 0.88830  0.93760  0.47800  Biso   1.000  H
  H214     1.0000 0.11170  0.93760  0.02200  Biso   1.000  H
  H215     1.0000 0.38830  0.43760  0.47800  Biso   1.000  H
  H216     1.0000 0.61170  0.43760  0.02200  Biso   1.000  H
  C233     1.0000 0.17515  0.49490  0.04811  Biso   1.000  C
  C234     1.0000 0.82485  0.49490  0.45189  Biso   1.000  C
  C235     1.0000 0.67515  0.99490  0.04811  Biso   1.000  C
  C236     1.0000 0.32485  0.99490  0.45189  Biso   1.000  C
  C237     1.0000 0.82485  0.50510  0.95189  Biso   1.000  C
  C238     1.0000 0.17515  0.50510  0.54811  Biso   1.000  C
  C239     1.0000 0.32485  0.00510  0.95189  Biso   1.000  C
  C240     1.0000 0.67515  0.00510  0.54811  Biso   1.000  C
  H217     1.0000 0.20180  0.50400  0.05440  Biso   1.000  H
  H218     1.0000 0.79820  0.50400  0.44560  Biso   1.000  H
  H219     1.0000 0.70180  0.00400  0.05440  Biso   1.000  H
  H220     1.0000 0.29820  0.00400  0.44560  Biso   1.000  H
  H221     1.0000 0.79820  0.49600  0.94560  Biso   1.000  H
  H222     1.0000 0.20180  0.49600  0.55440  Biso   1.000  H
  H223     1.0000 0.29820  0.99600  0.94560  Biso   1.000  H
  H224     1.0000 0.70180  0.99600  0.55440  Biso   1.000  H
  F1       1.0000 0.18457  0.05150  0.56938  Biso   1.000  F
  F2       1.0000 0.81543  0.05150  0.93062  Biso   1.000  F
  F3       1.0000 0.68457  0.55150  0.56938  Biso   1.000  F
  F4       1.0000 0.31543  0.55150  0.93062  Biso   1.000  F
  F5       1.0000 0.81543  0.94850  0.43062  Biso   1.000  F
  F6       1.0000 0.18457  0.94850  0.06938  Biso   1.000  F
  F7       1.0000 0.31543  0.44850  0.43062  Biso   1.000  F
  F8       1.0000 0.68457  0.44850  0.06938  Biso   1.000  F
  F9       1.0000 0.18468  0.63870  0.13108  Biso   1.000  F
  F10      1.0000 0.81532  0.63870  0.36892  Biso   1.000  F
  F11      1.0000 0.68468  0.13870  0.13108  Biso   1.000  F
  F12      1.0000 0.31532  0.13870  0.36892  Biso   1.000  F
  F13      1.0000 0.81532  0.36130  0.86892  Biso   1.000  F
  F14      1.0000 0.18468  0.36130  0.63108  Biso   1.000  F
  F15      1.0000 0.31532  0.86130  0.86892  Biso   1.000  F
  F16      1.0000 0.68468  0.86130  0.63108  Biso   1.000  F
  C241     1.0000 0.15791  0.99660  0.58992  Biso   1.000  C
  C242     1.0000 0.84209  0.99660  0.91008  Biso   1.000  C
  C243     1.0000 0.65791  0.49660  0.58992  Biso   1.000  C
  C244     1.0000 0.34209  0.49660  0.91008  Biso   1.000  C
  C245     1.0000 0.84209  0.00340  0.41008  Biso   1.000  C
  C246     1.0000 0.15791  0.00340  0.08992  Biso   1.000  C
  C247     1.0000 0.34209  0.50340  0.41008  Biso   1.000  C
  C248     1.0000 0.65791  0.50340  0.08992  Biso   1.000  C
  C249     1.0000 0.16001  0.56230  0.08484  Biso   1.000  C
  C250     1.0000 0.83999  0.56230  0.41516  Biso   1.000  C
  C251     1.0000 0.66001  0.06230  0.08484  Biso   1.000  C
  C252     1.0000 0.33999  0.06230  0.41516  Biso   1.000  C
  C253     1.0000 0.83999  0.43770  0.91516  Biso   1.000  C
  C254     1.0000 0.16001  0.43770  0.58484  Biso   1.000  C
  C255     1.0000 0.33999  0.93770  0.91516  Biso   1.000  C
  C256     1.0000 0.66001  0.93770  0.58484  Biso   1.000  C
  C257     1.0000 0.17079  0.92800  0.64187  Biso   1.000  C
  C258     1.0000 0.82921  0.92800  0.85813  Biso   1.000  C
  C259     1.0000 0.67079  0.42800  0.64187  Biso   1.000  C
  C260     1.0000 0.32921  0.42800  0.85813  Biso   1.000  C
  C261     1.0000 0.82921  0.07200  0.35813  Biso   1.000  C
  C262     1.0000 0.17079  0.07200  0.14187  Biso   1.000  C
  C263     1.0000 0.32921  0.57200  0.35813  Biso   1.000  C
  C264     1.0000 0.67079  0.57200  0.14187  Biso   1.000  C
  H225     1.0000 0.19750  0.92110  0.66330  Biso   1.000  H
  H226     1.0000 0.80250  0.92110  0.83670  Biso   1.000  H
  H227     1.0000 0.69750  0.42110  0.66330  Biso   1.000  H
  H228     1.0000 0.30250  0.42110  0.83670  Biso   1.000  H
  H229     1.0000 0.80250  0.07890  0.33670  Biso   1.000  H
  H230     1.0000 0.19750  0.07890  0.16330  Biso   1.000  H
  H231     1.0000 0.30250  0.57890  0.33670  Biso   1.000  H
  H232     1.0000 0.69750  0.57890  0.16330  Biso   1.000  H
  C265     1.0000 0.12196  0.55310  0.07739  Biso   1.000  C
  C266     1.0000 0.87804  0.55310  0.42261  Biso   1.000  C
  C267     1.0000 0.62196  0.05310  0.07739  Biso   1.000  C
  C268     1.0000 0.37804  0.05310  0.42261  Biso   1.000  C
  C269     1.0000 0.87804  0.44690  0.92261  Biso   1.000  C
  C270     1.0000 0.12196  0.44690  0.57739  Biso   1.000  C
  C271     1.0000 0.37804  0.94690  0.92261  Biso   1.000  C
  C272     1.0000 0.62196  0.94690  0.57739  Biso   1.000  C
  H233     1.0000 0.11260  0.60080  0.10360  Biso   1.000  H
  H234     1.0000 0.88740  0.60080  0.39640  Biso   1.000  H
  H235     1.0000 0.61260  0.10080  0.10360  Biso   1.000  H
  H236     1.0000 0.38740  0.10080  0.39640  Biso   1.000  H
  H237     1.0000 0.88740  0.39920  0.89640  Biso   1.000  H
  H238     1.0000 0.11260  0.39920  0.60360  Biso   1.000  H
  H239     1.0000 0.38740  0.89920  0.89640  Biso   1.000  H
  H240     1.0000 0.61260  0.89920  0.60360  Biso   1.000  H
  C273     1.0000 0.14364  0.86900  0.66210  Biso   1.000  C
  C274     1.0000 0.85636  0.86900  0.83790  Biso   1.000  C
  C275     1.0000 0.64364  0.36900  0.66210  Biso   1.000  C
  C276     1.0000 0.35636  0.36900  0.83790  Biso   1.000  C
  C277     1.0000 0.85636  0.13100  0.33790  Biso   1.000  C
  C278     1.0000 0.14364  0.13100  0.16210  Biso   1.000  C
  C279     1.0000 0.35636  0.63100  0.33790  Biso   1.000  C
  C280     1.0000 0.64364  0.63100  0.16210  Biso   1.000  C
  H241     1.0000 0.15190  0.82200  0.69820  Biso   1.000  H
  H242     1.0000 0.84810  0.82200  0.80180  Biso   1.000  H
  H243     1.0000 0.65190  0.32200  0.69820  Biso   1.000  H
  H244     1.0000 0.34810  0.32200  0.80180  Biso   1.000  H
  H245     1.0000 0.84810  0.17800  0.30180  Biso   1.000  H
  H246     1.0000 0.15190  0.17800  0.19820  Biso   1.000  H
  H247     1.0000 0.34810  0.67800  0.30180  Biso   1.000  H
  H248     1.0000 0.65190  0.67800  0.19820  Biso   1.000  H
  C281     1.0000 0.09718  0.47240  0.03076  Biso   1.000  C
  C282     1.0000 0.90282  0.47240  0.46924  Biso   1.000  C
  C283     1.0000 0.59718  0.97240  0.03076  Biso   1.000  C
  C284     1.0000 0.40282  0.97240  0.46924  Biso   1.000  C
  C285     1.0000 0.90282  0.52760  0.96924  Biso   1.000  C
  C286     1.0000 0.09718  0.52760  0.53076  Biso   1.000  C
  C287     1.0000 0.40282  0.02760  0.96924  Biso   1.000  C
  C288     1.0000 0.59718  0.02760  0.53076  Biso   1.000  C
  H249     1.0000 0.07050  0.46490  0.02480  Biso   1.000  H
  H250     1.0000 0.92950  0.46490  0.47520  Biso   1.000  H
  H251     1.0000 0.57050  0.96490  0.02480  Biso   1.000  H
  H252     1.0000 0.42950  0.96490  0.47520  Biso   1.000  H
  H253     1.0000 0.92950  0.53510  0.97520  Biso   1.000  H
  H254     1.0000 0.07050  0.53510  0.52480  Biso   1.000  H
  H255     1.0000 0.42950  0.03510  0.97520  Biso   1.000  H
  H256     1.0000 0.57050  0.03510  0.52480  Biso   1.000  H
  O65      1.0000 0.00526  0.87730  0.96847  Biso   1.000  O
  O66      1.0000 0.99474  0.87730  0.53153  Biso   1.000  O
  O67      1.0000 0.50526  0.37730  0.96847  Biso   1.000  O
  O68      1.0000 0.49474  0.37730  0.53153  Biso   1.000  O
  O69      1.0000 0.99474  0.12270  0.03153  Biso   1.000  O
  O70      1.0000 0.00526  0.12270  0.46847  Biso   1.000  O
  O71      1.0000 0.49474  0.62270  0.03153  Biso   1.000  O
  O72      1.0000 0.50526  0.62270  0.46847  Biso   1.000  O
  O73      1.0000 0.00327  0.62920  0.03560  Biso   1.000  O
  O74      1.0000 0.99673  0.62920  0.46440  Biso   1.000  O
  O75      1.0000 0.50327  0.12920  0.03560  Biso   1.000  O
  O76      1.0000 0.49673  0.12920  0.46440  Biso   1.000  O
  O77      1.0000 0.99673  0.37080  0.96440  Biso   1.000  O
  O78      1.0000 0.00327  0.37080  0.53560  Biso   1.000  O
  O79      1.0000 0.49673  0.87080  0.96440  Biso   1.000  O
  O80      1.0000 0.50327  0.87080  0.53560  Biso   1.000  O
