data_image0
_cell_length_a       13.6289
_cell_length_b       25.4524
_cell_length_c       34.1595
_cell_angle_alpha    90
_cell_angle_beta     92.453
_cell_angle_gamma    90

_symmetry_space_group_name_H-M    "P 1"
_symmetry_int_tables_number       1

loop_
  _symmetry_equiv_pos_as_xyz
  'x, y, z'

loop_
  _atom_site_label
  _atom_site_occupancy
  _atom_site_fract_x
  _atom_site_fract_y
  _atom_site_fract_z
  _atom_site_thermal_displace_type
  _atom_site_B_iso_or_equiv
  _atom_site_type_symbol
  Cu1      1.0000 0.71954  0.77487  0.45510  Biso   1.000  Cu
  Cu2      1.0000 0.28046  0.77487  0.04490  Biso   1.000  Cu
  Cu3      1.0000 0.21954  0.27487  0.45510  Biso   1.000  Cu
  Cu4      1.0000 0.78046  0.27487  0.04490  Biso   1.000  Cu
  Cu5      1.0000 0.28046  0.22513  0.54490  Biso   1.000  Cu
  Cu6      1.0000 0.71954  0.22513  0.95510  Biso   1.000  Cu
  Cu7      1.0000 0.78046  0.72513  0.54490  Biso   1.000  Cu
  Cu8      1.0000 0.21954  0.72513  0.95510  Biso   1.000  Cu
  O1       1.0000 0.83968  0.76488  0.48870  Biso   1.000  O
  O2       1.0000 0.16032  0.76488  0.01130  Biso   1.000  O
  O3       1.0000 0.33968  0.26488  0.48870  Biso   1.000  O
  O4       1.0000 0.66032  0.26488  0.01130  Biso   1.000  O
  O5       1.0000 0.16032  0.23512  0.51130  Biso   1.000  O
  O6       1.0000 0.83968  0.23512  0.98870  Biso   1.000  O
  O7       1.0000 0.66032  0.73512  0.51130  Biso   1.000  O
  O8       1.0000 0.33968  0.73512  0.98870  Biso   1.000  O
  N1       1.0000 0.70125  0.84758  0.47708  Biso   1.000  N
  N2       1.0000 0.29875  0.84758  0.02292  Biso   1.000  N
  N3       1.0000 0.20125  0.34758  0.47708  Biso   1.000  N
  N4       1.0000 0.79875  0.34758  0.02292  Biso   1.000  N
  N5       1.0000 0.29875  0.15242  0.52292  Biso   1.000  N
  N6       1.0000 0.70125  0.15242  0.97708  Biso   1.000  N
  N7       1.0000 0.79875  0.65242  0.52292  Biso   1.000  N
  N8       1.0000 0.20125  0.65242  0.97708  Biso   1.000  N
  C1       1.0000 0.75673  0.88898  0.46819  Biso   1.000  C
  C2       1.0000 0.24327  0.88898  0.03181  Biso   1.000  C
  C3       1.0000 0.25673  0.38898  0.46819  Biso   1.000  C
  C4       1.0000 0.74327  0.38898  0.03181  Biso   1.000  C
  C5       1.0000 0.24327  0.11102  0.53181  Biso   1.000  C
  C6       1.0000 0.75673  0.11102  0.96819  Biso   1.000  C
  C7       1.0000 0.74327  0.61102  0.53181  Biso   1.000  C
  C8       1.0000 0.25673  0.61102  0.96819  Biso   1.000  C
  H1       1.0000 0.80550  0.88468  0.44939  Biso   1.000  H
  H2       1.0000 0.19450  0.88468  0.05061  Biso   1.000  H
  H3       1.0000 0.30550  0.38468  0.44939  Biso   1.000  H
  H4       1.0000 0.69450  0.38468  0.05061  Biso   1.000  H
  H5       1.0000 0.19450  0.11532  0.55061  Biso   1.000  H
  H6       1.0000 0.80550  0.11532  0.94939  Biso   1.000  H
  H7       1.0000 0.69450  0.61532  0.55061  Biso   1.000  H
  H8       1.0000 0.30550  0.61532  0.94939  Biso   1.000  H
  Cu9      1.0000 0.96689  0.77813  0.29151  Biso   1.000  Cu
  Cu10     1.0000 0.03311  0.77813  0.20849  Biso   1.000  Cu
  Cu11     1.0000 0.46689  0.27813  0.29151  Biso   1.000  Cu
  Cu12     1.0000 0.53311  0.27813  0.20849  Biso   1.000  Cu
  Cu13     1.0000 0.03311  0.22187  0.70849  Biso   1.000  Cu
  Cu14     1.0000 0.96689  0.22187  0.79151  Biso   1.000  Cu
  Cu15     1.0000 0.53311  0.72187  0.70849  Biso   1.000  Cu
  Cu16     1.0000 0.46689  0.72187  0.79151  Biso   1.000  Cu
  O9       1.0000 0.91500  0.80224  0.44013  Biso   1.000  O
  O10      1.0000 0.08500  0.80224  0.05987  Biso   1.000  O
  O11      1.0000 0.41500  0.30224  0.44013  Biso   1.000  O
  O12      1.0000 0.58500  0.30224  0.05987  Biso   1.000  O
  O13      1.0000 0.08500  0.19776  0.55987  Biso   1.000  O
  O14      1.0000 0.91500  0.19776  0.94013  Biso   1.000  O
  O15      1.0000 0.58500  0.69776  0.55987  Biso   1.000  O
  O16      1.0000 0.41500  0.69776  0.94013  Biso   1.000  O
  N9       1.0000 0.73632  0.70597  0.42654  Biso   1.000  N
  N10      1.0000 0.26368  0.70597  0.07346  Biso   1.000  N
  N11      1.0000 0.23632  0.20597  0.42654  Biso   1.000  N
  N12      1.0000 0.76368  0.20597  0.07346  Biso   1.000  N
  N13      1.0000 0.26368  0.29403  0.57346  Biso   1.000  N
  N14      1.0000 0.73632  0.29403  0.92654  Biso   1.000  N
  N15      1.0000 0.76368  0.79403  0.57346  Biso   1.000  N
  N16      1.0000 0.23632  0.79403  0.92654  Biso   1.000  N
  C9       1.0000 0.74577  0.93758  0.48527  Biso   1.000  C
  C10      1.0000 0.25423  0.93758  0.01473  Biso   1.000  C
  C11      1.0000 0.24577  0.43758  0.48527  Biso   1.000  C
  C12      1.0000 0.75423  0.43758  0.01473  Biso   1.000  C
  C13      1.0000 0.25423  0.06242  0.51473  Biso   1.000  C
  C14      1.0000 0.74577  0.06242  0.98527  Biso   1.000  C
  C15      1.0000 0.75423  0.56242  0.51473  Biso   1.000  C
  C16      1.0000 0.24577  0.56242  0.98527  Biso   1.000  C
  H9       1.0000 0.78655  0.96603  0.47822  Biso   1.000  H
  H10      1.0000 0.21345  0.96603  0.02178  Biso   1.000  H
  H11      1.0000 0.28655  0.46603  0.47822  Biso   1.000  H
  H12      1.0000 0.71345  0.46603  0.02178  Biso   1.000  H
  H13      1.0000 0.21345  0.03397  0.52178  Biso   1.000  H
  H14      1.0000 0.78655  0.03397  0.97822  Biso   1.000  H
  H15      1.0000 0.71345  0.53397  0.52178  Biso   1.000  H
  H16      1.0000 0.28655  0.53397  0.97822  Biso   1.000  H
  O17      1.0000 0.45702  0.82448  0.56877  Biso   1.000  O
  O18      1.0000 0.54298  0.82448  0.93123  Biso   1.000  O
  O19      1.0000 0.95702  0.32448  0.56877  Biso   1.000  O
  O20      1.0000 0.04298  0.32448  0.93123  Biso   1.000  O
  O21      1.0000 0.54298  0.17552  0.43123  Biso   1.000  O
  O22      1.0000 0.45702  0.17552  0.06877  Biso   1.000  O
  O23      1.0000 0.04298  0.67552  0.43123  Biso   1.000  O
  O24      1.0000 0.95702  0.67552  0.06877  Biso   1.000  O
  H17      1.0000 0.45896  0.80918  0.59057  Biso   1.000  H
  H18      1.0000 0.54104  0.80918  0.90943  Biso   1.000  H
  H19      1.0000 0.95896  0.30918  0.59057  Biso   1.000  H
  H20      1.0000 0.04104  0.30918  0.90943  Biso   1.000  H
  H21      1.0000 0.54104  0.19082  0.40943  Biso   1.000  H
  H22      1.0000 0.45896  0.19082  0.09057  Biso   1.000  H
  H23      1.0000 0.04104  0.69082  0.40943  Biso   1.000  H
  H24      1.0000 0.95896  0.69082  0.09057  Biso   1.000  H
  N17      1.0000 0.94189  0.84546  0.32238  Biso   1.000  N
  N18      1.0000 0.05811  0.84546  0.17762  Biso   1.000  N
  N19      1.0000 0.44189  0.34546  0.32238  Biso   1.000  N
  N20      1.0000 0.55811  0.34546  0.17762  Biso   1.000  N
  N21      1.0000 0.05811  0.15454  0.67762  Biso   1.000  N
  N22      1.0000 0.94189  0.15454  0.82238  Biso   1.000  N
  N23      1.0000 0.55811  0.65454  0.67762  Biso   1.000  N
  N24      1.0000 0.44189  0.65454  0.82238  Biso   1.000  N
  C17      1.0000 0.67457  0.94488  0.51296  Biso   1.000  C
  C18      1.0000 0.32543  0.94488  0.98704  Biso   1.000  C
  C19      1.0000 0.17457  0.44488  0.51296  Biso   1.000  C
  C20      1.0000 0.82543  0.44488  0.98704  Biso   1.000  C
  C21      1.0000 0.32543  0.05512  0.48704  Biso   1.000  C
  C22      1.0000 0.67457  0.05512  0.01296  Biso   1.000  C
  C23      1.0000 0.82543  0.55512  0.48704  Biso   1.000  C
  C24      1.0000 0.17457  0.55512  0.01296  Biso   1.000  C
  O25      1.0000 0.59139  0.78169  0.42885  Biso   1.000  O
  O26      1.0000 0.40861  0.78169  0.07115  Biso   1.000  O
  O27      1.0000 0.09139  0.28169  0.42885  Biso   1.000  O
  O28      1.0000 0.90861  0.28169  0.07115  Biso   1.000  O
  O29      1.0000 0.40861  0.21831  0.57115  Biso   1.000  O
  O30      1.0000 0.59139  0.21831  0.92885  Biso   1.000  O
  O31      1.0000 0.90861  0.71831  0.57115  Biso   1.000  O
  O32      1.0000 0.09139  0.71831  0.92885  Biso   1.000  O
  N25      1.0000 0.83675  0.74450  0.29930  Biso   1.000  N
  N26      1.0000 0.16325  0.74450  0.20070  Biso   1.000  N
  N27      1.0000 0.33675  0.24450  0.29930  Biso   1.000  N
  N28      1.0000 0.66325  0.24450  0.20070  Biso   1.000  N
  N29      1.0000 0.16325  0.25550  0.70070  Biso   1.000  N
  N30      1.0000 0.83675  0.25550  0.79930  Biso   1.000  N
  N31      1.0000 0.66325  0.75550  0.70070  Biso   1.000  N
  N32      1.0000 0.33675  0.75550  0.79930  Biso   1.000  N
  C25      1.0000 0.61481  0.90252  0.52058  Biso   1.000  C
  C26      1.0000 0.38519  0.90252  0.97942  Biso   1.000  C
  C27      1.0000 0.11481  0.40252  0.52058  Biso   1.000  C
  C28      1.0000 0.88519  0.40252  0.97942  Biso   1.000  C
  C29      1.0000 0.38519  0.09748  0.47942  Biso   1.000  C
  C30      1.0000 0.61481  0.09748  0.02058  Biso   1.000  C
  C31      1.0000 0.88519  0.59748  0.47942  Biso   1.000  C
  C32      1.0000 0.11481  0.59748  0.02058  Biso   1.000  C
  H25      1.0000 0.56343  0.90613  0.53832  Biso   1.000  H
  H26      1.0000 0.43657  0.90613  0.96168  Biso   1.000  H
  H27      1.0000 0.06343  0.40613  0.53832  Biso   1.000  H
  H28      1.0000 0.93657  0.40613  0.96168  Biso   1.000  H
  H29      1.0000 0.43657  0.09387  0.46168  Biso   1.000  H
  H30      1.0000 0.56343  0.09387  0.03832  Biso   1.000  H
  H31      1.0000 0.93657  0.59387  0.46168  Biso   1.000  H
  H32      1.0000 0.06343  0.59387  0.03832  Biso   1.000  H
  O33      1.0000 0.65034  0.83798  0.38572  Biso   1.000  O
  O34      1.0000 0.34966  0.83798  0.11428  Biso   1.000  O
  O35      1.0000 0.15034  0.33798  0.38572  Biso   1.000  O
  O36      1.0000 0.84966  0.33798  0.11428  Biso   1.000  O
  O37      1.0000 0.34966  0.16202  0.61428  Biso   1.000  O
  O38      1.0000 0.65034  0.16202  0.88572  Biso   1.000  O
  O39      1.0000 0.84966  0.66202  0.61428  Biso   1.000  O
  O40      1.0000 0.15034  0.66202  0.88572  Biso   1.000  O
  C33      1.0000 0.62986  0.85519  0.50244  Biso   1.000  C
  C34      1.0000 0.37014  0.85519  0.99756  Biso   1.000  C
  C35      1.0000 0.12986  0.35519  0.50244  Biso   1.000  C
  C36      1.0000 0.87014  0.35519  0.99756  Biso   1.000  C
  C37      1.0000 0.37014  0.14481  0.49756  Biso   1.000  C
  C38      1.0000 0.62986  0.14481  0.00244  Biso   1.000  C
  C39      1.0000 0.87014  0.64481  0.49756  Biso   1.000  C
  C40      1.0000 0.12986  0.64481  0.00244  Biso   1.000  C
  H33      1.0000 0.58796  0.82659  0.50808  Biso   1.000  H
  H34      1.0000 0.41204  0.82659  0.99192  Biso   1.000  H
  H35      1.0000 0.08796  0.32659  0.50808  Biso   1.000  H
  H36      1.0000 0.91204  0.32659  0.99192  Biso   1.000  H
  H37      1.0000 0.41204  0.17341  0.49192  Biso   1.000  H
  H38      1.0000 0.58796  0.17341  0.00808  Biso   1.000  H
  H39      1.0000 0.91204  0.67341  0.49192  Biso   1.000  H
  H40      1.0000 0.08796  0.67341  0.00808  Biso   1.000  H
  O41      1.0000 0.08375  0.80610  0.26856  Biso   1.000  O
  O42      1.0000 0.91625  0.80610  0.23144  Biso   1.000  O
  O43      1.0000 0.58375  0.30610  0.26856  Biso   1.000  O
  O44      1.0000 0.41625  0.30610  0.23144  Biso   1.000  O
  O45      1.0000 0.91625  0.19390  0.73144  Biso   1.000  O
  O46      1.0000 0.08375  0.19390  0.76856  Biso   1.000  O
  O47      1.0000 0.41625  0.69390  0.73144  Biso   1.000  O
  O48      1.0000 0.58375  0.69390  0.76856  Biso   1.000  O
  C41      1.0000 0.66634  0.99440  0.53544  Biso   1.000  C
  C42      1.0000 0.33366  0.99440  0.96456  Biso   1.000  C
  C43      1.0000 0.16634  0.49440  0.53544  Biso   1.000  C
  C44      1.0000 0.83366  0.49440  0.96456  Biso   1.000  C
  C45      1.0000 0.33366  0.00560  0.46456  Biso   1.000  C
  C46      1.0000 0.66634  0.00560  0.03544  Biso   1.000  C
  C47      1.0000 0.83366  0.50560  0.46456  Biso   1.000  C
  C48      1.0000 0.16634  0.50560  0.03544  Biso   1.000  C
  C49      1.0000 0.75140  0.01976  0.54940  Biso   1.000  C
  C50      1.0000 0.24860  0.01976  0.95060  Biso   1.000  C
  C51      1.0000 0.25140  0.51976  0.54940  Biso   1.000  C
  C52      1.0000 0.74860  0.51976  0.95060  Biso   1.000  C
  C53      1.0000 0.24860  0.98024  0.45060  Biso   1.000  C
  C54      1.0000 0.75140  0.98024  0.04940  Biso   1.000  C
  C55      1.0000 0.74860  0.48024  0.45060  Biso   1.000  C
  C56      1.0000 0.25140  0.48024  0.04940  Biso   1.000  C
  H41      1.0000 0.81379  0.00699  0.54246  Biso   1.000  H
  H42      1.0000 0.18621  0.00699  0.95754  Biso   1.000  H
  H43      1.0000 0.31379  0.50699  0.54246  Biso   1.000  H
  H44      1.0000 0.68621  0.50699  0.95754  Biso   1.000  H
  H45      1.0000 0.18621  0.99301  0.45754  Biso   1.000  H
  H46      1.0000 0.81379  0.99301  0.04246  Biso   1.000  H
  H47      1.0000 0.68621  0.49301  0.45754  Biso   1.000  H
  H48      1.0000 0.31379  0.49301  0.04246  Biso   1.000  H
  O49      1.0000 0.02946  0.70708  0.29553  Biso   1.000  O
  O50      1.0000 0.97054  0.70708  0.20447  Biso   1.000  O
  O51      1.0000 0.52946  0.20708  0.29553  Biso   1.000  O
  O52      1.0000 0.47054  0.20708  0.20447  Biso   1.000  O
  O53      1.0000 0.97054  0.29292  0.70447  Biso   1.000  O
  O54      1.0000 0.02946  0.29292  0.79553  Biso   1.000  O
  O55      1.0000 0.47054  0.79292  0.70447  Biso   1.000  O
  O56      1.0000 0.52946  0.79292  0.79553  Biso   1.000  O
  C57      1.0000 0.74550  0.06342  0.57331  Biso   1.000  C
  C58      1.0000 0.25450  0.06342  0.92669  Biso   1.000  C
  C59      1.0000 0.24550  0.56342  0.57331  Biso   1.000  C
  C60      1.0000 0.75450  0.56342  0.92669  Biso   1.000  C
  C61      1.0000 0.25450  0.93658  0.42669  Biso   1.000  C
  C62      1.0000 0.74550  0.93658  0.07331  Biso   1.000  C
  C63      1.0000 0.75450  0.43658  0.42669  Biso   1.000  C
  C64      1.0000 0.24550  0.43658  0.07331  Biso   1.000  C
  H49      1.0000 0.80383  0.07999  0.58328  Biso   1.000  H
  H50      1.0000 0.19617  0.07999  0.91672  Biso   1.000  H
  H51      1.0000 0.30383  0.57999  0.58328  Biso   1.000  H
  H52      1.0000 0.69617  0.57999  0.91672  Biso   1.000  H
  H53      1.0000 0.19617  0.92001  0.41672  Biso   1.000  H
  H54      1.0000 0.80383  0.92001  0.08328  Biso   1.000  H
  H55      1.0000 0.69617  0.42001  0.41672  Biso   1.000  H
  H56      1.0000 0.30383  0.42001  0.08328  Biso   1.000  H
  O57      1.0000 0.02081  0.71722  0.36015  Biso   1.000  O
  O58      1.0000 0.97919  0.71722  0.13985  Biso   1.000  O
  O59      1.0000 0.52081  0.21722  0.36015  Biso   1.000  O
  O60      1.0000 0.47919  0.21722  0.13985  Biso   1.000  O
  O61      1.0000 0.97919  0.28278  0.63985  Biso   1.000  O
  O62      1.0000 0.02081  0.28278  0.86015  Biso   1.000  O
  O63      1.0000 0.47919  0.78278  0.63985  Biso   1.000  O
  O64      1.0000 0.52081  0.78278  0.86015  Biso   1.000  O
  C65      1.0000 0.65540  0.08285  0.58266  Biso   1.000  C
  C66      1.0000 0.34460  0.08285  0.91734  Biso   1.000  C
  C67      1.0000 0.15540  0.58285  0.58266  Biso   1.000  C
  C68      1.0000 0.84460  0.58285  0.91734  Biso   1.000  C
  C69      1.0000 0.34460  0.91715  0.41734  Biso   1.000  C
  C70      1.0000 0.65540  0.91715  0.08266  Biso   1.000  C
  C71      1.0000 0.84460  0.41715  0.41734  Biso   1.000  C
  C72      1.0000 0.15540  0.41715  0.08266  Biso   1.000  C
  H57      1.0000 0.65147  0.11280  0.59912  Biso   1.000  H
  H58      1.0000 0.34853  0.11280  0.90088  Biso   1.000  H
  H59      1.0000 0.15147  0.61280  0.59912  Biso   1.000  H
  H60      1.0000 0.84853  0.61280  0.90088  Biso   1.000  H
  H61      1.0000 0.34853  0.88720  0.40088  Biso   1.000  H
  H62      1.0000 0.65147  0.88720  0.09912  Biso   1.000  H
  H63      1.0000 0.84853  0.38720  0.40088  Biso   1.000  H
  H64      1.0000 0.15147  0.38720  0.09912  Biso   1.000  H
  O65      1.0000 0.17252  0.38474  0.31846  Biso   1.000  O
  O66      1.0000 0.82748  0.38474  0.18154  Biso   1.000  O
  O67      1.0000 0.67252  0.88474  0.31846  Biso   1.000  O
  O68      1.0000 0.32748  0.88474  0.18154  Biso   1.000  O
  O69      1.0000 0.82748  0.61526  0.68154  Biso   1.000  O
  O70      1.0000 0.17252  0.61526  0.81846  Biso   1.000  O
  O71      1.0000 0.32748  0.11526  0.68154  Biso   1.000  O
  O72      1.0000 0.67252  0.11526  0.81846  Biso   1.000  O
  H65      1.0000 0.16400  0.37290  0.34030  Biso   1.000  H
  H66      1.0000 0.83600  0.37290  0.15970  Biso   1.000  H
  H67      1.0000 0.66400  0.87290  0.34030  Biso   1.000  H
  H68      1.0000 0.33600  0.87290  0.15970  Biso   1.000  H
  H69      1.0000 0.83600  0.62710  0.65970  Biso   1.000  H
  H70      1.0000 0.16400  0.62710  0.84030  Biso   1.000  H
  H71      1.0000 0.33600  0.12710  0.65970  Biso   1.000  H
  H72      1.0000 0.66400  0.12710  0.84030  Biso   1.000  H
  C73      1.0000 0.57130  0.05914  0.56830  Biso   1.000  C
  C74      1.0000 0.42870  0.05914  0.93170  Biso   1.000  C
  C75      1.0000 0.07130  0.55914  0.56830  Biso   1.000  C
  C76      1.0000 0.92870  0.55914  0.93170  Biso   1.000  C
  C77      1.0000 0.42870  0.94086  0.43170  Biso   1.000  C
  C78      1.0000 0.57130  0.94086  0.06830  Biso   1.000  C
  C79      1.0000 0.92870  0.44086  0.43170  Biso   1.000  C
  C80      1.0000 0.07130  0.44086  0.06830  Biso   1.000  C
  H73      1.0000 0.50909  0.07349  0.57394  Biso   1.000  H
  H74      1.0000 0.49091  0.07349  0.92606  Biso   1.000  H
  H75      1.0000 0.00909  0.57349  0.57394  Biso   1.000  H
  H76      1.0000 0.99091  0.57349  0.92606  Biso   1.000  H
  H77      1.0000 0.49091  0.92651  0.42606  Biso   1.000  H
  H78      1.0000 0.50909  0.92651  0.07394  Biso   1.000  H
  H79      1.0000 0.99091  0.42651  0.42606  Biso   1.000  H
  H80      1.0000 0.00909  0.42651  0.07394  Biso   1.000  H
  C81      1.0000 0.81220  0.69463  0.40417  Biso   1.000  C
  C82      1.0000 0.18780  0.69463  0.09583  Biso   1.000  C
  C83      1.0000 0.31220  0.19463  0.40417  Biso   1.000  C
  C84      1.0000 0.68780  0.19463  0.09583  Biso   1.000  C
  C85      1.0000 0.18780  0.30537  0.59583  Biso   1.000  C
  C86      1.0000 0.81220  0.30537  0.90417  Biso   1.000  C
  C87      1.0000 0.68780  0.80537  0.59583  Biso   1.000  C
  C88      1.0000 0.31220  0.80537  0.90417  Biso   1.000  C
  H81      1.0000 0.86358  0.71965  0.40252  Biso   1.000  H
  H82      1.0000 0.13642  0.71965  0.09748  Biso   1.000  H
  H83      1.0000 0.36358  0.21965  0.40252  Biso   1.000  H
  H84      1.0000 0.63642  0.21965  0.09748  Biso   1.000  H
  H85      1.0000 0.13642  0.28035  0.59748  Biso   1.000  H
  H86      1.0000 0.86358  0.28035  0.90252  Biso   1.000  H
  H87      1.0000 0.63642  0.78035  0.59748  Biso   1.000  H
  H88      1.0000 0.36358  0.78035  0.90252  Biso   1.000  H
  C89      1.0000 0.57650  0.01435  0.54559  Biso   1.000  C
  C90      1.0000 0.42350  0.01435  0.95441  Biso   1.000  C
  C91      1.0000 0.07650  0.51435  0.54559  Biso   1.000  C
  C92      1.0000 0.92350  0.51435  0.95441  Biso   1.000  C
  C93      1.0000 0.42350  0.98565  0.45441  Biso   1.000  C
  C94      1.0000 0.57650  0.98565  0.04559  Biso   1.000  C
  C95      1.0000 0.92350  0.48565  0.45441  Biso   1.000  C
  C96      1.0000 0.07650  0.48565  0.04559  Biso   1.000  C
  H89      1.0000 0.51775  0.99709  0.53687  Biso   1.000  H
  H90      1.0000 0.48225  0.99709  0.96313  Biso   1.000  H
  H91      1.0000 0.01775  0.49709  0.53687  Biso   1.000  H
  H92      1.0000 0.98225  0.49709  0.96313  Biso   1.000  H
  H93      1.0000 0.48225  0.00291  0.46313  Biso   1.000  H
  H94      1.0000 0.51775  0.00291  0.03687  Biso   1.000  H
  H95      1.0000 0.98225  0.50291  0.46313  Biso   1.000  H
  H96      1.0000 0.01775  0.50291  0.03687  Biso   1.000  H
  C97      1.0000 0.74632  0.60994  0.38528  Biso   1.000  C
  C98      1.0000 0.25368  0.60994  0.11472  Biso   1.000  C
  C99      1.0000 0.24632  0.10994  0.38528  Biso   1.000  C
  C100     1.0000 0.75368  0.10994  0.11472  Biso   1.000  C
  C101     1.0000 0.25368  0.39006  0.61472  Biso   1.000  C
  C102     1.0000 0.74632  0.39006  0.88528  Biso   1.000  C
  C103     1.0000 0.75368  0.89006  0.61472  Biso   1.000  C
  C104     1.0000 0.24632  0.89006  0.88528  Biso   1.000  C
  C105     1.0000 0.81890  0.64833  0.38348  Biso   1.000  C
  C106     1.0000 0.18110  0.64833  0.11652  Biso   1.000  C
  C107     1.0000 0.31890  0.14833  0.38348  Biso   1.000  C
  C108     1.0000 0.68110  0.14833  0.11652  Biso   1.000  C
  C109     1.0000 0.18110  0.35167  0.61652  Biso   1.000  C
  C110     1.0000 0.81890  0.35167  0.88348  Biso   1.000  C
  C111     1.0000 0.68110  0.85167  0.61652  Biso   1.000  C
  C112     1.0000 0.31890  0.85167  0.88348  Biso   1.000  C
  H97      1.0000 0.87377  0.64251  0.36779  Biso   1.000  H
  H98      1.0000 0.12623  0.64251  0.13221  Biso   1.000  H
  H99      1.0000 0.37377  0.14251  0.36779  Biso   1.000  H
  H100     1.0000 0.62623  0.14251  0.13221  Biso   1.000  H
  H101     1.0000 0.12623  0.35749  0.63221  Biso   1.000  H
  H102     1.0000 0.87377  0.35749  0.86779  Biso   1.000  H
  H103     1.0000 0.62623  0.85749  0.63221  Biso   1.000  H
  H104     1.0000 0.37377  0.85749  0.86779  Biso   1.000  H
  C113     1.0000 0.66577  0.66923  0.42851  Biso   1.000  C
  C114     1.0000 0.33423  0.66923  0.07149  Biso   1.000  C
  C115     1.0000 0.16577  0.16923  0.42851  Biso   1.000  C
  C116     1.0000 0.83423  0.16923  0.07149  Biso   1.000  C
  C117     1.0000 0.33423  0.33077  0.57149  Biso   1.000  C
  C118     1.0000 0.66577  0.33077  0.92851  Biso   1.000  C
  C119     1.0000 0.83423  0.83077  0.57149  Biso   1.000  C
  C120     1.0000 0.16577  0.83077  0.92851  Biso   1.000  C
  H105     1.0000 0.61125  0.67628  0.44412  Biso   1.000  H
  H106     1.0000 0.38875  0.67628  0.05588  Biso   1.000  H
  H107     1.0000 0.11125  0.17628  0.44412  Biso   1.000  H
  H108     1.0000 0.88875  0.17628  0.05588  Biso   1.000  H
  H109     1.0000 0.38875  0.32372  0.55588  Biso   1.000  H
  H110     1.0000 0.61125  0.32372  0.94412  Biso   1.000  H
  H111     1.0000 0.88875  0.82372  0.55588  Biso   1.000  H
  H112     1.0000 0.11125  0.82372  0.94412  Biso   1.000  H
  C121     1.0000 0.66855  0.62198  0.40909  Biso   1.000  C
  C122     1.0000 0.33145  0.62198  0.09091  Biso   1.000  C
  C123     1.0000 0.16855  0.12198  0.40909  Biso   1.000  C
  C124     1.0000 0.83145  0.12198  0.09091  Biso   1.000  C
  C125     1.0000 0.33145  0.37802  0.59091  Biso   1.000  C
  C126     1.0000 0.66855  0.37802  0.90909  Biso   1.000  C
  C127     1.0000 0.83145  0.87802  0.59091  Biso   1.000  C
  C128     1.0000 0.16855  0.87802  0.90909  Biso   1.000  C
  H113     1.0000 0.61708  0.59727  0.41189  Biso   1.000  H
  H114     1.0000 0.38292  0.59727  0.08811  Biso   1.000  H
  H115     1.0000 0.11708  0.09727  0.41189  Biso   1.000  H
  H116     1.0000 0.88292  0.09727  0.08811  Biso   1.000  H
  H117     1.0000 0.38292  0.40273  0.58811  Biso   1.000  H
  H118     1.0000 0.61708  0.40273  0.91189  Biso   1.000  H
  H119     1.0000 0.88292  0.90273  0.58811  Biso   1.000  H
  H120     1.0000 0.11708  0.90273  0.91189  Biso   1.000  H
  C129     1.0000 0.75023  0.55954  0.36366  Biso   1.000  C
  C130     1.0000 0.24977  0.55954  0.13634  Biso   1.000  C
  C131     1.0000 0.25023  0.05954  0.36366  Biso   1.000  C
  C132     1.0000 0.74977  0.05954  0.13634  Biso   1.000  C
  C133     1.0000 0.24977  0.44046  0.63634  Biso   1.000  C
  C134     1.0000 0.75023  0.44046  0.86366  Biso   1.000  C
  C135     1.0000 0.74977  0.94046  0.63634  Biso   1.000  C
  C136     1.0000 0.25023  0.94046  0.86366  Biso   1.000  C
  C137     1.0000 0.83832  0.54028  0.35011  Biso   1.000  C
  C138     1.0000 0.16168  0.54028  0.14989  Biso   1.000  C
  C139     1.0000 0.33832  0.04028  0.35011  Biso   1.000  C
  C140     1.0000 0.66168  0.04028  0.14989  Biso   1.000  C
  C141     1.0000 0.16168  0.45972  0.64989  Biso   1.000  C
  C142     1.0000 0.83832  0.45972  0.85011  Biso   1.000  C
  C143     1.0000 0.66168  0.95972  0.64989  Biso   1.000  C
  C144     1.0000 0.33832  0.95972  0.85011  Biso   1.000  C
  H121     1.0000 0.89696  0.55988  0.35480  Biso   1.000  H
  H122     1.0000 0.10304  0.55988  0.14520  Biso   1.000  H
  H123     1.0000 0.39696  0.05988  0.35480  Biso   1.000  H
  H124     1.0000 0.60304  0.05988  0.14520  Biso   1.000  H
  H125     1.0000 0.10304  0.44012  0.64520  Biso   1.000  H
  H126     1.0000 0.89696  0.44012  0.85480  Biso   1.000  H
  H127     1.0000 0.60304  0.94012  0.64520  Biso   1.000  H
  H128     1.0000 0.39696  0.94012  0.85480  Biso   1.000  H
  C145     1.0000 0.84211  0.49314  0.32994  Biso   1.000  C
  C146     1.0000 0.15789  0.49314  0.17006  Biso   1.000  C
  C147     1.0000 0.34211  0.99314  0.32994  Biso   1.000  C
  C148     1.0000 0.65789  0.99314  0.17006  Biso   1.000  C
  C149     1.0000 0.15789  0.50686  0.67006  Biso   1.000  C
  C150     1.0000 0.84211  0.50686  0.82994  Biso   1.000  C
  C151     1.0000 0.65789  0.00686  0.67006  Biso   1.000  C
  C152     1.0000 0.34211  0.00686  0.82994  Biso   1.000  C
  H129     1.0000 0.90301  0.48071  0.32107  Biso   1.000  H
  H130     1.0000 0.09699  0.48071  0.17893  Biso   1.000  H
  H131     1.0000 0.40301  0.98071  0.32107  Biso   1.000  H
  H132     1.0000 0.59699  0.98071  0.17893  Biso   1.000  H
  H133     1.0000 0.09699  0.51929  0.67893  Biso   1.000  H
  H134     1.0000 0.90301  0.51929  0.82107  Biso   1.000  H
  H135     1.0000 0.59699  0.01929  0.67893  Biso   1.000  H
  H136     1.0000 0.40301  0.01929  0.82107  Biso   1.000  H
  C153     1.0000 0.75779  0.46425  0.32273  Biso   1.000  C
  C154     1.0000 0.24221  0.46425  0.17727  Biso   1.000  C
  C155     1.0000 0.25779  0.96425  0.32273  Biso   1.000  C
  C156     1.0000 0.74221  0.96425  0.17727  Biso   1.000  C
  C157     1.0000 0.24221  0.53575  0.67727  Biso   1.000  C
  C158     1.0000 0.75779  0.53575  0.82273  Biso   1.000  C
  C159     1.0000 0.74221  0.03575  0.67727  Biso   1.000  C
  C160     1.0000 0.25779  0.03575  0.82273  Biso   1.000  C
  H137     1.0000 0.76036  0.43169  0.30922  Biso   1.000  H
  H138     1.0000 0.23964  0.43169  0.19078  Biso   1.000  H
  H139     1.0000 0.26036  0.93169  0.30922  Biso   1.000  H
  H140     1.0000 0.73964  0.93169  0.19078  Biso   1.000  H
  H141     1.0000 0.23964  0.56831  0.69078  Biso   1.000  H
  H142     1.0000 0.76036  0.56831  0.80922  Biso   1.000  H
  H143     1.0000 0.73964  0.06831  0.69078  Biso   1.000  H
  H144     1.0000 0.26036  0.06831  0.80922  Biso   1.000  H
  C161     1.0000 0.09002  0.80406  0.48858  Biso   1.000  C
  C162     1.0000 0.90998  0.80406  0.01142  Biso   1.000  C
  C163     1.0000 0.59002  0.30406  0.48858  Biso   1.000  C
  C164     1.0000 0.40998  0.30406  0.01142  Biso   1.000  C
  C165     1.0000 0.90998  0.19594  0.51142  Biso   1.000  C
  C166     1.0000 0.09002  0.19594  0.98858  Biso   1.000  C
  C167     1.0000 0.40998  0.69594  0.51142  Biso   1.000  C
  C168     1.0000 0.59002  0.69594  0.98858  Biso   1.000  C
  H145     1.0000 0.08833  0.81905  0.46309  Biso   1.000  H
  H146     1.0000 0.91167  0.81905  0.03691  Biso   1.000  H
  H147     1.0000 0.58833  0.31905  0.46309  Biso   1.000  H
  H148     1.0000 0.41167  0.31905  0.03691  Biso   1.000  H
  H149     1.0000 0.91167  0.18095  0.53691  Biso   1.000  H
  H150     1.0000 0.08833  0.18095  0.96309  Biso   1.000  H
  H151     1.0000 0.41167  0.68095  0.53691  Biso   1.000  H
  H152     1.0000 0.58833  0.68095  0.96309  Biso   1.000  H
  C169     1.0000 0.00786  0.78230  0.49941  Biso   1.000  C
  C170     1.0000 0.99214  0.78230  0.00059  Biso   1.000  C
  C171     1.0000 0.50786  0.28230  0.49941  Biso   1.000  C
  C172     1.0000 0.49214  0.28230  0.00059  Biso   1.000  C
  C173     1.0000 0.99214  0.21770  0.50059  Biso   1.000  C
  C174     1.0000 0.00786  0.21770  0.99941  Biso   1.000  C
  C175     1.0000 0.49214  0.71770  0.50059  Biso   1.000  C
  C176     1.0000 0.50786  0.71770  0.99941  Biso   1.000  C
  H153     1.0000 0.00634  0.76530  0.52414  Biso   1.000  H
  H154     1.0000 0.99366  0.76530  0.97586  Biso   1.000  H
  H155     1.0000 0.50634  0.26530  0.52414  Biso   1.000  H
  H156     1.0000 0.49366  0.26530  0.97586  Biso   1.000  H
  H157     1.0000 0.99366  0.23470  0.47586  Biso   1.000  H
  H158     1.0000 0.00634  0.23470  0.02414  Biso   1.000  H
  H159     1.0000 0.49366  0.73470  0.47586  Biso   1.000  H
  H160     1.0000 0.50634  0.73470  0.02414  Biso   1.000  H
  C177     1.0000 0.91716  0.78393  0.47345  Biso   1.000  C
  C178     1.0000 0.08284  0.78393  0.02655  Biso   1.000  C
  C179     1.0000 0.41716  0.28393  0.47345  Biso   1.000  C
  C180     1.0000 0.58284  0.28393  0.02655  Biso   1.000  C
  C181     1.0000 0.08284  0.21607  0.52655  Biso   1.000  C
  C182     1.0000 0.91716  0.21607  0.97345  Biso   1.000  C
  C183     1.0000 0.58284  0.71607  0.52655  Biso   1.000  C
  C184     1.0000 0.41716  0.71607  0.97345  Biso   1.000  C
  C185     1.0000 0.66599  0.52965  0.35582  Biso   1.000  C
  C186     1.0000 0.33401  0.52965  0.14418  Biso   1.000  C
  C187     1.0000 0.16599  0.02965  0.35582  Biso   1.000  C
  C188     1.0000 0.83401  0.02965  0.14418  Biso   1.000  C
  C189     1.0000 0.33401  0.47035  0.64418  Biso   1.000  C
  C190     1.0000 0.66599  0.47035  0.85582  Biso   1.000  C
  C191     1.0000 0.83401  0.97035  0.64418  Biso   1.000  C
  C192     1.0000 0.16599  0.97035  0.85582  Biso   1.000  C
  H161     1.0000 0.60483  0.54156  0.36479  Biso   1.000  H
  H162     1.0000 0.39517  0.54156  0.13521  Biso   1.000  H
  H163     1.0000 0.10483  0.04156  0.36479  Biso   1.000  H
  H164     1.0000 0.89517  0.04156  0.13521  Biso   1.000  H
  H165     1.0000 0.39517  0.45844  0.63521  Biso   1.000  H
  H166     1.0000 0.60483  0.45844  0.86479  Biso   1.000  H
  H167     1.0000 0.89517  0.95844  0.63521  Biso   1.000  H
  H168     1.0000 0.10483  0.95844  0.86479  Biso   1.000  H
  C193     1.0000 0.66980  0.48304  0.33527  Biso   1.000  C
  C194     1.0000 0.33020  0.48304  0.16473  Biso   1.000  C
  C195     1.0000 0.16980  0.98304  0.33527  Biso   1.000  C
  C196     1.0000 0.83020  0.98304  0.16473  Biso   1.000  C
  C197     1.0000 0.33020  0.51696  0.66473  Biso   1.000  C
  C198     1.0000 0.66980  0.51696  0.83527  Biso   1.000  C
  C199     1.0000 0.83020  0.01696  0.66473  Biso   1.000  C
  C200     1.0000 0.16980  0.01696  0.83527  Biso   1.000  C
  H169     1.0000 0.61117  0.46375  0.32974  Biso   1.000  H
  H170     1.0000 0.38883  0.46375  0.17026  Biso   1.000  H
  H171     1.0000 0.11117  0.96375  0.32974  Biso   1.000  H
  H172     1.0000 0.88883  0.96375  0.17026  Biso   1.000  H
  H173     1.0000 0.38883  0.53625  0.67026  Biso   1.000  H
  H174     1.0000 0.61117  0.53625  0.82974  Biso   1.000  H
  H175     1.0000 0.88883  0.03625  0.67026  Biso   1.000  H
  H176     1.0000 0.11117  0.03625  0.82974  Biso   1.000  H
  C201     1.0000 0.19813  0.79082  0.54984  Biso   1.000  C
  C202     1.0000 0.80187  0.79082  0.95016  Biso   1.000  C
  C203     1.0000 0.69813  0.29082  0.54984  Biso   1.000  C
  C204     1.0000 0.30187  0.29082  0.95016  Biso   1.000  C
  C205     1.0000 0.80187  0.20918  0.45016  Biso   1.000  C
  C206     1.0000 0.19813  0.20918  0.04984  Biso   1.000  C
  C207     1.0000 0.30187  0.70918  0.45016  Biso   1.000  C
  C208     1.0000 0.69813  0.70918  0.04984  Biso   1.000  C
  H177     1.0000 0.14484  0.77533  0.56268  Biso   1.000  H
  H178     1.0000 0.85516  0.77533  0.93732  Biso   1.000  H
  H179     1.0000 0.64484  0.27533  0.56268  Biso   1.000  H
  H180     1.0000 0.35516  0.27533  0.93732  Biso   1.000  H
  H181     1.0000 0.85516  0.22467  0.43732  Biso   1.000  H
  H182     1.0000 0.14484  0.22467  0.06268  Biso   1.000  H
  H183     1.0000 0.35516  0.72467  0.43732  Biso   1.000  H
  H184     1.0000 0.64484  0.72467  0.06268  Biso   1.000  H
  C209     1.0000 0.18413  0.80799  0.51113  Biso   1.000  C
  C210     1.0000 0.81587  0.80799  0.98887  Biso   1.000  C
  C211     1.0000 0.68413  0.30799  0.51113  Biso   1.000  C
  C212     1.0000 0.31587  0.30799  0.98887  Biso   1.000  C
  C213     1.0000 0.81587  0.19201  0.48887  Biso   1.000  C
  C214     1.0000 0.18413  0.19201  0.01113  Biso   1.000  C
  C215     1.0000 0.31587  0.69201  0.48887  Biso   1.000  C
  C216     1.0000 0.68413  0.69201  0.01113  Biso   1.000  C
  C217     1.0000 0.28887  0.79598  0.56999  Biso   1.000  C
  C218     1.0000 0.71113  0.79598  0.93001  Biso   1.000  C
  C219     1.0000 0.78887  0.29598  0.56999  Biso   1.000  C
  C220     1.0000 0.21113  0.29598  0.93001  Biso   1.000  C
  C221     1.0000 0.71113  0.20402  0.43001  Biso   1.000  C
  C222     1.0000 0.28887  0.20402  0.06999  Biso   1.000  C
  C223     1.0000 0.21113  0.70402  0.43001  Biso   1.000  C
  C224     1.0000 0.78887  0.70402  0.06999  Biso   1.000  C
  H185     1.0000 0.29728  0.78402  0.59627  Biso   1.000  H
  H186     1.0000 0.70272  0.78402  0.90373  Biso   1.000  H
  H187     1.0000 0.79728  0.28402  0.59627  Biso   1.000  H
  H188     1.0000 0.20272  0.28402  0.90373  Biso   1.000  H
  H189     1.0000 0.70272  0.21598  0.40373  Biso   1.000  H
  H190     1.0000 0.29728  0.21598  0.09627  Biso   1.000  H
  H191     1.0000 0.20272  0.71598  0.40373  Biso   1.000  H
  H192     1.0000 0.79728  0.71598  0.09627  Biso   1.000  H
  C225     1.0000 0.36663  0.81870  0.55133  Biso   1.000  C
  C226     1.0000 0.63337  0.81870  0.94867  Biso   1.000  C
  C227     1.0000 0.86663  0.31870  0.55133  Biso   1.000  C
  C228     1.0000 0.13337  0.31870  0.94867  Biso   1.000  C
  C229     1.0000 0.63337  0.18130  0.44867  Biso   1.000  C
  C230     1.0000 0.36663  0.18130  0.05133  Biso   1.000  C
  C231     1.0000 0.13337  0.68130  0.44867  Biso   1.000  C
  C232     1.0000 0.86663  0.68130  0.05133  Biso   1.000  C
  C233     1.0000 0.35269  0.83679  0.51291  Biso   1.000  C
  C234     1.0000 0.64731  0.83679  0.98709  Biso   1.000  C
  C235     1.0000 0.85269  0.33679  0.51291  Biso   1.000  C
  C236     1.0000 0.14731  0.33679  0.98709  Biso   1.000  C
  C237     1.0000 0.64731  0.16321  0.48709  Biso   1.000  C
  C238     1.0000 0.35269  0.16321  0.01291  Biso   1.000  C
  C239     1.0000 0.14731  0.66321  0.48709  Biso   1.000  C
  C240     1.0000 0.85269  0.66321  0.01291  Biso   1.000  C
  H193     1.0000 0.40531  0.85307  0.50016  Biso   1.000  H
  H194     1.0000 0.59469  0.85307  0.99984  Biso   1.000  H
  H195     1.0000 0.90531  0.35307  0.50016  Biso   1.000  H
  H196     1.0000 0.09469  0.35307  0.99984  Biso   1.000  H
  H197     1.0000 0.59469  0.14693  0.49984  Biso   1.000  H
  H198     1.0000 0.40531  0.14693  0.00016  Biso   1.000  H
  H199     1.0000 0.09469  0.64693  0.49984  Biso   1.000  H
  H200     1.0000 0.90531  0.64693  0.00016  Biso   1.000  H
  C241     1.0000 0.26289  0.83106  0.49356  Biso   1.000  C
  C242     1.0000 0.73711  0.83106  0.00644  Biso   1.000  C
  C243     1.0000 0.76289  0.33106  0.49356  Biso   1.000  C
  C244     1.0000 0.23711  0.33106  0.00644  Biso   1.000  C
  C245     1.0000 0.73711  0.16894  0.50644  Biso   1.000  C
  C246     1.0000 0.26289  0.16894  0.99356  Biso   1.000  C
  C247     1.0000 0.23711  0.66894  0.50644  Biso   1.000  C
  C248     1.0000 0.76289  0.66894  0.99356  Biso   1.000  C
  H201     1.0000 0.25466  0.84328  0.46735  Biso   1.000  H
  H202     1.0000 0.74534  0.84328  0.03265  Biso   1.000  H
  H203     1.0000 0.75466  0.34328  0.46735  Biso   1.000  H
  H204     1.0000 0.24534  0.34328  0.03265  Biso   1.000  H
  H205     1.0000 0.74534  0.15672  0.53265  Biso   1.000  H
  H206     1.0000 0.25466  0.15672  0.96735  Biso   1.000  H
  H207     1.0000 0.24534  0.65672  0.53265  Biso   1.000  H
  H208     1.0000 0.75466  0.65672  0.96735  Biso   1.000  H
  C249     1.0000 0.58147  0.81179  0.39899  Biso   1.000  C
  C250     1.0000 0.41853  0.81179  0.10101  Biso   1.000  C
  C251     1.0000 0.08147  0.31179  0.39899  Biso   1.000  C
  C252     1.0000 0.91853  0.31179  0.10101  Biso   1.000  C
  C253     1.0000 0.41853  0.18821  0.60101  Biso   1.000  C
  C254     1.0000 0.58147  0.18821  0.89899  Biso   1.000  C
  C255     1.0000 0.91853  0.68821  0.60101  Biso   1.000  C
  C256     1.0000 0.08147  0.68821  0.89899  Biso   1.000  C
  C257     1.0000 0.48113  0.81132  0.38064  Biso   1.000  C
  C258     1.0000 0.51887  0.81132  0.11936  Biso   1.000  C
  C259     1.0000 0.98113  0.31132  0.38064  Biso   1.000  C
  C260     1.0000 0.01887  0.31132  0.11936  Biso   1.000  C
  C261     1.0000 0.51887  0.18868  0.61936  Biso   1.000  C
  C262     1.0000 0.48113  0.18868  0.88064  Biso   1.000  C
  C263     1.0000 0.01887  0.68868  0.61936  Biso   1.000  C
  C264     1.0000 0.98113  0.68868  0.88064  Biso   1.000  C
  H209     1.0000 0.43057  0.79675  0.39556  Biso   1.000  H
  H210     1.0000 0.56943  0.79675  0.10444  Biso   1.000  H
  H211     1.0000 0.93057  0.29675  0.39556  Biso   1.000  H
  H212     1.0000 0.06943  0.29675  0.10444  Biso   1.000  H
  H213     1.0000 0.56943  0.20325  0.60444  Biso   1.000  H
  H214     1.0000 0.43057  0.20325  0.89556  Biso   1.000  H
  H215     1.0000 0.06943  0.70325  0.60444  Biso   1.000  H
  H216     1.0000 0.93057  0.70325  0.89556  Biso   1.000  H
  C265     1.0000 0.45529  0.82939  0.34525  Biso   1.000  C
  C266     1.0000 0.54471  0.82939  0.15475  Biso   1.000  C
  C267     1.0000 0.95529  0.32939  0.34525  Biso   1.000  C
  C268     1.0000 0.04471  0.32939  0.15475  Biso   1.000  C
  C269     1.0000 0.54471  0.17061  0.65475  Biso   1.000  C
  C270     1.0000 0.45529  0.17061  0.84525  Biso   1.000  C
  C271     1.0000 0.04471  0.67061  0.65475  Biso   1.000  C
  C272     1.0000 0.95529  0.67061  0.84525  Biso   1.000  C
  H217     1.0000 0.50427  0.84696  0.33122  Biso   1.000  H
  H218     1.0000 0.49573  0.84696  0.16878  Biso   1.000  H
  H219     1.0000 0.00427  0.34696  0.33122  Biso   1.000  H
  H220     1.0000 0.99573  0.34696  0.16878  Biso   1.000  H
  H221     1.0000 0.49573  0.15304  0.66878  Biso   1.000  H
  H222     1.0000 0.50427  0.15304  0.83122  Biso   1.000  H
  H223     1.0000 0.99573  0.65304  0.66878  Biso   1.000  H
  H224     1.0000 0.00427  0.65304  0.83122  Biso   1.000  H
  C273     1.0000 0.35773  0.82454  0.32601  Biso   1.000  C
  C274     1.0000 0.64227  0.82454  0.17399  Biso   1.000  C
  C275     1.0000 0.85773  0.32454  0.32601  Biso   1.000  C
  C276     1.0000 0.14227  0.32454  0.17399  Biso   1.000  C
  C277     1.0000 0.64227  0.17546  0.67399  Biso   1.000  C
  C278     1.0000 0.35773  0.17546  0.82601  Biso   1.000  C
  C279     1.0000 0.14227  0.67546  0.67399  Biso   1.000  C
  C280     1.0000 0.85773  0.67546  0.82601  Biso   1.000  C
  C281     1.0000 0.27589  0.80733  0.34586  Biso   1.000  C
  C282     1.0000 0.72411  0.80733  0.15414  Biso   1.000  C
  C283     1.0000 0.77589  0.30733  0.34586  Biso   1.000  C
  C284     1.0000 0.22411  0.30733  0.15414  Biso   1.000  C
  C285     1.0000 0.72411  0.19267  0.65414  Biso   1.000  C
  C286     1.0000 0.27589  0.19267  0.84586  Biso   1.000  C
  C287     1.0000 0.22411  0.69267  0.65414  Biso   1.000  C
  C288     1.0000 0.77589  0.69267  0.84586  Biso   1.000  C
  H225     1.0000 0.28319  0.79987  0.37308  Biso   1.000  H
  H226     1.0000 0.71681  0.79987  0.12692  Biso   1.000  H
  H227     1.0000 0.78319  0.29987  0.37308  Biso   1.000  H
  H228     1.0000 0.21681  0.29987  0.12692  Biso   1.000  H
  H229     1.0000 0.71681  0.20013  0.62692  Biso   1.000  H
  H230     1.0000 0.28319  0.20013  0.87308  Biso   1.000  H
  H231     1.0000 0.21681  0.70013  0.62692  Biso   1.000  H
  H232     1.0000 0.78319  0.70013  0.87308  Biso   1.000  H
  C289     1.0000 0.18526  0.80090  0.32719  Biso   1.000  C
  C290     1.0000 0.81474  0.80090  0.17281  Biso   1.000  C
  C291     1.0000 0.68526  0.30090  0.32719  Biso   1.000  C
  C292     1.0000 0.31474  0.30090  0.17281  Biso   1.000  C
  C293     1.0000 0.81474  0.19910  0.67281  Biso   1.000  C
  C294     1.0000 0.18526  0.19910  0.82719  Biso   1.000  C
  C295     1.0000 0.31474  0.69910  0.67281  Biso   1.000  C
  C296     1.0000 0.68526  0.69910  0.82719  Biso   1.000  C
  H233     1.0000 0.13152  0.78912  0.34169  Biso   1.000  H
  H234     1.0000 0.86848  0.78912  0.15831  Biso   1.000  H
  H235     1.0000 0.63152  0.28912  0.34169  Biso   1.000  H
  H236     1.0000 0.36848  0.28912  0.15831  Biso   1.000  H
  H237     1.0000 0.86848  0.21088  0.65831  Biso   1.000  H
  H238     1.0000 0.13152  0.21088  0.84169  Biso   1.000  H
  H239     1.0000 0.36848  0.71088  0.65831  Biso   1.000  H
  H240     1.0000 0.63152  0.71088  0.84169  Biso   1.000  H
  C297     1.0000 0.17104  0.81152  0.28697  Biso   1.000  C
  C298     1.0000 0.82896  0.81152  0.21303  Biso   1.000  C
  C299     1.0000 0.67104  0.31152  0.28697  Biso   1.000  C
  C300     1.0000 0.32896  0.31152  0.21303  Biso   1.000  C
  C301     1.0000 0.82896  0.18848  0.71303  Biso   1.000  C
  C302     1.0000 0.17104  0.18848  0.78697  Biso   1.000  C
  C303     1.0000 0.32896  0.68848  0.71303  Biso   1.000  C
  C304     1.0000 0.67104  0.68848  0.78697  Biso   1.000  C
  C305     1.0000 0.25233  0.82942  0.26688  Biso   1.000  C
  C306     1.0000 0.74767  0.82942  0.23312  Biso   1.000  C
  C307     1.0000 0.75233  0.32942  0.26688  Biso   1.000  C
  C308     1.0000 0.24767  0.32942  0.23312  Biso   1.000  C
  C309     1.0000 0.74767  0.17058  0.73312  Biso   1.000  C
  C310     1.0000 0.25233  0.17058  0.76688  Biso   1.000  C
  C311     1.0000 0.24767  0.67058  0.73312  Biso   1.000  C
  C312     1.0000 0.75233  0.67058  0.76688  Biso   1.000  C
  H241     1.0000 0.24498  0.83748  0.23976  Biso   1.000  H
  H242     1.0000 0.75502  0.83748  0.26024  Biso   1.000  H
  H243     1.0000 0.74498  0.33748  0.23976  Biso   1.000  H
  H244     1.0000 0.25502  0.33748  0.26024  Biso   1.000  H
  H245     1.0000 0.75502  0.16252  0.76024  Biso   1.000  H
  H246     1.0000 0.24498  0.16252  0.73976  Biso   1.000  H
  H247     1.0000 0.25502  0.66252  0.76024  Biso   1.000  H
  H248     1.0000 0.74498  0.66252  0.73976  Biso   1.000  H
  C313     1.0000 0.34324  0.83548  0.28618  Biso   1.000  C
  C314     1.0000 0.65676  0.83548  0.21382  Biso   1.000  C
  C315     1.0000 0.84324  0.33548  0.28618  Biso   1.000  C
  C316     1.0000 0.15676  0.33548  0.21382  Biso   1.000  C
  C317     1.0000 0.65676  0.16452  0.71382  Biso   1.000  C
  C318     1.0000 0.34324  0.16452  0.78618  Biso   1.000  C
  C319     1.0000 0.15676  0.66452  0.71382  Biso   1.000  C
  C320     1.0000 0.84324  0.66452  0.78618  Biso   1.000  C
  H249     1.0000 0.39717  0.84742  0.27186  Biso   1.000  H
  H250     1.0000 0.60283  0.84742  0.22814  Biso   1.000  H
  H251     1.0000 0.89717  0.34742  0.27186  Biso   1.000  H
  H252     1.0000 0.10283  0.34742  0.22814  Biso   1.000  H
  H253     1.0000 0.60283  0.15258  0.72814  Biso   1.000  H
  H254     1.0000 0.39717  0.15258  0.77186  Biso   1.000  H
  H255     1.0000 0.10283  0.65258  0.72814  Biso   1.000  H
  H256     1.0000 0.89717  0.65258  0.77186  Biso   1.000  H
  C321     1.0000 0.95693  0.84417  0.36182  Biso   1.000  C
  C322     1.0000 0.04307  0.84417  0.13818  Biso   1.000  C
  C323     1.0000 0.45693  0.34417  0.36182  Biso   1.000  C
  C324     1.0000 0.54307  0.34417  0.13818  Biso   1.000  C
  C325     1.0000 0.04307  0.15583  0.63818  Biso   1.000  C
  C326     1.0000 0.95693  0.15583  0.86182  Biso   1.000  C
  C327     1.0000 0.54307  0.65583  0.63818  Biso   1.000  C
  C328     1.0000 0.45693  0.65583  0.86182  Biso   1.000  C
  H257     1.0000 0.97271  0.81151  0.37399  Biso   1.000  H
  H258     1.0000 0.02729  0.81151  0.12601  Biso   1.000  H
  H259     1.0000 0.47271  0.31151  0.37399  Biso   1.000  H
  H260     1.0000 0.52729  0.31151  0.12601  Biso   1.000  H
  H261     1.0000 0.02729  0.18849  0.62601  Biso   1.000  H
  H262     1.0000 0.97271  0.18849  0.87399  Biso   1.000  H
  H263     1.0000 0.52729  0.68849  0.62601  Biso   1.000  H
  H264     1.0000 0.47271  0.68849  0.87399  Biso   1.000  H
  C329     1.0000 0.95037  0.88805  0.38501  Biso   1.000  C
  C330     1.0000 0.04963  0.88805  0.11499  Biso   1.000  C
  C331     1.0000 0.45037  0.38805  0.38501  Biso   1.000  C
  C332     1.0000 0.54963  0.38805  0.11499  Biso   1.000  C
  C333     1.0000 0.04963  0.11195  0.61499  Biso   1.000  C
  C334     1.0000 0.95037  0.11195  0.88501  Biso   1.000  C
  C335     1.0000 0.54963  0.61195  0.61499  Biso   1.000  C
  C336     1.0000 0.45037  0.61195  0.88501  Biso   1.000  C
  H265     1.0000 0.96358  0.88541  0.41247  Biso   1.000  H
  H266     1.0000 0.03642  0.88541  0.08753  Biso   1.000  H
  H267     1.0000 0.46358  0.38541  0.41247  Biso   1.000  H
  H268     1.0000 0.53642  0.38541  0.08753  Biso   1.000  H
  H269     1.0000 0.03642  0.11459  0.58753  Biso   1.000  H
  H270     1.0000 0.96358  0.11459  0.91247  Biso   1.000  H
  H271     1.0000 0.53642  0.61459  0.58753  Biso   1.000  H
  H272     1.0000 0.46358  0.61459  0.91247  Biso   1.000  H
  C337     1.0000 0.92447  0.93635  0.36848  Biso   1.000  C
  C338     1.0000 0.07553  0.93635  0.13152  Biso   1.000  C
  C339     1.0000 0.42447  0.43635  0.36848  Biso   1.000  C
  C340     1.0000 0.57553  0.43635  0.13152  Biso   1.000  C
  C341     1.0000 0.07553  0.06365  0.63152  Biso   1.000  C
  C342     1.0000 0.92447  0.06365  0.86848  Biso   1.000  C
  C343     1.0000 0.57553  0.56365  0.63152  Biso   1.000  C
  C344     1.0000 0.42447  0.56365  0.86848  Biso   1.000  C
  C345     1.0000 0.90753  0.93709  0.32789  Biso   1.000  C
  C346     1.0000 0.09247  0.93709  0.17211  Biso   1.000  C
  C347     1.0000 0.40753  0.43709  0.32789  Biso   1.000  C
  C348     1.0000 0.59247  0.43709  0.17211  Biso   1.000  C
  C349     1.0000 0.09247  0.06291  0.67211  Biso   1.000  C
  C350     1.0000 0.90753  0.06291  0.82789  Biso   1.000  C
  C351     1.0000 0.59247  0.56291  0.67211  Biso   1.000  C
  C352     1.0000 0.40753  0.56291  0.82789  Biso   1.000  C
  H273     1.0000 0.88864  0.96892  0.31514  Biso   1.000  H
  H274     1.0000 0.11136  0.96892  0.18486  Biso   1.000  H
  H275     1.0000 0.38864  0.46892  0.31514  Biso   1.000  H
  H276     1.0000 0.61136  0.46892  0.18486  Biso   1.000  H
  H277     1.0000 0.11136  0.03108  0.68486  Biso   1.000  H
  H278     1.0000 0.88864  0.03108  0.81514  Biso   1.000  H
  H279     1.0000 0.61136  0.53108  0.68486  Biso   1.000  H
  H280     1.0000 0.38864  0.53108  0.81514  Biso   1.000  H
  C353     1.0000 0.91809  0.89174  0.30608  Biso   1.000  C
  C354     1.0000 0.08191  0.89174  0.19392  Biso   1.000  C
  C355     1.0000 0.41809  0.39174  0.30608  Biso   1.000  C
  C356     1.0000 0.58191  0.39174  0.19392  Biso   1.000  C
  C357     1.0000 0.08191  0.10826  0.69392  Biso   1.000  C
  C358     1.0000 0.91809  0.10826  0.80608  Biso   1.000  C
  C359     1.0000 0.58191  0.60826  0.69392  Biso   1.000  C
  C360     1.0000 0.41809  0.60826  0.80608  Biso   1.000  C
  H281     1.0000 0.90802  0.89358  0.27842  Biso   1.000  H
  H282     1.0000 0.09198  0.89358  0.22158  Biso   1.000  H
  H283     1.0000 0.40802  0.39358  0.27842  Biso   1.000  H
  H284     1.0000 0.59198  0.39358  0.22158  Biso   1.000  H
  H285     1.0000 0.09198  0.10642  0.72158  Biso   1.000  H
  H286     1.0000 0.90802  0.10642  0.77842  Biso   1.000  H
  H287     1.0000 0.59198  0.60642  0.72158  Biso   1.000  H
  H288     1.0000 0.40802  0.60642  0.77842  Biso   1.000  H
  C361     1.0000 0.91633  0.98377  0.39345  Biso   1.000  C
  C362     1.0000 0.08367  0.98377  0.10655  Biso   1.000  C
  C363     1.0000 0.41633  0.48377  0.39345  Biso   1.000  C
  C364     1.0000 0.58367  0.48377  0.10655  Biso   1.000  C
  C365     1.0000 0.08367  0.01623  0.60655  Biso   1.000  C
  C366     1.0000 0.91633  0.01623  0.89345  Biso   1.000  C
  C367     1.0000 0.58367  0.51623  0.60655  Biso   1.000  C
  C368     1.0000 0.41633  0.51623  0.89345  Biso   1.000  C
  C369     1.0000 0.97380  0.98917  0.42783  Biso   1.000  C
  C370     1.0000 0.02620  0.98917  0.07217  Biso   1.000  C
  C371     1.0000 0.47380  0.48917  0.42783  Biso   1.000  C
  C372     1.0000 0.52620  0.48917  0.07217  Biso   1.000  C
  C373     1.0000 0.02620  0.01083  0.57217  Biso   1.000  C
  C374     1.0000 0.97380  0.01083  0.92783  Biso   1.000  C
  C375     1.0000 0.52620  0.51083  0.57217  Biso   1.000  C
  C376     1.0000 0.47380  0.51083  0.92783  Biso   1.000  C
  H289     1.0000 0.01885  0.96216  0.43539  Biso   1.000  H
  H290     1.0000 0.98115  0.96216  0.06461  Biso   1.000  H
  H291     1.0000 0.51885  0.46216  0.43539  Biso   1.000  H
  H292     1.0000 0.48115  0.46216  0.06461  Biso   1.000  H
  H293     1.0000 0.98115  0.03784  0.56461  Biso   1.000  H
  H294     1.0000 0.01885  0.03784  0.93539  Biso   1.000  H
  H295     1.0000 0.48115  0.53784  0.56461  Biso   1.000  H
  H296     1.0000 0.51885  0.53784  0.93539  Biso   1.000  H
  C377     1.0000 0.96640  0.03342  0.45132  Biso   1.000  C
  C378     1.0000 0.03360  0.03342  0.04868  Biso   1.000  C
  C379     1.0000 0.46640  0.53342  0.45132  Biso   1.000  C
  C380     1.0000 0.53360  0.53342  0.04868  Biso   1.000  C
  C381     1.0000 0.03360  0.96658  0.54868  Biso   1.000  C
  C382     1.0000 0.96640  0.96658  0.95132  Biso   1.000  C
  C383     1.0000 0.53360  0.46658  0.54868  Biso   1.000  C
  C384     1.0000 0.46640  0.46658  0.95132  Biso   1.000  C
  H297     1.0000 0.00704  0.03674  0.47448  Biso   1.000  H
  H298     1.0000 0.99296  0.03674  0.02552  Biso   1.000  H
  H299     1.0000 0.50704  0.53674  0.47448  Biso   1.000  H
  H300     1.0000 0.49296  0.53674  0.02552  Biso   1.000  H
  H301     1.0000 0.99296  0.96326  0.52552  Biso   1.000  H
  H302     1.0000 0.00704  0.96326  0.97448  Biso   1.000  H
  H303     1.0000 0.49296  0.46326  0.52552  Biso   1.000  H
  H304     1.0000 0.50704  0.46326  0.97448  Biso   1.000  H
  C385     1.0000 0.90050  0.07231  0.44115  Biso   1.000  C
  C386     1.0000 0.09950  0.07231  0.05885  Biso   1.000  C
  C387     1.0000 0.40050  0.57231  0.44115  Biso   1.000  C
  C388     1.0000 0.59950  0.57231  0.05885  Biso   1.000  C
  C389     1.0000 0.09950  0.92769  0.55885  Biso   1.000  C
  C390     1.0000 0.90050  0.92769  0.94115  Biso   1.000  C
  C391     1.0000 0.59950  0.42769  0.55885  Biso   1.000  C
  C392     1.0000 0.40050  0.42769  0.94115  Biso   1.000  C
  H305     1.0000 0.89488  0.10240  0.45735  Biso   1.000  H
  H306     1.0000 0.10512  0.10240  0.04265  Biso   1.000  H
  H307     1.0000 0.39488  0.60240  0.45735  Biso   1.000  H
  H308     1.0000 0.60512  0.60240  0.04265  Biso   1.000  H
  H309     1.0000 0.10512  0.89760  0.54265  Biso   1.000  H
  H310     1.0000 0.89488  0.89760  0.95735  Biso   1.000  H
  H311     1.0000 0.60512  0.39760  0.54265  Biso   1.000  H
  H312     1.0000 0.39488  0.39760  0.95735  Biso   1.000  H
  C393     1.0000 0.84240  0.06746  0.40716  Biso   1.000  C
  C394     1.0000 0.15760  0.06746  0.09284  Biso   1.000  C
  C395     1.0000 0.34240  0.56746  0.40716  Biso   1.000  C
  C396     1.0000 0.65760  0.56746  0.09284  Biso   1.000  C
  C397     1.0000 0.15760  0.93254  0.59284  Biso   1.000  C
  C398     1.0000 0.84240  0.93254  0.90716  Biso   1.000  C
  C399     1.0000 0.65760  0.43254  0.59284  Biso   1.000  C
  C400     1.0000 0.34240  0.43254  0.90716  Biso   1.000  C
  H313     1.0000 0.79650  0.09429  0.40010  Biso   1.000  H
  H314     1.0000 0.20350  0.09429  0.09990  Biso   1.000  H
  H315     1.0000 0.29650  0.59429  0.40010  Biso   1.000  H
  H316     1.0000 0.70350  0.59429  0.09990  Biso   1.000  H
  H317     1.0000 0.20350  0.90571  0.59990  Biso   1.000  H
  H318     1.0000 0.79650  0.90571  0.90010  Biso   1.000  H
  H319     1.0000 0.70350  0.40571  0.59990  Biso   1.000  H
  H320     1.0000 0.29650  0.40571  0.90010  Biso   1.000  H
  C401     1.0000 0.85050  0.02374  0.38331  Biso   1.000  C
  C402     1.0000 0.14950  0.02374  0.11669  Biso   1.000  C
  C403     1.0000 0.35050  0.52374  0.38331  Biso   1.000  C
  C404     1.0000 0.64950  0.52374  0.11669  Biso   1.000  C
  C405     1.0000 0.14950  0.97626  0.61669  Biso   1.000  C
  C406     1.0000 0.85050  0.97626  0.88331  Biso   1.000  C
  C407     1.0000 0.64950  0.47626  0.61669  Biso   1.000  C
  C408     1.0000 0.35050  0.47626  0.88331  Biso   1.000  C
  H321     1.0000 0.81081  0.02107  0.35985  Biso   1.000  H
  H322     1.0000 0.18919  0.02107  0.14015  Biso   1.000  H
  H323     1.0000 0.31081  0.52107  0.35985  Biso   1.000  H
  H324     1.0000 0.68919  0.52107  0.14015  Biso   1.000  H
  H325     1.0000 0.18919  0.97893  0.64015  Biso   1.000  H
  H326     1.0000 0.81081  0.97893  0.85985  Biso   1.000  H
  H327     1.0000 0.68919  0.47893  0.64015  Biso   1.000  H
  H328     1.0000 0.31081  0.47893  0.85985  Biso   1.000  H
  C409     1.0000 0.76618  0.76223  0.32220  Biso   1.000  C
  C410     1.0000 0.23382  0.76223  0.17780  Biso   1.000  C
  C411     1.0000 0.26618  0.26223  0.32220  Biso   1.000  C
  C412     1.0000 0.73382  0.26223  0.17780  Biso   1.000  C
  C413     1.0000 0.23382  0.23777  0.67780  Biso   1.000  C
  C414     1.0000 0.76618  0.23777  0.82220  Biso   1.000  C
  C415     1.0000 0.73382  0.73777  0.67780  Biso   1.000  C
  C416     1.0000 0.26618  0.73777  0.82220  Biso   1.000  C
  H329     1.0000 0.77928  0.79241  0.33793  Biso   1.000  H
  H330     1.0000 0.22072  0.79241  0.16207  Biso   1.000  H
  H331     1.0000 0.27928  0.29241  0.33793  Biso   1.000  H
  H332     1.0000 0.72072  0.29241  0.16207  Biso   1.000  H
  H333     1.0000 0.22072  0.20759  0.66207  Biso   1.000  H
  H334     1.0000 0.77928  0.20759  0.83793  Biso   1.000  H
  H335     1.0000 0.72072  0.70759  0.66207  Biso   1.000  H
  H336     1.0000 0.27928  0.70759  0.83793  Biso   1.000  H
  C417     1.0000 0.67559  0.73849  0.32380  Biso   1.000  C
  C418     1.0000 0.32441  0.73849  0.17620  Biso   1.000  C
  C419     1.0000 0.17559  0.23849  0.32380  Biso   1.000  C
  C420     1.0000 0.82441  0.23849  0.17620  Biso   1.000  C
  C421     1.0000 0.32441  0.26151  0.67620  Biso   1.000  C
  C422     1.0000 0.67559  0.26151  0.82380  Biso   1.000  C
  C423     1.0000 0.82441  0.76151  0.67620  Biso   1.000  C
  C424     1.0000 0.17559  0.76151  0.82380  Biso   1.000  C
  H337     1.0000 0.62763  0.75281  0.34013  Biso   1.000  H
  H338     1.0000 0.37237  0.75281  0.15987  Biso   1.000  H
  H339     1.0000 0.12763  0.25281  0.34013  Biso   1.000  H
  H340     1.0000 0.87237  0.25281  0.15987  Biso   1.000  H
  H341     1.0000 0.37237  0.24719  0.65987  Biso   1.000  H
  H342     1.0000 0.62763  0.24719  0.84013  Biso   1.000  H
  H343     1.0000 0.87237  0.74719  0.65987  Biso   1.000  H
  H344     1.0000 0.12763  0.74719  0.84013  Biso   1.000  H
  C425     1.0000 0.65377  0.69386  0.30181  Biso   1.000  C
  C426     1.0000 0.34623  0.69386  0.19819  Biso   1.000  C
  C427     1.0000 0.15377  0.19386  0.30181  Biso   1.000  C
  C428     1.0000 0.84623  0.19386  0.19819  Biso   1.000  C
  C429     1.0000 0.34623  0.30614  0.69819  Biso   1.000  C
  C430     1.0000 0.65377  0.30614  0.80181  Biso   1.000  C
  C431     1.0000 0.84623  0.80614  0.69819  Biso   1.000  C
  C432     1.0000 0.15377  0.80614  0.80181  Biso   1.000  C
  C433     1.0000 0.72775  0.67530  0.27858  Biso   1.000  C
  C434     1.0000 0.27225  0.67530  0.22142  Biso   1.000  C
  C435     1.0000 0.22775  0.17530  0.27858  Biso   1.000  C
  C436     1.0000 0.77225  0.17530  0.22142  Biso   1.000  C
  C437     1.0000 0.27225  0.32470  0.72142  Biso   1.000  C
  C438     1.0000 0.72775  0.32470  0.77858  Biso   1.000  C
  C439     1.0000 0.77225  0.82470  0.72142  Biso   1.000  C
  C440     1.0000 0.22775  0.82470  0.77858  Biso   1.000  C
  H345     1.0000 0.71718  0.64453  0.26323  Biso   1.000  H
  H346     1.0000 0.28282  0.64453  0.23677  Biso   1.000  H
  H347     1.0000 0.21718  0.14453  0.26323  Biso   1.000  H
  H348     1.0000 0.78282  0.14453  0.23677  Biso   1.000  H
  H349     1.0000 0.28282  0.35547  0.73677  Biso   1.000  H
  H350     1.0000 0.71718  0.35547  0.76323  Biso   1.000  H
  H351     1.0000 0.78282  0.85547  0.73677  Biso   1.000  H
  H352     1.0000 0.21718  0.85547  0.76323  Biso   1.000  H
  C441     1.0000 0.81618  0.70137  0.27775  Biso   1.000  C
  C442     1.0000 0.18382  0.70137  0.22225  Biso   1.000  C
  C443     1.0000 0.31618  0.20137  0.27775  Biso   1.000  C
  C444     1.0000 0.68382  0.20137  0.22225  Biso   1.000  C
  C445     1.0000 0.18382  0.29863  0.72225  Biso   1.000  C
  C446     1.0000 0.81618  0.29863  0.77775  Biso   1.000  C
  C447     1.0000 0.68382  0.79863  0.72225  Biso   1.000  C
  C448     1.0000 0.31618  0.79863  0.77775  Biso   1.000  C
  H353     1.0000 0.86486  0.68828  0.26121  Biso   1.000  H
  H354     1.0000 0.13514  0.68828  0.23879  Biso   1.000  H
  H355     1.0000 0.36486  0.18828  0.26121  Biso   1.000  H
  H356     1.0000 0.63514  0.18828  0.23879  Biso   1.000  H
  H357     1.0000 0.13514  0.31172  0.73879  Biso   1.000  H
  H358     1.0000 0.86486  0.31172  0.76121  Biso   1.000  H
  H359     1.0000 0.63514  0.81172  0.73879  Biso   1.000  H
  H360     1.0000 0.36486  0.81172  0.76121  Biso   1.000  H
  C449     1.0000 0.55663  0.66756  0.30352  Biso   1.000  C
  C450     1.0000 0.44337  0.66756  0.19648  Biso   1.000  C
  C451     1.0000 0.05663  0.16756  0.30352  Biso   1.000  C
  C452     1.0000 0.94337  0.16756  0.19648  Biso   1.000  C
  C453     1.0000 0.44337  0.33244  0.69648  Biso   1.000  C
  C454     1.0000 0.55663  0.33244  0.80352  Biso   1.000  C
  C455     1.0000 0.94337  0.83244  0.69648  Biso   1.000  C
  C456     1.0000 0.05663  0.83244  0.80352  Biso   1.000  C
  C457     1.0000 0.54730  0.61444  0.29800  Biso   1.000  C
  C458     1.0000 0.45270  0.61444  0.20200  Biso   1.000  C
  C459     1.0000 0.04730  0.11444  0.29800  Biso   1.000  C
  C460     1.0000 0.95270  0.11444  0.20200  Biso   1.000  C
  C461     1.0000 0.45270  0.38556  0.70200  Biso   1.000  C
  C462     1.0000 0.54730  0.38556  0.79800  Biso   1.000  C
  C463     1.0000 0.95270  0.88556  0.70200  Biso   1.000  C
  C464     1.0000 0.04730  0.88556  0.79800  Biso   1.000  C
  H361     1.0000 0.60312  0.59405  0.29204  Biso   1.000  H
  H362     1.0000 0.39688  0.59405  0.20796  Biso   1.000  H
  H363     1.0000 0.10312  0.09405  0.29204  Biso   1.000  H
  H364     1.0000 0.89688  0.09405  0.20796  Biso   1.000  H
  H365     1.0000 0.39688  0.40595  0.70796  Biso   1.000  H
  H366     1.0000 0.60312  0.40595  0.79204  Biso   1.000  H
  H367     1.0000 0.89688  0.90595  0.70796  Biso   1.000  H
  H368     1.0000 0.10312  0.90595  0.79204  Biso   1.000  H
  C465     1.0000 0.45620  0.59020  0.30110  Biso   1.000  C
  C466     1.0000 0.54380  0.59020  0.19890  Biso   1.000  C
  C467     1.0000 0.95620  0.09020  0.30110  Biso   1.000  C
  C468     1.0000 0.04380  0.09020  0.19890  Biso   1.000  C
  C469     1.0000 0.54380  0.40980  0.69890  Biso   1.000  C
  C470     1.0000 0.45620  0.40980  0.80110  Biso   1.000  C
  C471     1.0000 0.04380  0.90980  0.69890  Biso   1.000  C
  C472     1.0000 0.95620  0.90980  0.80110  Biso   1.000  C
  H369     1.0000 0.45046  0.55333  0.29733  Biso   1.000  H
  H370     1.0000 0.54954  0.55333  0.20267  Biso   1.000  H
  H371     1.0000 0.95046  0.05333  0.29733  Biso   1.000  H
  H372     1.0000 0.04954  0.05333  0.20267  Biso   1.000  H
  H373     1.0000 0.54954  0.44667  0.70267  Biso   1.000  H
  H374     1.0000 0.45046  0.44667  0.79733  Biso   1.000  H
  H375     1.0000 0.04954  0.94667  0.70267  Biso   1.000  H
  H376     1.0000 0.95046  0.94667  0.79733  Biso   1.000  H
  C473     1.0000 0.37490  0.61911  0.30955  Biso   1.000  C
  C474     1.0000 0.62510  0.61911  0.19045  Biso   1.000  C
  C475     1.0000 0.87490  0.11911  0.30955  Biso   1.000  C
  C476     1.0000 0.12510  0.11911  0.19045  Biso   1.000  C
  C477     1.0000 0.62510  0.38089  0.69045  Biso   1.000  C
  C478     1.0000 0.37490  0.38089  0.80955  Biso   1.000  C
  C479     1.0000 0.12510  0.88089  0.69045  Biso   1.000  C
  C480     1.0000 0.87490  0.88089  0.80955  Biso   1.000  C
  H377     1.0000 0.31341  0.60223  0.31227  Biso   1.000  H
  H378     1.0000 0.68659  0.60223  0.18773  Biso   1.000  H
  H379     1.0000 0.81341  0.10223  0.31227  Biso   1.000  H
  H380     1.0000 0.18659  0.10223  0.18773  Biso   1.000  H
  H381     1.0000 0.68659  0.39777  0.68773  Biso   1.000  H
  H382     1.0000 0.31341  0.39777  0.81227  Biso   1.000  H
  H383     1.0000 0.18659  0.89777  0.68773  Biso   1.000  H
  H384     1.0000 0.81341  0.89777  0.81227  Biso   1.000  H
  C481     1.0000 0.38270  0.67203  0.31401  Biso   1.000  C
  C482     1.0000 0.61730  0.67203  0.18599  Biso   1.000  C
  C483     1.0000 0.88270  0.17203  0.31401  Biso   1.000  C
  C484     1.0000 0.11730  0.17203  0.18599  Biso   1.000  C
  C485     1.0000 0.61730  0.32797  0.68599  Biso   1.000  C
  C486     1.0000 0.38270  0.32797  0.81401  Biso   1.000  C
  C487     1.0000 0.11730  0.82797  0.68599  Biso   1.000  C
  C488     1.0000 0.88270  0.82797  0.81401  Biso   1.000  C
  H385     1.0000 0.32618  0.69232  0.31913  Biso   1.000  H
  H386     1.0000 0.67382  0.69232  0.18087  Biso   1.000  H
  H387     1.0000 0.82618  0.19232  0.31913  Biso   1.000  H
  H388     1.0000 0.17382  0.19232  0.18087  Biso   1.000  H
  H389     1.0000 0.67382  0.30768  0.68087  Biso   1.000  H
  H390     1.0000 0.32618  0.30768  0.81913  Biso   1.000  H
  H391     1.0000 0.17382  0.80768  0.68087  Biso   1.000  H
  H392     1.0000 0.82618  0.80768  0.81913  Biso   1.000  H
  C489     1.0000 0.47281  0.69638  0.31111  Biso   1.000  C
  C490     1.0000 0.52719  0.69638  0.18889  Biso   1.000  C
  C491     1.0000 0.97281  0.19638  0.31111  Biso   1.000  C
  C492     1.0000 0.02719  0.19638  0.18889  Biso   1.000  C
  C493     1.0000 0.52719  0.30362  0.68889  Biso   1.000  C
  C494     1.0000 0.47281  0.30362  0.81111  Biso   1.000  C
  C495     1.0000 0.02719  0.80362  0.68889  Biso   1.000  C
  C496     1.0000 0.97281  0.80362  0.81111  Biso   1.000  C
  H393     1.0000 0.47754  0.73338  0.31435  Biso   1.000  H
  H394     1.0000 0.52246  0.73338  0.18565  Biso   1.000  H
  H395     1.0000 0.97754  0.23338  0.31435  Biso   1.000  H
  H396     1.0000 0.02246  0.23338  0.18565  Biso   1.000  H
  H397     1.0000 0.52246  0.26662  0.68565  Biso   1.000  H
  H398     1.0000 0.47754  0.26662  0.81435  Biso   1.000  H
  H399     1.0000 0.02246  0.76662  0.68565  Biso   1.000  H
  H400     1.0000 0.97754  0.76662  0.81435  Biso   1.000  H
  C497     1.0000 0.03892  0.69014  0.33054  Biso   1.000  C
  C498     1.0000 0.96108  0.69014  0.16946  Biso   1.000  C
  C499     1.0000 0.53892  0.19014  0.33054  Biso   1.000  C
  C500     1.0000 0.46108  0.19014  0.16946  Biso   1.000  C
  C501     1.0000 0.96108  0.30986  0.66946  Biso   1.000  C
  C502     1.0000 0.03892  0.30986  0.83054  Biso   1.000  C
  C503     1.0000 0.46108  0.80986  0.66946  Biso   1.000  C
  C504     1.0000 0.53892  0.80986  0.83054  Biso   1.000  C
  C505     1.0000 0.07064  0.63469  0.33689  Biso   1.000  C
  C506     1.0000 0.92936  0.63469  0.16311  Biso   1.000  C
  C507     1.0000 0.57064  0.13469  0.33689  Biso   1.000  C
  C508     1.0000 0.42936  0.13469  0.16311  Biso   1.000  C
  C509     1.0000 0.92936  0.36531  0.66311  Biso   1.000  C
  C510     1.0000 0.07064  0.36531  0.83689  Biso   1.000  C
  C511     1.0000 0.42936  0.86531  0.66311  Biso   1.000  C
  C512     1.0000 0.57064  0.86531  0.83689  Biso   1.000  C
  H401     1.0000 0.08433  0.62329  0.36304  Biso   1.000  H
  H402     1.0000 0.91567  0.62329  0.13696  Biso   1.000  H
  H403     1.0000 0.58433  0.12329  0.36304  Biso   1.000  H
  H404     1.0000 0.41567  0.12329  0.13696  Biso   1.000  H
  H405     1.0000 0.91567  0.37671  0.63696  Biso   1.000  H
  H406     1.0000 0.08433  0.37671  0.86304  Biso   1.000  H
  H407     1.0000 0.41567  0.87671  0.63696  Biso   1.000  H
  H408     1.0000 0.58433  0.87671  0.86304  Biso   1.000  H
  C513     1.0000 0.08084  0.60048  0.30836  Biso   1.000  C
  C514     1.0000 0.91916  0.60048  0.19164  Biso   1.000  C
  C515     1.0000 0.58084  0.10048  0.30836  Biso   1.000  C
  C516     1.0000 0.41916  0.10048  0.19164  Biso   1.000  C
  C517     1.0000 0.91916  0.39952  0.69164  Biso   1.000  C
  C518     1.0000 0.08084  0.39952  0.80836  Biso   1.000  C
  C519     1.0000 0.41916  0.89952  0.69164  Biso   1.000  C
  C520     1.0000 0.58084  0.89952  0.80836  Biso   1.000  C
  H409     1.0000 0.07145  0.61343  0.28238  Biso   1.000  H
  H410     1.0000 0.92855  0.61343  0.21762  Biso   1.000  H
  H411     1.0000 0.57145  0.11343  0.28238  Biso   1.000  H
  H412     1.0000 0.42855  0.11343  0.21762  Biso   1.000  H
  H413     1.0000 0.92855  0.38657  0.71762  Biso   1.000  H
  H414     1.0000 0.07145  0.38657  0.78238  Biso   1.000  H
  H415     1.0000 0.42855  0.88657  0.71762  Biso   1.000  H
  H416     1.0000 0.57145  0.88657  0.78238  Biso   1.000  H
  C521     1.0000 0.10529  0.54423  0.31248  Biso   1.000  C
  C522     1.0000 0.89471  0.54423  0.18752  Biso   1.000  C
  C523     1.0000 0.60529  0.04423  0.31248  Biso   1.000  C
  C524     1.0000 0.39471  0.04423  0.18752  Biso   1.000  C
  C525     1.0000 0.89471  0.45577  0.68752  Biso   1.000  C
  C526     1.0000 0.10529  0.45577  0.81248  Biso   1.000  C
  C527     1.0000 0.39471  0.95577  0.68752  Biso   1.000  C
  C528     1.0000 0.60529  0.95577  0.81248  Biso   1.000  C
  C529     1.0000 0.10383  0.51755  0.34809  Biso   1.000  C
  C530     1.0000 0.89617  0.51755  0.15191  Biso   1.000  C
  C531     1.0000 0.60383  0.01755  0.34809  Biso   1.000  C
  C532     1.0000 0.39617  0.01755  0.15191  Biso   1.000  C
  C533     1.0000 0.89617  0.48245  0.65191  Biso   1.000  C
  C534     1.0000 0.10383  0.48245  0.84809  Biso   1.000  C
  C535     1.0000 0.39617  0.98245  0.65191  Biso   1.000  C
  C536     1.0000 0.60383  0.98245  0.84809  Biso   1.000  C
  H417     1.0000 0.08738  0.53619  0.37099  Biso   1.000  H
  H418     1.0000 0.91262  0.53619  0.12901  Biso   1.000  H
  H419     1.0000 0.58738  0.03619  0.37099  Biso   1.000  H
  H420     1.0000 0.41262  0.03619  0.12901  Biso   1.000  H
  H421     1.0000 0.91262  0.46381  0.62901  Biso   1.000  H
  H422     1.0000 0.08738  0.46381  0.87099  Biso   1.000  H
  H423     1.0000 0.41262  0.96381  0.62901  Biso   1.000  H
  H424     1.0000 0.58738  0.96381  0.87099  Biso   1.000  H
  C537     1.0000 0.12585  0.46434  0.35089  Biso   1.000  C
  C538     1.0000 0.87415  0.46434  0.14911  Biso   1.000  C
  C539     1.0000 0.62585  0.96434  0.35089  Biso   1.000  C
  C540     1.0000 0.37415  0.96434  0.14911  Biso   1.000  C
  C541     1.0000 0.87415  0.53566  0.64911  Biso   1.000  C
  C542     1.0000 0.12585  0.53566  0.85089  Biso   1.000  C
  C543     1.0000 0.37415  0.03566  0.64911  Biso   1.000  C
  C544     1.0000 0.62585  0.03566  0.85089  Biso   1.000  C
  H425     1.0000 0.12419  0.44699  0.37548  Biso   1.000  H
  H426     1.0000 0.87581  0.44699  0.12452  Biso   1.000  H
  H427     1.0000 0.62419  0.94699  0.37548  Biso   1.000  H
  H428     1.0000 0.37581  0.94699  0.12452  Biso   1.000  H
  H429     1.0000 0.87581  0.55301  0.62452  Biso   1.000  H
  H430     1.0000 0.12419  0.55301  0.87548  Biso   1.000  H
  H431     1.0000 0.37581  0.05301  0.62452  Biso   1.000  H
  H432     1.0000 0.62419  0.05301  0.87548  Biso   1.000  H
  C545     1.0000 0.15023  0.43661  0.31777  Biso   1.000  C
  C546     1.0000 0.84977  0.43661  0.18223  Biso   1.000  C
  C547     1.0000 0.65023  0.93661  0.31777  Biso   1.000  C
  C548     1.0000 0.34977  0.93661  0.18223  Biso   1.000  C
  C549     1.0000 0.84977  0.56339  0.68223  Biso   1.000  C
  C550     1.0000 0.15023  0.56339  0.81777  Biso   1.000  C
  C551     1.0000 0.34977  0.06339  0.68223  Biso   1.000  C
  C552     1.0000 0.65023  0.06339  0.81777  Biso   1.000  C
  C553     1.0000 0.15200  0.46267  0.28201  Biso   1.000  C
  C554     1.0000 0.84800  0.46267  0.21799  Biso   1.000  C
  C555     1.0000 0.65200  0.96267  0.28201  Biso   1.000  C
  C556     1.0000 0.34800  0.96267  0.21799  Biso   1.000  C
  C557     1.0000 0.84800  0.53733  0.71799  Biso   1.000  C
  C558     1.0000 0.15200  0.53733  0.78201  Biso   1.000  C
  C559     1.0000 0.34800  0.03733  0.71799  Biso   1.000  C
  C560     1.0000 0.65200  0.03733  0.78201  Biso   1.000  C
  H433     1.0000 0.16895  0.44408  0.25915  Biso   1.000  H
  H434     1.0000 0.83105  0.44408  0.24085  Biso   1.000  H
  H435     1.0000 0.66895  0.94408  0.25915  Biso   1.000  H
  H436     1.0000 0.33105  0.94408  0.24085  Biso   1.000  H
  H437     1.0000 0.83105  0.55592  0.74085  Biso   1.000  H
  H438     1.0000 0.16895  0.55592  0.75915  Biso   1.000  H
  H439     1.0000 0.33105  0.05592  0.74085  Biso   1.000  H
  H440     1.0000 0.66895  0.05592  0.75915  Biso   1.000  H
  C561     1.0000 0.12910  0.51556  0.27962  Biso   1.000  C
  C562     1.0000 0.87090  0.51556  0.22038  Biso   1.000  C
  C563     1.0000 0.62910  0.01556  0.27962  Biso   1.000  C
  C564     1.0000 0.37090  0.01556  0.22038  Biso   1.000  C
  C565     1.0000 0.87090  0.48444  0.72038  Biso   1.000  C
  C566     1.0000 0.12910  0.48444  0.77962  Biso   1.000  C
  C567     1.0000 0.37090  0.98444  0.72038  Biso   1.000  C
  C568     1.0000 0.62910  0.98444  0.77962  Biso   1.000  C
  H441     1.0000 0.12971  0.53267  0.25492  Biso   1.000  H
  H442     1.0000 0.87029  0.53267  0.24508  Biso   1.000  H
  H443     1.0000 0.62971  0.03267  0.25492  Biso   1.000  H
  H444     1.0000 0.37029  0.03267  0.24508  Biso   1.000  H
  H445     1.0000 0.87029  0.46733  0.74508  Biso   1.000  H
  H446     1.0000 0.12971  0.46733  0.75492  Biso   1.000  H
  H447     1.0000 0.37029  0.96733  0.74508  Biso   1.000  H
  H448     1.0000 0.62971  0.96733  0.75492  Biso   1.000  H
