data_image0
_cell_length_a       20.773
_cell_length_b       25.663
_cell_length_c       15.0254
_cell_angle_alpha    90
_cell_angle_beta     97.565
_cell_angle_gamma    90

_symmetry_space_group_name_H-M    "P 1"
_symmetry_int_tables_number       1

loop_
  _symmetry_equiv_pos_as_xyz
  'x, y, z'

loop_
  _atom_site_label
  _atom_site_occupancy
  _atom_site_fract_x
  _atom_site_fract_y
  _atom_site_fract_z
  _atom_site_thermal_displace_type
  _atom_site_B_iso_or_equiv
  _atom_site_type_symbol
  Cu1      1.0000 0.61555  0.13184  0.49992  Biso   1.000  Cu
  Cu2      1.0000 0.38445  0.13184  0.00008  Biso   1.000  Cu
  Cu3      1.0000 0.11555  0.63184  0.49992  Biso   1.000  Cu
  Cu4      1.0000 0.88445  0.63184  0.00008  Biso   1.000  Cu
  Cu5      1.0000 0.38445  0.86816  0.50008  Biso   1.000  Cu
  Cu6      1.0000 0.61555  0.86816  0.99992  Biso   1.000  Cu
  Cu7      1.0000 0.88445  0.36816  0.50008  Biso   1.000  Cu
  Cu8      1.0000 0.11555  0.36816  0.99992  Biso   1.000  Cu
  Cu9      1.0000 0.36527  0.38222  0.49793  Biso   1.000  Cu
  Cu10     1.0000 0.63473  0.38222  0.00207  Biso   1.000  Cu
  Cu11     1.0000 0.86527  0.88222  0.49793  Biso   1.000  Cu
  Cu12     1.0000 0.13473  0.88222  0.00207  Biso   1.000  Cu
  Cu13     1.0000 0.63473  0.61778  0.50207  Biso   1.000  Cu
  Cu14     1.0000 0.36527  0.61778  0.99793  Biso   1.000  Cu
  Cu15     1.0000 0.13473  0.11778  0.50207  Biso   1.000  Cu
  Cu16     1.0000 0.86527  0.11778  0.99793  Biso   1.000  Cu
  W1       1.0000 0.49490  0.25115  0.51799  Biso   1.000  W
  W2       1.0000 0.50510  0.25115  0.98201  Biso   1.000  W
  W3       1.0000 0.99490  0.75115  0.51799  Biso   1.000  W
  W4       1.0000 0.00510  0.75115  0.98201  Biso   1.000  W
  W5       1.0000 0.50510  0.74885  0.48201  Biso   1.000  W
  W6       1.0000 0.49490  0.74885  0.01799  Biso   1.000  W
  W7       1.0000 0.00510  0.24885  0.48201  Biso   1.000  W
  W8       1.0000 0.99490  0.24885  0.01799  Biso   1.000  W
  W9       1.0000 0.24754  0.50476  0.48256  Biso   1.000  W
  W10      1.0000 0.75246  0.50476  0.01744  Biso   1.000  W
  W11      1.0000 0.74754  0.00476  0.48256  Biso   1.000  W
  W12      1.0000 0.25246  0.00476  0.01744  Biso   1.000  W
  W13      1.0000 0.75246  0.49524  0.51744  Biso   1.000  W
  W14      1.0000 0.24754  0.49524  0.98256  Biso   1.000  W
  W15      1.0000 0.25246  0.99524  0.51744  Biso   1.000  W
  W16      1.0000 0.74754  0.99524  0.98256  Biso   1.000  W
  C1       1.0000 0.41970  0.36680  0.24190  Biso   1.000  C
  C2       1.0000 0.58030  0.36680  0.25810  Biso   1.000  C
  C3       1.0000 0.91970  0.86680  0.24190  Biso   1.000  C
  C4       1.0000 0.08030  0.86680  0.25810  Biso   1.000  C
  C5       1.0000 0.58030  0.63320  0.75810  Biso   1.000  C
  C6       1.0000 0.41970  0.63320  0.74190  Biso   1.000  C
  C7       1.0000 0.08030  0.13320  0.75810  Biso   1.000  C
  C8       1.0000 0.91970  0.13320  0.74190  Biso   1.000  C
  H1       1.0000 0.44140  0.34932  0.20056  Biso   1.000  H
  H2       1.0000 0.55860  0.34932  0.29944  Biso   1.000  H
  H3       1.0000 0.94140  0.84932  0.20056  Biso   1.000  H
  H4       1.0000 0.05860  0.84932  0.29944  Biso   1.000  H
  H5       1.0000 0.55860  0.65068  0.79944  Biso   1.000  H
  H6       1.0000 0.44140  0.65068  0.70056  Biso   1.000  H
  H7       1.0000 0.05860  0.15068  0.79944  Biso   1.000  H
  H8       1.0000 0.94140  0.15068  0.70056  Biso   1.000  H
  C9       1.0000 0.37790  0.40750  0.22470  Biso   1.000  C
  C10      1.0000 0.62210  0.40750  0.27530  Biso   1.000  C
  C11      1.0000 0.87790  0.90750  0.22470  Biso   1.000  C
  C12      1.0000 0.12210  0.90750  0.27530  Biso   1.000  C
  C13      1.0000 0.62210  0.59250  0.77530  Biso   1.000  C
  C14      1.0000 0.37790  0.59250  0.72470  Biso   1.000  C
  C15      1.0000 0.12210  0.09250  0.77530  Biso   1.000  C
  C16      1.0000 0.87790  0.09250  0.72470  Biso   1.000  C
  H9       1.0000 0.36573  0.42298  0.16900  Biso   1.000  H
  H10      1.0000 0.63427  0.42298  0.33100  Biso   1.000  H
  H11      1.0000 0.86573  0.92298  0.16900  Biso   1.000  H
  H12      1.0000 0.13427  0.92298  0.33100  Biso   1.000  H
  H13      1.0000 0.63427  0.57702  0.83100  Biso   1.000  H
  H14      1.0000 0.36573  0.57702  0.66900  Biso   1.000  H
  H15      1.0000 0.13427  0.07702  0.83100  Biso   1.000  H
  H16      1.0000 0.86573  0.07702  0.66900  Biso   1.000  H
  C17      1.0000 0.35650  0.42190  0.30540  Biso   1.000  C
  C18      1.0000 0.64350  0.42190  0.19460  Biso   1.000  C
  C19      1.0000 0.85650  0.92190  0.30540  Biso   1.000  C
  C20      1.0000 0.14350  0.92190  0.19460  Biso   1.000  C
  C21      1.0000 0.64350  0.57810  0.69460  Biso   1.000  C
  C22      1.0000 0.35650  0.57810  0.80540  Biso   1.000  C
  C23      1.0000 0.14350  0.07810  0.69460  Biso   1.000  C
  C24      1.0000 0.85650  0.07810  0.80540  Biso   1.000  C
  H17      1.0000 0.32695  0.44836  0.31275  Biso   1.000  H
  H18      1.0000 0.67305  0.44836  0.18725  Biso   1.000  H
  H19      1.0000 0.82695  0.94836  0.31275  Biso   1.000  H
  H20      1.0000 0.17305  0.94836  0.18725  Biso   1.000  H
  H21      1.0000 0.67305  0.55164  0.68725  Biso   1.000  H
  H22      1.0000 0.32695  0.55164  0.81275  Biso   1.000  H
  H23      1.0000 0.17305  0.05164  0.68725  Biso   1.000  H
  H24      1.0000 0.82695  0.05164  0.81275  Biso   1.000  H
  N1       1.0000 0.38590  0.39100  0.37090  Biso   1.000  N
  N2       1.0000 0.61410  0.39100  0.12910  Biso   1.000  N
  N3       1.0000 0.88590  0.89100  0.37090  Biso   1.000  N
  N4       1.0000 0.11410  0.89100  0.12910  Biso   1.000  N
  N5       1.0000 0.61410  0.60900  0.62910  Biso   1.000  N
  N6       1.0000 0.38590  0.60900  0.87090  Biso   1.000  N
  N7       1.0000 0.11410  0.10900  0.62910  Biso   1.000  N
  N8       1.0000 0.88590  0.10900  0.87090  Biso   1.000  N
  N9       1.0000 0.42350  0.35650  0.33100  Biso   1.000  N
  N10      1.0000 0.57650  0.35650  0.16900  Biso   1.000  N
  N11      1.0000 0.92350  0.85650  0.33100  Biso   1.000  N
  N12      1.0000 0.07650  0.85650  0.16900  Biso   1.000  N
  N13      1.0000 0.57650  0.64350  0.66900  Biso   1.000  N
  N14      1.0000 0.42350  0.64350  0.83100  Biso   1.000  N
  N15      1.0000 0.07650  0.14350  0.66900  Biso   1.000  N
  N16      1.0000 0.92350  0.14350  0.83100  Biso   1.000  N
  H25      1.0000 0.44624  0.33195  0.35848  Biso   1.000  H
  H26      1.0000 0.55376  0.33195  0.14152  Biso   1.000  H
  H27      1.0000 0.94624  0.83195  0.35848  Biso   1.000  H
  H28      1.0000 0.05376  0.83195  0.14152  Biso   1.000  H
  H29      1.0000 0.55376  0.66805  0.64152  Biso   1.000  H
  H30      1.0000 0.44624  0.66805  0.85848  Biso   1.000  H
  H31      1.0000 0.05376  0.16805  0.64152  Biso   1.000  H
  H32      1.0000 0.94624  0.16805  0.85848  Biso   1.000  H
  C25      1.0000 0.37770  0.32730  0.75940  Biso   1.000  C
  C26      1.0000 0.62230  0.32730  0.74060  Biso   1.000  C
  C27      1.0000 0.87770  0.82730  0.75940  Biso   1.000  C
  C28      1.0000 0.12230  0.82730  0.74060  Biso   1.000  C
  C29      1.0000 0.62230  0.67270  0.24060  Biso   1.000  C
  C30      1.0000 0.37770  0.67270  0.25940  Biso   1.000  C
  C31      1.0000 0.12230  0.17270  0.24060  Biso   1.000  C
  C32      1.0000 0.87770  0.17270  0.25940  Biso   1.000  C
  H33      1.0000 0.39738  0.30578  0.80481  Biso   1.000  H
  H34      1.0000 0.60262  0.30578  0.69519  Biso   1.000  H
  H35      1.0000 0.89738  0.80578  0.80481  Biso   1.000  H
  H36      1.0000 0.10262  0.80578  0.69519  Biso   1.000  H
  H37      1.0000 0.60262  0.69422  0.19519  Biso   1.000  H
  H38      1.0000 0.39738  0.69422  0.30481  Biso   1.000  H
  H39      1.0000 0.10262  0.19422  0.19519  Biso   1.000  H
  H40      1.0000 0.89738  0.19422  0.30481  Biso   1.000  H
  C33      1.0000 0.33190  0.36420  0.76760  Biso   1.000  C
  C34      1.0000 0.66810  0.36420  0.73240  Biso   1.000  C
  C35      1.0000 0.83190  0.86420  0.76760  Biso   1.000  C
  C36      1.0000 0.16810  0.86420  0.73240  Biso   1.000  C
  C37      1.0000 0.66810  0.63580  0.23240  Biso   1.000  C
  C38      1.0000 0.33190  0.63580  0.26760  Biso   1.000  C
  C39      1.0000 0.16810  0.13580  0.23240  Biso   1.000  C
  C40      1.0000 0.83190  0.13580  0.26760  Biso   1.000  C
  H41      1.0000 0.31398  0.37246  0.81940  Biso   1.000  H
  H42      1.0000 0.68602  0.37246  0.68060  Biso   1.000  H
  H43      1.0000 0.81398  0.87246  0.81940  Biso   1.000  H
  H44      1.0000 0.18602  0.87246  0.68060  Biso   1.000  H
  H45      1.0000 0.68602  0.62754  0.18060  Biso   1.000  H
  H46      1.0000 0.31398  0.62754  0.31940  Biso   1.000  H
  H47      1.0000 0.18602  0.12754  0.18060  Biso   1.000  H
  H48      1.0000 0.81398  0.12754  0.31940  Biso   1.000  H
  C41      1.0000 0.31710  0.38730  0.68340  Biso   1.000  C
  C42      1.0000 0.68290  0.38730  0.81660  Biso   1.000  C
  C43      1.0000 0.81710  0.88730  0.68340  Biso   1.000  C
  C44      1.0000 0.18290  0.88730  0.81660  Biso   1.000  C
  C45      1.0000 0.68290  0.61270  0.31660  Biso   1.000  C
  C46      1.0000 0.31710  0.61270  0.18340  Biso   1.000  C
  C47      1.0000 0.18290  0.11270  0.31660  Biso   1.000  C
  C48      1.0000 0.81710  0.11270  0.18340  Biso   1.000  C
  H49      1.0000 0.28864  0.41498  0.66991  Biso   1.000  H
  H50      1.0000 0.71136  0.41498  0.83009  Biso   1.000  H
  H51      1.0000 0.78864  0.91498  0.66991  Biso   1.000  H
  H52      1.0000 0.21136  0.91498  0.83009  Biso   1.000  H
  H53      1.0000 0.71136  0.58502  0.33009  Biso   1.000  H
  H54      1.0000 0.28864  0.58502  0.16991  Biso   1.000  H
  H55      1.0000 0.21136  0.08502  0.33009  Biso   1.000  H
  H56      1.0000 0.78864  0.08502  0.16991  Biso   1.000  H
  N17      1.0000 0.35050  0.36310  0.62480  Biso   1.000  N
  N18      1.0000 0.64950  0.36310  0.87520  Biso   1.000  N
  N19      1.0000 0.85050  0.86310  0.62480  Biso   1.000  N
  N20      1.0000 0.14950  0.86310  0.87520  Biso   1.000  N
  N21      1.0000 0.64950  0.63690  0.37520  Biso   1.000  N
  N22      1.0000 0.35050  0.63690  0.12480  Biso   1.000  N
  N23      1.0000 0.14950  0.13690  0.37520  Biso   1.000  N
  N24      1.0000 0.85050  0.13690  0.12480  Biso   1.000  N
  N25      1.0000 0.38940  0.32770  0.67270  Biso   1.000  N
  N26      1.0000 0.61060  0.32770  0.82730  Biso   1.000  N
  N27      1.0000 0.88940  0.82770  0.67270  Biso   1.000  N
  N28      1.0000 0.11060  0.82770  0.82730  Biso   1.000  N
  N29      1.0000 0.61060  0.67230  0.32730  Biso   1.000  N
  N30      1.0000 0.38940  0.67230  0.17270  Biso   1.000  N
  N31      1.0000 0.11060  0.17230  0.32730  Biso   1.000  N
  N32      1.0000 0.88940  0.17230  0.17270  Biso   1.000  N
  H57      1.0000 0.41736  0.30828  0.65116  Biso   1.000  H
  H58      1.0000 0.58264  0.30828  0.84884  Biso   1.000  H
  H59      1.0000 0.91736  0.80828  0.65116  Biso   1.000  H
  H60      1.0000 0.08264  0.80828  0.84884  Biso   1.000  H
  H61      1.0000 0.58264  0.69172  0.34884  Biso   1.000  H
  H62      1.0000 0.41736  0.69172  0.15116  Biso   1.000  H
  H63      1.0000 0.08264  0.19172  0.34884  Biso   1.000  H
  H64      1.0000 0.91736  0.19172  0.15116  Biso   1.000  H
  C49      1.0000 0.49650  0.01340  0.38350  Biso   1.000  C
  C50      1.0000 0.50350  0.01340  0.11650  Biso   1.000  C
  C51      1.0000 0.99650  0.51340  0.38350  Biso   1.000  C
  C52      1.0000 0.00350  0.51340  0.11650  Biso   1.000  C
  C53      1.0000 0.50350  0.98660  0.61650  Biso   1.000  C
  C54      1.0000 0.49650  0.98660  0.88350  Biso   1.000  C
  C55      1.0000 0.00350  0.48660  0.61650  Biso   1.000  C
  C56      1.0000 0.99650  0.48660  0.88350  Biso   1.000  C
  H65      1.0000 0.49162  0.98025  0.35875  Biso   1.000  H
  H66      1.0000 0.50838  0.98025  0.14125  Biso   1.000  H
  H67      1.0000 0.99162  0.48025  0.35875  Biso   1.000  H
  H68      1.0000 0.00838  0.48025  0.14125  Biso   1.000  H
  H69      1.0000 0.50838  0.01975  0.64125  Biso   1.000  H
  H70      1.0000 0.49162  0.01975  0.85875  Biso   1.000  H
  H71      1.0000 0.00838  0.51975  0.64125  Biso   1.000  H
  H72      1.0000 0.99162  0.51975  0.85875  Biso   1.000  H
  C57      1.0000 0.44930  0.04850  0.38770  Biso   1.000  C
  C58      1.0000 0.55070  0.04850  0.11230  Biso   1.000  C
  C59      1.0000 0.94930  0.54850  0.38770  Biso   1.000  C
  C60      1.0000 0.05070  0.54850  0.11230  Biso   1.000  C
  C61      1.0000 0.55070  0.95150  0.61230  Biso   1.000  C
  C62      1.0000 0.44930  0.95150  0.88770  Biso   1.000  C
  C63      1.0000 0.05070  0.45150  0.61230  Biso   1.000  C
  C64      1.0000 0.94930  0.45150  0.88770  Biso   1.000  C
  H73      1.0000 0.40533  0.04457  0.36699  Biso   1.000  H
  H74      1.0000 0.59467  0.04457  0.13301  Biso   1.000  H
  H75      1.0000 0.90533  0.54457  0.36699  Biso   1.000  H
  H76      1.0000 0.09467  0.54457  0.13301  Biso   1.000  H
  H77      1.0000 0.59467  0.95543  0.63301  Biso   1.000  H
  H78      1.0000 0.40533  0.95543  0.86699  Biso   1.000  H
  H79      1.0000 0.09467  0.45543  0.63301  Biso   1.000  H
  H80      1.0000 0.90533  0.45543  0.86699  Biso   1.000  H
  C65      1.0000 0.47960  0.09170  0.42950  Biso   1.000  C
  C66      1.0000 0.52040  0.09170  0.07050  Biso   1.000  C
  C67      1.0000 0.97960  0.59170  0.42950  Biso   1.000  C
  C68      1.0000 0.02040  0.59170  0.07050  Biso   1.000  C
  C69      1.0000 0.52040  0.90830  0.57050  Biso   1.000  C
  C70      1.0000 0.47960  0.90830  0.92950  Biso   1.000  C
  C71      1.0000 0.02040  0.40830  0.57050  Biso   1.000  C
  C72      1.0000 0.97960  0.40830  0.92950  Biso   1.000  C
  H81      1.0000 0.45849  0.12240  0.44145  Biso   1.000  H
  H82      1.0000 0.54151  0.12240  0.05855  Biso   1.000  H
  H83      1.0000 0.95849  0.62240  0.44145  Biso   1.000  H
  H84      1.0000 0.04151  0.62240  0.05855  Biso   1.000  H
  H85      1.0000 0.54151  0.87760  0.55855  Biso   1.000  H
  H86      1.0000 0.45849  0.87760  0.94145  Biso   1.000  H
  H87      1.0000 0.04151  0.37760  0.55855  Biso   1.000  H
  H88      1.0000 0.95849  0.37760  0.94145  Biso   1.000  H
  C73      1.0000 0.60040  0.19720  0.24490  Biso   1.000  C
  C74      1.0000 0.39960  0.19720  0.25510  Biso   1.000  C
  C75      1.0000 0.10040  0.69720  0.24490  Biso   1.000  C
  C76      1.0000 0.89960  0.69720  0.25510  Biso   1.000  C
  C77      1.0000 0.39960  0.80280  0.75510  Biso   1.000  C
  C78      1.0000 0.60040  0.80280  0.74490  Biso   1.000  C
  C79      1.0000 0.89960  0.30280  0.75510  Biso   1.000  C
  C80      1.0000 0.10040  0.30280  0.74490  Biso   1.000  C
  H89      1.0000 0.58198  0.22164  0.20338  Biso   1.000  H
  H90      1.0000 0.41802  0.22164  0.29662  Biso   1.000  H
  H91      1.0000 0.08198  0.72164  0.20338  Biso   1.000  H
  H92      1.0000 0.91802  0.72164  0.29662  Biso   1.000  H
  H93      1.0000 0.41802  0.77836  0.79662  Biso   1.000  H
  H94      1.0000 0.58198  0.77836  0.70338  Biso   1.000  H
  H95      1.0000 0.91802  0.27836  0.79662  Biso   1.000  H
  H96      1.0000 0.08198  0.27836  0.70338  Biso   1.000  H
  C81      1.0000 0.64170  0.15880  0.22960  Biso   1.000  C
  C82      1.0000 0.35830  0.15880  0.27040  Biso   1.000  C
  C83      1.0000 0.14170  0.65880  0.22960  Biso   1.000  C
  C84      1.0000 0.85830  0.65880  0.27040  Biso   1.000  C
  C85      1.0000 0.35830  0.84120  0.77040  Biso   1.000  C
  C86      1.0000 0.64170  0.84120  0.72960  Biso   1.000  C
  C87      1.0000 0.85830  0.34120  0.77040  Biso   1.000  C
  C88      1.0000 0.14170  0.34120  0.72960  Biso   1.000  C
  H97      1.0000 0.65779  0.15168  0.17603  Biso   1.000  H
  H98      1.0000 0.34221  0.15168  0.32397  Biso   1.000  H
  H99      1.0000 0.15779  0.65168  0.17603  Biso   1.000  H
  H100     1.0000 0.84221  0.65168  0.32397  Biso   1.000  H
  H101     1.0000 0.34221  0.84832  0.82397  Biso   1.000  H
  H102     1.0000 0.65779  0.84832  0.67603  Biso   1.000  H
  H103     1.0000 0.84221  0.34832  0.82397  Biso   1.000  H
  H104     1.0000 0.15779  0.34832  0.67603  Biso   1.000  H
  C89      1.0000 0.65540  0.13200  0.31030  Biso   1.000  C
  C90      1.0000 0.34460  0.13200  0.18970  Biso   1.000  C
  C91      1.0000 0.15540  0.63200  0.31030  Biso   1.000  C
  C92      1.0000 0.84460  0.63200  0.18970  Biso   1.000  C
  C93      1.0000 0.34460  0.86800  0.68970  Biso   1.000  C
  C94      1.0000 0.65540  0.86800  0.81030  Biso   1.000  C
  C95      1.0000 0.84460  0.36800  0.68970  Biso   1.000  C
  C96      1.0000 0.15540  0.36800  0.81030  Biso   1.000  C
  H105     1.0000 0.68249  0.10314  0.31946  Biso   1.000  H
  H106     1.0000 0.31751  0.10314  0.18054  Biso   1.000  H
  H107     1.0000 0.18249  0.60314  0.31946  Biso   1.000  H
  H108     1.0000 0.81751  0.60314  0.18054  Biso   1.000  H
  H109     1.0000 0.31751  0.89686  0.68054  Biso   1.000  H
  H110     1.0000 0.68249  0.89686  0.81946  Biso   1.000  H
  H111     1.0000 0.81751  0.39686  0.68054  Biso   1.000  H
  H112     1.0000 0.18249  0.39686  0.81946  Biso   1.000  H
  C97      1.0000 0.79580  0.19660  0.59080  Biso   1.000  C
  C98      1.0000 0.20420  0.19660  0.90920  Biso   1.000  C
  C99      1.0000 0.29580  0.69660  0.59080  Biso   1.000  C
  C100     1.0000 0.70420  0.69660  0.90920  Biso   1.000  C
  C101     1.0000 0.20420  0.80340  0.40920  Biso   1.000  C
  C102     1.0000 0.79580  0.80340  0.09080  Biso   1.000  C
  C103     1.0000 0.70420  0.30340  0.40920  Biso   1.000  C
  C104     1.0000 0.29580  0.30340  0.09080  Biso   1.000  C
  H113     1.0000 0.84089  0.19481  0.59891  Biso   1.000  H
  H114     1.0000 0.15911  0.19481  0.90109  Biso   1.000  H
  H115     1.0000 0.34089  0.69481  0.59891  Biso   1.000  H
  H116     1.0000 0.65911  0.69481  0.90109  Biso   1.000  H
  H117     1.0000 0.15911  0.80519  0.40109  Biso   1.000  H
  H118     1.0000 0.84089  0.80519  0.09891  Biso   1.000  H
  H119     1.0000 0.65911  0.30519  0.40109  Biso   1.000  H
  H120     1.0000 0.34089  0.30519  0.09891  Biso   1.000  H
  C105     1.0000 0.76040  0.23480  0.61890  Biso   1.000  C
  C106     1.0000 0.23960  0.23480  0.88110  Biso   1.000  C
  C107     1.0000 0.26040  0.73480  0.61890  Biso   1.000  C
  C108     1.0000 0.73960  0.73480  0.88110  Biso   1.000  C
  C109     1.0000 0.23960  0.76520  0.38110  Biso   1.000  C
  C110     1.0000 0.76040  0.76520  0.11890  Biso   1.000  C
  C111     1.0000 0.73960  0.26520  0.38110  Biso   1.000  C
  C112     1.0000 0.26040  0.26520  0.11890  Biso   1.000  C
  H121     1.0000 0.77547  0.26447  0.65049  Biso   1.000  H
  H122     1.0000 0.22453  0.26447  0.84951  Biso   1.000  H
  H123     1.0000 0.27547  0.76447  0.65049  Biso   1.000  H
  H124     1.0000 0.72453  0.76447  0.84951  Biso   1.000  H
  H125     1.0000 0.22453  0.73553  0.34951  Biso   1.000  H
  H126     1.0000 0.77547  0.73553  0.15049  Biso   1.000  H
  H127     1.0000 0.72453  0.23553  0.34951  Biso   1.000  H
  H128     1.0000 0.27547  0.23553  0.15049  Biso   1.000  H
  C113     1.0000 0.69560  0.22100  0.59100  Biso   1.000  C
  C114     1.0000 0.30440  0.22100  0.90900  Biso   1.000  C
  C115     1.0000 0.19560  0.72100  0.59100  Biso   1.000  C
  C116     1.0000 0.80440  0.72100  0.90900  Biso   1.000  C
  C117     1.0000 0.30440  0.77900  0.40900  Biso   1.000  C
  C118     1.0000 0.69560  0.77900  0.09100  Biso   1.000  C
  C119     1.0000 0.80440  0.27900  0.40900  Biso   1.000  C
  C120     1.0000 0.19560  0.27900  0.09100  Biso   1.000  C
  H129     1.0000 0.65961  0.24094  0.60010  Biso   1.000  H
  H130     1.0000 0.34039  0.24094  0.89990  Biso   1.000  H
  H131     1.0000 0.15961  0.74094  0.60010  Biso   1.000  H
  H132     1.0000 0.84039  0.74094  0.89990  Biso   1.000  H
  H133     1.0000 0.34039  0.75906  0.39990  Biso   1.000  H
  H134     1.0000 0.65961  0.75906  0.10010  Biso   1.000  H
  H135     1.0000 0.84039  0.25906  0.39990  Biso   1.000  H
  H136     1.0000 0.15961  0.25906  0.10010  Biso   1.000  H
  C121     1.0000 0.63590  0.06520  0.75340  Biso   1.000  C
  C122     1.0000 0.36410  0.06520  0.74660  Biso   1.000  C
  C123     1.0000 0.13590  0.56520  0.75340  Biso   1.000  C
  C124     1.0000 0.86410  0.56520  0.74660  Biso   1.000  C
  C125     1.0000 0.36410  0.93480  0.24660  Biso   1.000  C
  C126     1.0000 0.63590  0.93480  0.25340  Biso   1.000  C
  C127     1.0000 0.86410  0.43480  0.24660  Biso   1.000  C
  C128     1.0000 0.13590  0.43480  0.25340  Biso   1.000  C
  H137     1.0000 0.65592  0.04100  0.79411  Biso   1.000  H
  H138     1.0000 0.34408  0.04100  0.70589  Biso   1.000  H
  H139     1.0000 0.15592  0.54100  0.79411  Biso   1.000  H
  H140     1.0000 0.84408  0.54100  0.70589  Biso   1.000  H
  H141     1.0000 0.34408  0.95900  0.20589  Biso   1.000  H
  H142     1.0000 0.65592  0.95900  0.29411  Biso   1.000  H
  H143     1.0000 0.84408  0.45900  0.20589  Biso   1.000  H
  H144     1.0000 0.15592  0.45900  0.29411  Biso   1.000  H
  C129     1.0000 0.59240  0.10160  0.77020  Biso   1.000  C
  C130     1.0000 0.40760  0.10160  0.72980  Biso   1.000  C
  C131     1.0000 0.09240  0.60160  0.77020  Biso   1.000  C
  C132     1.0000 0.90760  0.60160  0.72980  Biso   1.000  C
  C133     1.0000 0.40760  0.89840  0.22980  Biso   1.000  C
  C134     1.0000 0.59240  0.89840  0.27020  Biso   1.000  C
  C135     1.0000 0.90760  0.39840  0.22980  Biso   1.000  C
  C136     1.0000 0.09240  0.39840  0.27020  Biso   1.000  C
  H145     1.0000 0.57640  0.10756  0.82426  Biso   1.000  H
  H146     1.0000 0.42360  0.10756  0.67574  Biso   1.000  H
  H147     1.0000 0.07640  0.60756  0.82426  Biso   1.000  H
  H148     1.0000 0.92360  0.60756  0.67574  Biso   1.000  H
  H149     1.0000 0.42360  0.89244  0.17574  Biso   1.000  H
  H150     1.0000 0.57640  0.89244  0.32426  Biso   1.000  H
  H151     1.0000 0.92360  0.39244  0.17574  Biso   1.000  H
  H152     1.0000 0.07640  0.39244  0.32426  Biso   1.000  H
  C137     1.0000 0.57630  0.12840  0.68980  Biso   1.000  C
  C138     1.0000 0.42370  0.12840  0.81020  Biso   1.000  C
  C139     1.0000 0.07630  0.62840  0.68980  Biso   1.000  C
  C140     1.0000 0.92370  0.62840  0.81020  Biso   1.000  C
  C141     1.0000 0.42370  0.87160  0.31020  Biso   1.000  C
  C142     1.0000 0.57630  0.87160  0.18980  Biso   1.000  C
  C143     1.0000 0.92370  0.37160  0.31020  Biso   1.000  C
  C144     1.0000 0.07630  0.37160  0.18980  Biso   1.000  C
  H153     1.0000 0.54728  0.15603  0.68147  Biso   1.000  H
  H154     1.0000 0.45272  0.15603  0.81853  Biso   1.000  H
  H155     1.0000 0.04728  0.65603  0.68147  Biso   1.000  H
  H156     1.0000 0.95272  0.65603  0.81853  Biso   1.000  H
  H157     1.0000 0.45272  0.84397  0.31853  Biso   1.000  H
  H158     1.0000 0.54728  0.84397  0.18147  Biso   1.000  H
  H159     1.0000 0.95272  0.34397  0.31853  Biso   1.000  H
  H160     1.0000 0.04728  0.34397  0.18147  Biso   1.000  H
  C145     1.0000 0.24830  0.26210  0.38360  Biso   1.000  C
  C146     1.0000 0.75170  0.26210  0.11640  Biso   1.000  C
  C147     1.0000 0.74830  0.76210  0.38360  Biso   1.000  C
  C148     1.0000 0.25170  0.76210  0.11640  Biso   1.000  C
  C149     1.0000 0.75170  0.73790  0.61640  Biso   1.000  C
  C150     1.0000 0.24830  0.73790  0.88360  Biso   1.000  C
  C151     1.0000 0.25170  0.23790  0.61640  Biso   1.000  C
  C152     1.0000 0.74830  0.23790  0.88360  Biso   1.000  C
  H161     1.0000 0.24397  0.22844  0.36060  Biso   1.000  H
  H162     1.0000 0.75603  0.22844  0.13940  Biso   1.000  H
  H163     1.0000 0.74397  0.72844  0.36060  Biso   1.000  H
  H164     1.0000 0.25603  0.72844  0.13940  Biso   1.000  H
  H165     1.0000 0.75603  0.77156  0.63940  Biso   1.000  H
  H166     1.0000 0.24397  0.77156  0.86060  Biso   1.000  H
  H167     1.0000 0.25603  0.27156  0.63940  Biso   1.000  H
  H168     1.0000 0.74397  0.27156  0.86060  Biso   1.000  H
  C153     1.0000 0.20090  0.29730  0.38350  Biso   1.000  C
  C154     1.0000 0.79910  0.29730  0.11650  Biso   1.000  C
  C155     1.0000 0.70090  0.79730  0.38350  Biso   1.000  C
  C156     1.0000 0.29910  0.79730  0.11650  Biso   1.000  C
  C157     1.0000 0.79910  0.70270  0.61650  Biso   1.000  C
  C158     1.0000 0.20090  0.70270  0.88350  Biso   1.000  C
  C159     1.0000 0.29910  0.20270  0.61650  Biso   1.000  C
  C160     1.0000 0.70090  0.20270  0.88350  Biso   1.000  C
  H169     1.0000 0.15734  0.29318  0.36057  Biso   1.000  H
  H170     1.0000 0.84266  0.29318  0.13943  Biso   1.000  H
  H171     1.0000 0.65734  0.79318  0.36057  Biso   1.000  H
  H172     1.0000 0.34266  0.79318  0.13943  Biso   1.000  H
  H173     1.0000 0.84266  0.70682  0.63943  Biso   1.000  H
  H174     1.0000 0.15734  0.70682  0.86057  Biso   1.000  H
  H175     1.0000 0.34266  0.20682  0.63943  Biso   1.000  H
  H176     1.0000 0.65734  0.20682  0.86057  Biso   1.000  H
  C161     1.0000 0.23010  0.34120  0.42460  Biso   1.000  C
  C162     1.0000 0.76990  0.34120  0.07540  Biso   1.000  C
  C163     1.0000 0.73010  0.84120  0.42460  Biso   1.000  C
  C164     1.0000 0.26990  0.84120  0.07540  Biso   1.000  C
  C165     1.0000 0.76990  0.65880  0.57540  Biso   1.000  C
  C166     1.0000 0.23010  0.65880  0.92460  Biso   1.000  C
  C167     1.0000 0.26990  0.15880  0.57540  Biso   1.000  C
  C168     1.0000 0.73010  0.15880  0.92460  Biso   1.000  C
  H177     1.0000 0.20852  0.37212  0.43387  Biso   1.000  H
  H178     1.0000 0.79148  0.37212  0.06613  Biso   1.000  H
  H179     1.0000 0.70852  0.87212  0.43387  Biso   1.000  H
  H180     1.0000 0.29148  0.87212  0.06613  Biso   1.000  H
  H181     1.0000 0.79148  0.62788  0.56613  Biso   1.000  H
  H182     1.0000 0.20852  0.62788  0.93387  Biso   1.000  H
  H183     1.0000 0.29148  0.12788  0.56613  Biso   1.000  H
  H184     1.0000 0.70852  0.12788  0.93387  Biso   1.000  H
  C169     1.0000 0.53970  0.45020  0.60990  Biso   1.000  C
  C170     1.0000 0.46030  0.45020  0.89010  Biso   1.000  C
  C171     1.0000 0.03970  0.95020  0.60990  Biso   1.000  C
  C172     1.0000 0.96030  0.95020  0.89010  Biso   1.000  C
  C173     1.0000 0.46030  0.54980  0.39010  Biso   1.000  C
  C174     1.0000 0.53970  0.54980  0.10990  Biso   1.000  C
  C175     1.0000 0.96030  0.04980  0.39010  Biso   1.000  C
  C176     1.0000 0.03970  0.04980  0.10990  Biso   1.000  C
  H185     1.0000 0.58409  0.44876  0.62891  Biso   1.000  H
  H186     1.0000 0.41591  0.44876  0.87109  Biso   1.000  H
  H187     1.0000 0.08409  0.94876  0.62891  Biso   1.000  H
  H188     1.0000 0.91591  0.94876  0.87109  Biso   1.000  H
  H189     1.0000 0.41591  0.55124  0.37109  Biso   1.000  H
  H190     1.0000 0.58409  0.55124  0.12891  Biso   1.000  H
  H191     1.0000 0.91591  0.05124  0.37109  Biso   1.000  H
  H192     1.0000 0.08409  0.05124  0.12891  Biso   1.000  H
  C177     1.0000 0.50070  0.49000  0.61960  Biso   1.000  C
  C178     1.0000 0.49930  0.49000  0.88040  Biso   1.000  C
  C179     1.0000 0.00070  0.99000  0.61960  Biso   1.000  C
  C180     1.0000 0.99930  0.99000  0.88040  Biso   1.000  C
  C181     1.0000 0.49930  0.51000  0.38040  Biso   1.000  C
  C182     1.0000 0.50070  0.51000  0.11960  Biso   1.000  C
  C183     1.0000 0.99930  0.01000  0.38040  Biso   1.000  C
  C184     1.0000 0.00070  0.01000  0.11960  Biso   1.000  C
  H193     1.0000 0.51223  0.52151  0.64771  Biso   1.000  H
  H194     1.0000 0.48777  0.52151  0.85229  Biso   1.000  H
  H195     1.0000 0.01223  0.02151  0.64771  Biso   1.000  H
  H196     1.0000 0.98777  0.02151  0.85229  Biso   1.000  H
  H197     1.0000 0.48777  0.47849  0.35229  Biso   1.000  H
  H198     1.0000 0.51223  0.47849  0.14771  Biso   1.000  H
  H199     1.0000 0.98777  0.97849  0.35229  Biso   1.000  H
  H200     1.0000 0.01223  0.97849  0.14771  Biso   1.000  H
  C185     1.0000 0.44000  0.47560  0.58000  Biso   1.000  C
  C186     1.0000 0.56000  0.47560  0.92000  Biso   1.000  C
  C187     1.0000 0.94000  0.97560  0.58000  Biso   1.000  C
  C188     1.0000 0.06000  0.97560  0.92000  Biso   1.000  C
  C189     1.0000 0.56000  0.52440  0.42000  Biso   1.000  C
  C190     1.0000 0.44000  0.52440  0.08000  Biso   1.000  C
  C191     1.0000 0.06000  0.02440  0.42000  Biso   1.000  C
  C192     1.0000 0.94000  0.02440  0.08000  Biso   1.000  C
  H201     1.0000 0.40332  0.49668  0.57551  Biso   1.000  H
  H202     1.0000 0.59668  0.49668  0.92449  Biso   1.000  H
  H203     1.0000 0.90332  0.99668  0.57551  Biso   1.000  H
  H204     1.0000 0.09668  0.99668  0.92449  Biso   1.000  H
  H205     1.0000 0.59668  0.50332  0.42449  Biso   1.000  H
  H206     1.0000 0.40332  0.50332  0.07551  Biso   1.000  H
  H207     1.0000 0.09668  0.00332  0.42449  Biso   1.000  H
  H208     1.0000 0.90332  0.00332  0.07551  Biso   1.000  H
  N33      1.0000 0.54245  0.08367  0.45000  Biso   1.000  N
  N34      1.0000 0.45755  0.08367  0.05000  Biso   1.000  N
  N35      1.0000 0.04245  0.58367  0.45000  Biso   1.000  N
  N36      1.0000 0.95755  0.58367  0.05000  Biso   1.000  N
  N37      1.0000 0.45755  0.91633  0.55000  Biso   1.000  N
  N38      1.0000 0.54245  0.91633  0.95000  Biso   1.000  N
  N39      1.0000 0.95755  0.41633  0.55000  Biso   1.000  N
  N40      1.0000 0.04245  0.41633  0.95000  Biso   1.000  N
  N41      1.0000 0.55210  0.03488  0.42140  Biso   1.000  N
  N42      1.0000 0.44790  0.03488  0.07860  Biso   1.000  N
  N43      1.0000 0.05210  0.53488  0.42140  Biso   1.000  N
  N44      1.0000 0.94790  0.53488  0.07860  Biso   1.000  N
  N45      1.0000 0.44790  0.96512  0.57860  Biso   1.000  N
  N46      1.0000 0.55210  0.96512  0.92140  Biso   1.000  N
  N47      1.0000 0.94790  0.46512  0.57860  Biso   1.000  N
  N48      1.0000 0.05210  0.46512  0.92140  Biso   1.000  N
  H209     1.0000 0.58917  0.01951  0.42686  Biso   1.000  H
  H210     1.0000 0.41083  0.01951  0.07314  Biso   1.000  H
  H211     1.0000 0.08917  0.51951  0.42686  Biso   1.000  H
  H212     1.0000 0.91083  0.51951  0.07314  Biso   1.000  H
  H213     1.0000 0.41083  0.98049  0.57314  Biso   1.000  H
  H214     1.0000 0.58917  0.98049  0.92686  Biso   1.000  H
  H215     1.0000 0.91083  0.48049  0.57314  Biso   1.000  H
  H216     1.0000 0.08917  0.48049  0.92686  Biso   1.000  H
  N49      1.0000 0.62389  0.15373  0.37270  Biso   1.000  N
  N50      1.0000 0.37611  0.15373  0.12730  Biso   1.000  N
  N51      1.0000 0.12389  0.65373  0.37270  Biso   1.000  N
  N52      1.0000 0.87611  0.65373  0.12730  Biso   1.000  N
  N53      1.0000 0.37611  0.84627  0.62730  Biso   1.000  N
  N54      1.0000 0.62389  0.84627  0.87270  Biso   1.000  N
  N55      1.0000 0.87611  0.34627  0.62730  Biso   1.000  N
  N56      1.0000 0.12389  0.34627  0.87270  Biso   1.000  N
  N57      1.0000 0.59070  0.19384  0.33050  Biso   1.000  N
  N58      1.0000 0.40930  0.19384  0.16950  Biso   1.000  N
  N59      1.0000 0.09070  0.69384  0.33050  Biso   1.000  N
  N60      1.0000 0.90930  0.69384  0.16950  Biso   1.000  N
  N61      1.0000 0.40930  0.80616  0.66950  Biso   1.000  N
  N62      1.0000 0.59070  0.80616  0.83050  Biso   1.000  N
  N63      1.0000 0.90930  0.30616  0.66950  Biso   1.000  N
  N64      1.0000 0.09070  0.30616  0.83050  Biso   1.000  N
  H217     1.0000 0.56626  0.21467  0.35591  Biso   1.000  H
  H218     1.0000 0.43374  0.21467  0.14409  Biso   1.000  H
  H219     1.0000 0.06626  0.71467  0.35591  Biso   1.000  H
  H220     1.0000 0.93374  0.71467  0.14409  Biso   1.000  H
  H221     1.0000 0.43374  0.78533  0.64409  Biso   1.000  H
  H222     1.0000 0.56626  0.78533  0.85591  Biso   1.000  H
  H223     1.0000 0.93374  0.28533  0.64409  Biso   1.000  H
  H224     1.0000 0.06626  0.28533  0.85591  Biso   1.000  H
  N65      1.0000 0.69342  0.17536  0.54960  Biso   1.000  N
  N66      1.0000 0.30658  0.17536  0.95040  Biso   1.000  N
  N67      1.0000 0.19342  0.67536  0.54960  Biso   1.000  N
  N68      1.0000 0.80658  0.67536  0.95040  Biso   1.000  N
  N69      1.0000 0.30658  0.82464  0.45040  Biso   1.000  N
  N70      1.0000 0.69342  0.82464  0.04960  Biso   1.000  N
  N71      1.0000 0.80658  0.32464  0.45040  Biso   1.000  N
  N72      1.0000 0.19342  0.32464  0.04960  Biso   1.000  N
  N73      1.0000 0.75530  0.16100  0.54850  Biso   1.000  N
  N74      1.0000 0.24470  0.16100  0.95150  Biso   1.000  N
  N75      1.0000 0.25530  0.66100  0.54850  Biso   1.000  N
  N76      1.0000 0.74470  0.66100  0.95150  Biso   1.000  N
  N77      1.0000 0.24470  0.83900  0.45150  Biso   1.000  N
  N78      1.0000 0.75530  0.83900  0.04850  Biso   1.000  N
  N79      1.0000 0.74470  0.33900  0.45150  Biso   1.000  N
  N80      1.0000 0.25530  0.33900  0.04850  Biso   1.000  N
  H225     1.0000 0.76744  0.13294  0.52422  Biso   1.000  H
  H226     1.0000 0.23256  0.13294  0.97578  Biso   1.000  H
  H227     1.0000 0.26744  0.63294  0.52422  Biso   1.000  H
  H228     1.0000 0.73256  0.63294  0.97578  Biso   1.000  H
  H229     1.0000 0.23256  0.86706  0.47578  Biso   1.000  H
  H230     1.0000 0.76744  0.86706  0.02422  Biso   1.000  H
  H231     1.0000 0.73256  0.36706  0.47578  Biso   1.000  H
  H232     1.0000 0.26744  0.36706  0.02422  Biso   1.000  H
  N81      1.0000 0.60851  0.10873  0.62660  Biso   1.000  N
  N82      1.0000 0.39149  0.10873  0.87340  Biso   1.000  N
  N83      1.0000 0.10851  0.60873  0.62660  Biso   1.000  N
  N84      1.0000 0.89149  0.60873  0.87340  Biso   1.000  N
  N85      1.0000 0.39149  0.89127  0.37340  Biso   1.000  N
  N86      1.0000 0.60851  0.89127  0.12660  Biso   1.000  N
  N87      1.0000 0.89149  0.39127  0.37340  Biso   1.000  N
  N88      1.0000 0.10851  0.39127  0.12660  Biso   1.000  N
  N89      1.0000 0.64500  0.07023  0.66730  Biso   1.000  N
  N90      1.0000 0.35500  0.07023  0.83270  Biso   1.000  N
  N91      1.0000 0.14500  0.57023  0.66730  Biso   1.000  N
  N92      1.0000 0.85500  0.57023  0.83270  Biso   1.000  N
  N93      1.0000 0.35500  0.92977  0.33270  Biso   1.000  N
  N94      1.0000 0.64500  0.92977  0.16730  Biso   1.000  N
  N95      1.0000 0.85500  0.42977  0.33270  Biso   1.000  N
  N96      1.0000 0.14500  0.42977  0.16730  Biso   1.000  N
  H233     1.0000 0.67104  0.05119  0.64130  Biso   1.000  H
  H234     1.0000 0.32896  0.05119  0.85870  Biso   1.000  H
  H235     1.0000 0.17104  0.55119  0.64130  Biso   1.000  H
  H236     1.0000 0.82896  0.55119  0.85870  Biso   1.000  H
  H237     1.0000 0.32896  0.94881  0.35870  Biso   1.000  H
  H238     1.0000 0.67104  0.94881  0.14130  Biso   1.000  H
  H239     1.0000 0.82896  0.44881  0.35870  Biso   1.000  H
  H240     1.0000 0.17104  0.44881  0.14130  Biso   1.000  H
  N97      1.0000 0.29293  0.33320  0.44900  Biso   1.000  N
  N98      1.0000 0.70707  0.33320  0.05100  Biso   1.000  N
  N99      1.0000 0.79293  0.83320  0.44900  Biso   1.000  N
  N100     1.0000 0.20707  0.83320  0.05100  Biso   1.000  N
  N101     1.0000 0.70707  0.66680  0.55100  Biso   1.000  N
  N102     1.0000 0.29293  0.66680  0.94900  Biso   1.000  N
  N103     1.0000 0.20707  0.16680  0.55100  Biso   1.000  N
  N104     1.0000 0.79293  0.16680  0.94900  Biso   1.000  N
  N105     1.0000 0.30340  0.28413  0.42280  Biso   1.000  N
  N106     1.0000 0.69660  0.28413  0.07720  Biso   1.000  N
  N107     1.0000 0.80340  0.78413  0.42280  Biso   1.000  N
  N108     1.0000 0.19660  0.78413  0.07720  Biso   1.000  N
  N109     1.0000 0.69660  0.71587  0.57720  Biso   1.000  N
  N110     1.0000 0.30340  0.71587  0.92280  Biso   1.000  N
  N111     1.0000 0.19660  0.21587  0.57720  Biso   1.000  N
  N112     1.0000 0.80340  0.21587  0.92280  Biso   1.000  N
  H241     1.0000 0.34057  0.26888  0.43032  Biso   1.000  H
  H242     1.0000 0.65943  0.26888  0.06968  Biso   1.000  H
  H243     1.0000 0.84057  0.76888  0.43032  Biso   1.000  H
  H244     1.0000 0.15943  0.76888  0.06968  Biso   1.000  H
  H245     1.0000 0.65943  0.73112  0.56968  Biso   1.000  H
  H246     1.0000 0.34057  0.73112  0.93032  Biso   1.000  H
  H247     1.0000 0.15943  0.23112  0.56968  Biso   1.000  H
  H248     1.0000 0.84057  0.23112  0.93032  Biso   1.000  H
  N113     1.0000 0.44139  0.42725  0.54920  Biso   1.000  N
  N114     1.0000 0.55861  0.42725  0.95080  Biso   1.000  N
  N115     1.0000 0.94139  0.92725  0.54920  Biso   1.000  N
  N116     1.0000 0.05861  0.92725  0.95080  Biso   1.000  N
  N117     1.0000 0.55861  0.57275  0.45080  Biso   1.000  N
  N118     1.0000 0.44139  0.57275  0.04920  Biso   1.000  N
  N119     1.0000 0.05861  0.07275  0.45080  Biso   1.000  N
  N120     1.0000 0.94139  0.07275  0.04920  Biso   1.000  N
  N121     1.0000 0.50290  0.41210  0.56720  Biso   1.000  N
  N122     1.0000 0.49710  0.41210  0.93280  Biso   1.000  N
  N123     1.0000 0.00290  0.91210  0.56720  Biso   1.000  N
  N124     1.0000 0.99710  0.91210  0.93280  Biso   1.000  N
  N125     1.0000 0.49710  0.58790  0.43280  Biso   1.000  N
  N126     1.0000 0.50290  0.58790  0.06720  Biso   1.000  N
  N127     1.0000 0.99710  0.08790  0.43280  Biso   1.000  N
  N128     1.0000 0.00290  0.08790  0.06720  Biso   1.000  N
  H249     1.0000 0.51725  0.38213  0.55351  Biso   1.000  H
  H250     1.0000 0.48275  0.38213  0.94649  Biso   1.000  H
  H251     1.0000 0.01725  0.88213  0.55351  Biso   1.000  H
  H252     1.0000 0.98275  0.88213  0.94649  Biso   1.000  H
  H253     1.0000 0.48275  0.61787  0.44649  Biso   1.000  H
  H254     1.0000 0.51725  0.61787  0.05351  Biso   1.000  H
  H255     1.0000 0.98275  0.11787  0.44649  Biso   1.000  H
  H256     1.0000 0.01725  0.11787  0.05351  Biso   1.000  H
  O1       1.0000 0.54703  0.19817  0.51270  Biso   1.000  O
  O2       1.0000 0.45297  0.19817  0.98730  Biso   1.000  O
  O3       1.0000 0.04703  0.69817  0.51270  Biso   1.000  O
  O4       1.0000 0.95297  0.69817  0.98730  Biso   1.000  O
  O5       1.0000 0.45297  0.80183  0.48730  Biso   1.000  O
  O6       1.0000 0.54703  0.80183  0.01270  Biso   1.000  O
  O7       1.0000 0.95297  0.30183  0.48730  Biso   1.000  O
  O8       1.0000 0.04703  0.30183  0.01270  Biso   1.000  O
  O9       1.0000 0.47790  0.24596  0.62740  Biso   1.000  O
  O10      1.0000 0.52210  0.24596  0.87260  Biso   1.000  O
  O11      1.0000 0.97790  0.74596  0.62740  Biso   1.000  O
  O12      1.0000 0.02210  0.74596  0.87260  Biso   1.000  O
  O13      1.0000 0.52210  0.75404  0.37260  Biso   1.000  O
  O14      1.0000 0.47790  0.75404  0.12740  Biso   1.000  O
  O15      1.0000 0.02210  0.25404  0.37260  Biso   1.000  O
  O16      1.0000 0.97790  0.25404  0.12740  Biso   1.000  O
  O17      1.0000 0.29828  0.45037  0.49040  Biso   1.000  O
  O18      1.0000 0.70172  0.45037  0.00960  Biso   1.000  O
  O19      1.0000 0.79828  0.95037  0.49040  Biso   1.000  O
  O20      1.0000 0.20172  0.95037  0.00960  Biso   1.000  O
  O21      1.0000 0.70172  0.54963  0.50960  Biso   1.000  O
  O22      1.0000 0.29828  0.54963  0.99040  Biso   1.000  O
  O23      1.0000 0.20172  0.04963  0.50960  Biso   1.000  O
  O24      1.0000 0.79828  0.04963  0.99040  Biso   1.000  O
  O25      1.0000 0.24839  0.51765  0.36370  Biso   1.000  O
  O26      1.0000 0.75161  0.51765  0.13630  Biso   1.000  O
  O27      1.0000 0.74839  0.01765  0.36370  Biso   1.000  O
  O28      1.0000 0.25161  0.01765  0.13630  Biso   1.000  O
  O29      1.0000 0.75161  0.48235  0.63630  Biso   1.000  O
  O30      1.0000 0.24839  0.48235  0.86370  Biso   1.000  O
  O31      1.0000 0.25161  0.98235  0.63630  Biso   1.000  O
  O32      1.0000 0.74839  0.98235  0.86370  Biso   1.000  O
  F1       1.0000 0.41822  0.21637  0.46590  Biso   1.000  F
  F2       1.0000 0.58178  0.21637  0.03410  Biso   1.000  F
  F3       1.0000 0.91822  0.71637  0.46590  Biso   1.000  F
  F4       1.0000 0.08178  0.71637  0.03410  Biso   1.000  F
  F5       1.0000 0.58178  0.78363  0.53410  Biso   1.000  F
  F6       1.0000 0.41822  0.78363  0.96590  Biso   1.000  F
  F7       1.0000 0.08178  0.28363  0.53410  Biso   1.000  F
  F8       1.0000 0.91822  0.28363  0.96590  Biso   1.000  F
  F9       1.0000 0.50412  0.26978  0.38990  Biso   1.000  F
  F10      1.0000 0.49588  0.26978  0.11010  Biso   1.000  F
  F11      1.0000 0.00412  0.76978  0.38990  Biso   1.000  F
  F12      1.0000 0.99588  0.76978  0.11010  Biso   1.000  F
  F13      1.0000 0.49588  0.73022  0.61010  Biso   1.000  F
  F14      1.0000 0.50412  0.73022  0.88990  Biso   1.000  F
  F15      1.0000 0.99588  0.23022  0.61010  Biso   1.000  F
  F16      1.0000 0.00412  0.23022  0.88990  Biso   1.000  F
  F17      1.0000 0.56101  0.30201  0.54510  Biso   1.000  F
  F18      1.0000 0.43899  0.30201  0.95490  Biso   1.000  F
  F19      1.0000 0.06101  0.80201  0.54510  Biso   1.000  F
  F20      1.0000 0.93899  0.80201  0.95490  Biso   1.000  F
  F21      1.0000 0.43899  0.69799  0.45490  Biso   1.000  F
  F22      1.0000 0.56101  0.69799  0.04510  Biso   1.000  F
  F23      1.0000 0.93899  0.19799  0.45490  Biso   1.000  F
  F24      1.0000 0.06101  0.19799  0.04510  Biso   1.000  F
  F25      1.0000 0.31247  0.55483  0.51460  Biso   1.000  F
  F26      1.0000 0.68753  0.55483  0.98540  Biso   1.000  F
  F27      1.0000 0.81247  0.05483  0.51460  Biso   1.000  F
  F28      1.0000 0.18753  0.05483  0.98540  Biso   1.000  F
  F29      1.0000 0.68753  0.44517  0.48540  Biso   1.000  F
  F30      1.0000 0.31247  0.44517  0.01460  Biso   1.000  F
  F31      1.0000 0.18753  0.94517  0.48540  Biso   1.000  F
  F32      1.0000 0.81247  0.94517  0.01460  Biso   1.000  F
  F33      1.0000 0.43617  0.31406  0.50140  Biso   1.000  F
  F34      1.0000 0.56383  0.31406  0.99860  Biso   1.000  F
  F35      1.0000 0.93617  0.81406  0.50140  Biso   1.000  F
  F36      1.0000 0.06383  0.81406  0.99860  Biso   1.000  F
  F37      1.0000 0.56383  0.68594  0.49860  Biso   1.000  F
  F38      1.0000 0.43617  0.68594  0.00140  Biso   1.000  F
  F39      1.0000 0.06383  0.18594  0.49860  Biso   1.000  F
  F40      1.0000 0.93617  0.18594  0.00140  Biso   1.000  F
  F41      1.0000 0.16875  0.46761  0.45590  Biso   1.000  F
  F42      1.0000 0.83125  0.46761  0.04410  Biso   1.000  F
  F43      1.0000 0.66875  0.96761  0.45590  Biso   1.000  F
  F44      1.0000 0.33125  0.96761  0.04410  Biso   1.000  F
  F45      1.0000 0.83125  0.53239  0.54410  Biso   1.000  F
  F46      1.0000 0.16875  0.53239  0.95590  Biso   1.000  F
  F47      1.0000 0.33125  0.03239  0.54410  Biso   1.000  F
  F48      1.0000 0.66875  0.03239  0.95590  Biso   1.000  F
  F49      1.0000 0.23531  0.50099  0.60720  Biso   1.000  F
  F50      1.0000 0.76469  0.50099  0.89280  Biso   1.000  F
  F51      1.0000 0.73531  0.00099  0.60720  Biso   1.000  F
  F52      1.0000 0.26469  0.00099  0.89280  Biso   1.000  F
  F53      1.0000 0.76469  0.49901  0.39280  Biso   1.000  F
  F54      1.0000 0.23531  0.49901  0.10720  Biso   1.000  F
  F55      1.0000 0.26469  0.99901  0.39280  Biso   1.000  F
  F56      1.0000 0.73531  0.99901  0.10720  Biso   1.000  F
  F57      1.0000 0.18728  0.56572  0.48510  Biso   1.000  F
  F58      1.0000 0.81272  0.56572  0.01490  Biso   1.000  F
  F59      1.0000 0.68728  0.06572  0.48510  Biso   1.000  F
  F60      1.0000 0.31272  0.06572  0.01490  Biso   1.000  F
  F61      1.0000 0.81272  0.43428  0.51490  Biso   1.000  F
  F62      1.0000 0.18728  0.43428  0.98510  Biso   1.000  F
  F63      1.0000 0.31272  0.93428  0.51490  Biso   1.000  F
  F64      1.0000 0.68728  0.93428  0.98510  Biso   1.000  F
  C193     1.0000 0.40100  0.39890  0.22940  Biso   1.000  C
  C194     1.0000 0.59900  0.39890  0.27060  Biso   1.000  C
  C195     1.0000 0.90100  0.89890  0.22940  Biso   1.000  C
  C196     1.0000 0.09900  0.89890  0.27060  Biso   1.000  C
  C197     1.0000 0.59900  0.60110  0.77060  Biso   1.000  C
  C198     1.0000 0.40100  0.60110  0.72940  Biso   1.000  C
  C199     1.0000 0.09900  0.10110  0.77060  Biso   1.000  C
  C200     1.0000 0.90100  0.10110  0.72940  Biso   1.000  C
  H257     1.0000 0.42021  0.39038  0.17878  Biso   1.000  H
  H258     1.0000 0.57979  0.39038  0.32122  Biso   1.000  H
  H259     1.0000 0.92021  0.89038  0.17878  Biso   1.000  H
  H260     1.0000 0.07979  0.89038  0.32122  Biso   1.000  H
  H261     1.0000 0.57979  0.60962  0.82122  Biso   1.000  H
  H262     1.0000 0.42021  0.60962  0.67878  Biso   1.000  H
  H263     1.0000 0.07979  0.10962  0.82122  Biso   1.000  H
  H264     1.0000 0.92021  0.10962  0.67878  Biso   1.000  H
  C201     1.0000 0.35520  0.43550  0.23650  Biso   1.000  C
  C202     1.0000 0.64480  0.43550  0.26350  Biso   1.000  C
  C203     1.0000 0.85520  0.93550  0.23650  Biso   1.000  C
  C204     1.0000 0.14480  0.93550  0.26350  Biso   1.000  C
  C205     1.0000 0.64480  0.56450  0.76350  Biso   1.000  C
  C206     1.0000 0.35520  0.56450  0.73650  Biso   1.000  C
  C207     1.0000 0.14480  0.06450  0.76350  Biso   1.000  C
  C208     1.0000 0.85520  0.06450  0.73650  Biso   1.000  C
  H265     1.0000 0.33607  0.45643  0.18983  Biso   1.000  H
  H266     1.0000 0.66393  0.45643  0.31017  Biso   1.000  H
  H267     1.0000 0.83607  0.95643  0.18983  Biso   1.000  H
  H268     1.0000 0.16393  0.95643  0.31017  Biso   1.000  H
  H269     1.0000 0.66393  0.54357  0.81017  Biso   1.000  H
  H270     1.0000 0.33607  0.54357  0.68983  Biso   1.000  H
  H271     1.0000 0.16393  0.04357  0.81017  Biso   1.000  H
  H272     1.0000 0.83607  0.04357  0.68983  Biso   1.000  H
  C209     1.0000 0.34140  0.43690  0.32230  Biso   1.000  C
  C210     1.0000 0.65860  0.43690  0.17770  Biso   1.000  C
  C211     1.0000 0.84140  0.93690  0.32230  Biso   1.000  C
  C212     1.0000 0.15860  0.93690  0.17770  Biso   1.000  C
  C213     1.0000 0.65860  0.56310  0.67770  Biso   1.000  C
  C214     1.0000 0.34140  0.56310  0.82230  Biso   1.000  C
  C215     1.0000 0.15860  0.06310  0.67770  Biso   1.000  C
  C216     1.0000 0.84140  0.06310  0.82230  Biso   1.000  C
  H273     1.0000 0.31251  0.45974  0.34426  Biso   1.000  H
  H274     1.0000 0.68749  0.45974  0.15574  Biso   1.000  H
  H275     1.0000 0.81251  0.95974  0.34426  Biso   1.000  H
  H276     1.0000 0.18749  0.95974  0.15574  Biso   1.000  H
  H277     1.0000 0.68749  0.54026  0.65574  Biso   1.000  H
  H278     1.0000 0.31251  0.54026  0.84426  Biso   1.000  H
  H279     1.0000 0.18749  0.04026  0.65574  Biso   1.000  H
  H280     1.0000 0.81251  0.04026  0.84426  Biso   1.000  H
  N129     1.0000 0.37590  0.40030  0.36980  Biso   1.000  N
  N130     1.0000 0.62410  0.40030  0.13020  Biso   1.000  N
  N131     1.0000 0.87590  0.90030  0.36980  Biso   1.000  N
  N132     1.0000 0.12410  0.90030  0.13020  Biso   1.000  N
  N133     1.0000 0.62410  0.59970  0.63020  Biso   1.000  N
  N134     1.0000 0.37590  0.59970  0.86980  Biso   1.000  N
  N135     1.0000 0.12410  0.09970  0.63020  Biso   1.000  N
  N136     1.0000 0.87590  0.09970  0.86980  Biso   1.000  N
  N137     1.0000 0.41310  0.37680  0.31390  Biso   1.000  N
  N138     1.0000 0.58690  0.37680  0.18610  Biso   1.000  N
  N139     1.0000 0.91310  0.87680  0.31390  Biso   1.000  N
  N140     1.0000 0.08690  0.87680  0.18610  Biso   1.000  N
  N141     1.0000 0.58690  0.62320  0.68610  Biso   1.000  N
  N142     1.0000 0.41310  0.62320  0.81390  Biso   1.000  N
  N143     1.0000 0.08690  0.12320  0.68610  Biso   1.000  N
  N144     1.0000 0.91310  0.12320  0.81390  Biso   1.000  N
  H281     1.0000 0.44018  0.35196  0.32876  Biso   1.000  H
  H282     1.0000 0.55982  0.35196  0.17124  Biso   1.000  H
  H283     1.0000 0.94018  0.85196  0.32876  Biso   1.000  H
  H284     1.0000 0.05982  0.85196  0.17124  Biso   1.000  H
  H285     1.0000 0.55982  0.64804  0.67124  Biso   1.000  H
  H286     1.0000 0.44018  0.64804  0.82876  Biso   1.000  H
  H287     1.0000 0.05982  0.14804  0.67124  Biso   1.000  H
  H288     1.0000 0.94018  0.14804  0.82876  Biso   1.000  H
  C217     1.0000 0.35100  0.34980  0.76900  Biso   1.000  C
  C218     1.0000 0.64900  0.34980  0.73100  Biso   1.000  C
  C219     1.0000 0.85100  0.84980  0.76900  Biso   1.000  C
  C220     1.0000 0.14900  0.84980  0.73100  Biso   1.000  C
  C221     1.0000 0.64900  0.65020  0.23100  Biso   1.000  C
  C222     1.0000 0.35100  0.65020  0.26900  Biso   1.000  C
  C223     1.0000 0.14900  0.15020  0.23100  Biso   1.000  C
  C224     1.0000 0.85100  0.15020  0.26900  Biso   1.000  C
  H289     1.0000 0.36144  0.33225  0.82314  Biso   1.000  H
  H290     1.0000 0.63856  0.33225  0.67686  Biso   1.000  H
  H291     1.0000 0.86144  0.83225  0.82314  Biso   1.000  H
  H292     1.0000 0.13856  0.83225  0.67686  Biso   1.000  H
  H293     1.0000 0.63856  0.66775  0.17686  Biso   1.000  H
  H294     1.0000 0.36144  0.66775  0.32314  Biso   1.000  H
  H295     1.0000 0.13856  0.16775  0.17686  Biso   1.000  H
  H296     1.0000 0.86144  0.16775  0.32314  Biso   1.000  H
  C225     1.0000 0.31370  0.39290  0.75370  Biso   1.000  C
  C226     1.0000 0.68630  0.39290  0.74630  Biso   1.000  C
  C227     1.0000 0.81370  0.89290  0.75370  Biso   1.000  C
  C228     1.0000 0.18630  0.89290  0.74630  Biso   1.000  C
  C229     1.0000 0.68630  0.60710  0.24630  Biso   1.000  C
  C230     1.0000 0.31370  0.60710  0.25370  Biso   1.000  C
  C231     1.0000 0.18630  0.10710  0.24630  Biso   1.000  C
  C232     1.0000 0.81370  0.10710  0.25370  Biso   1.000  C
  H297     1.0000 0.29297  0.41036  0.79615  Biso   1.000  H
  H298     1.0000 0.70703  0.41036  0.70385  Biso   1.000  H
  H299     1.0000 0.79297  0.91036  0.79615  Biso   1.000  H
  H300     1.0000 0.20703  0.91036  0.70385  Biso   1.000  H
  H301     1.0000 0.70703  0.58964  0.20385  Biso   1.000  H
  H302     1.0000 0.29297  0.58964  0.29615  Biso   1.000  H
  H303     1.0000 0.20703  0.08964  0.20385  Biso   1.000  H
  H304     1.0000 0.79297  0.08964  0.29615  Biso   1.000  H
  C233     1.0000 0.31150  0.40630  0.66550  Biso   1.000  C
  C234     1.0000 0.68850  0.40630  0.83450  Biso   1.000  C
  C235     1.0000 0.81150  0.90630  0.66550  Biso   1.000  C
  C236     1.0000 0.18850  0.90630  0.83450  Biso   1.000  C
  C237     1.0000 0.68850  0.59370  0.33450  Biso   1.000  C
  C238     1.0000 0.31150  0.59370  0.16550  Biso   1.000  C
  C239     1.0000 0.18850  0.09370  0.33450  Biso   1.000  C
  C240     1.0000 0.81150  0.09370  0.16550  Biso   1.000  C
  H305     1.0000 0.28715  0.43351  0.63730  Biso   1.000  H
  H306     1.0000 0.71285  0.43351  0.86270  Biso   1.000  H
  H307     1.0000 0.78715  0.93351  0.63730  Biso   1.000  H
  H308     1.0000 0.21285  0.93351  0.86270  Biso   1.000  H
  H309     1.0000 0.71285  0.56649  0.36270  Biso   1.000  H
  H310     1.0000 0.28715  0.56649  0.13730  Biso   1.000  H
  H311     1.0000 0.21285  0.06649  0.36270  Biso   1.000  H
  H312     1.0000 0.78715  0.06649  0.13730  Biso   1.000  H
  N145     1.0000 0.35000  0.37410  0.62570  Biso   1.000  N
  N146     1.0000 0.65000  0.37410  0.87430  Biso   1.000  N
  N147     1.0000 0.85000  0.87410  0.62570  Biso   1.000  N
  N148     1.0000 0.15000  0.87410  0.87430  Biso   1.000  N
  N149     1.0000 0.65000  0.62590  0.37430  Biso   1.000  N
  N150     1.0000 0.35000  0.62590  0.12570  Biso   1.000  N
  N151     1.0000 0.15000  0.12590  0.37430  Biso   1.000  N
  N152     1.0000 0.85000  0.12590  0.12570  Biso   1.000  N
  N153     1.0000 0.37130  0.33760  0.68870  Biso   1.000  N
  N154     1.0000 0.62870  0.33760  0.81130  Biso   1.000  N
  N155     1.0000 0.87130  0.83760  0.68870  Biso   1.000  N
  N156     1.0000 0.12870  0.83760  0.81130  Biso   1.000  N
  N157     1.0000 0.62870  0.66240  0.31130  Biso   1.000  N
  N158     1.0000 0.37130  0.66240  0.18870  Biso   1.000  N
  N159     1.0000 0.12870  0.16240  0.31130  Biso   1.000  N
  N160     1.0000 0.87130  0.16240  0.18870  Biso   1.000  N
  H313     1.0000 0.39419  0.31078  0.67913  Biso   1.000  H
  H314     1.0000 0.60581  0.31078  0.82087  Biso   1.000  H
  H315     1.0000 0.89419  0.81078  0.67913  Biso   1.000  H
  H316     1.0000 0.10581  0.81078  0.82087  Biso   1.000  H
  H317     1.0000 0.60581  0.68922  0.32087  Biso   1.000  H
  H318     1.0000 0.39419  0.68922  0.17913  Biso   1.000  H
  H319     1.0000 0.10581  0.18922  0.32087  Biso   1.000  H
  H320     1.0000 0.89419  0.18922  0.17913  Biso   1.000  H
