data_image0
_cell_length_a       16.5866
_cell_length_b       25.4564
_cell_length_c       22.0082
_cell_angle_alpha    90
_cell_angle_beta     102.606
_cell_angle_gamma    90

_symmetry_space_group_name_H-M    "P 1"
_symmetry_int_tables_number       1

loop_
  _symmetry_equiv_pos_as_xyz
  'x, y, z'

loop_
  _atom_site_label
  _atom_site_occupancy
  _atom_site_fract_x
  _atom_site_fract_y
  _atom_site_fract_z
  _atom_site_thermal_displace_type
  _atom_site_B_iso_or_equiv
  _atom_site_type_symbol
  W1       1.0000 0.11898  0.23775  0.30116  Biso   1.000  W
  W2       1.0000 0.38102  0.73775  0.19884  Biso   1.000  W
  W3       1.0000 0.88102  0.76225  0.69884  Biso   1.000  W
  W4       1.0000 0.61898  0.26225  0.80116  Biso   1.000  W
  W5       1.0000 0.97308  0.95821  0.15241  Biso   1.000  W
  W6       1.0000 0.52692  0.45821  0.34759  Biso   1.000  W
  W7       1.0000 0.02692  0.04179  0.84759  Biso   1.000  W
  W8       1.0000 0.47308  0.54179  0.65241  Biso   1.000  W
  W9       1.0000 0.22635  0.00895  0.33002  Biso   1.000  W
  W10      1.0000 0.27365  0.50895  0.16998  Biso   1.000  W
  W11      1.0000 0.77365  0.99105  0.66998  Biso   1.000  W
  W12      1.0000 0.72635  0.49105  0.83002  Biso   1.000  W
  W13      1.0000 0.86700  0.18749  0.13520  Biso   1.000  W
  W14      1.0000 0.63300  0.68749  0.36480  Biso   1.000  W
  W15      1.0000 0.13300  0.81251  0.86480  Biso   1.000  W
  W16      1.0000 0.36700  0.31251  0.63520  Biso   1.000  W
  W17      1.0000 0.90902  0.06259  0.06260  Biso   1.000  W
  W18      1.0000 0.59098  0.56259  0.43740  Biso   1.000  W
  W19      1.0000 0.09098  0.93741  0.93740  Biso   1.000  W
  W20      1.0000 0.40902  0.43741  0.56260  Biso   1.000  W
  W21      1.0000 0.08629  0.22949  0.14492  Biso   1.000  W
  W22      1.0000 0.41371  0.72949  0.35508  Biso   1.000  W
  W23      1.0000 0.91371  0.77051  0.85508  Biso   1.000  W
  W24      1.0000 0.58629  0.27051  0.64492  Biso   1.000  W
  W25      1.0000 0.00806  0.96778  0.32314  Biso   1.000  W
  W26      1.0000 0.49194  0.46778  0.17686  Biso   1.000  W
  W27      1.0000 0.99194  0.03222  0.67686  Biso   1.000  W
  W28      1.0000 0.50806  0.53222  0.82314  Biso   1.000  W
  W29      1.0000 0.97038  0.08223  0.38853  Biso   1.000  W
  W30      1.0000 0.52962  0.58223  0.11147  Biso   1.000  W
  W31      1.0000 0.02962  0.91777  0.61147  Biso   1.000  W
  W32      1.0000 0.47038  0.41777  0.88853  Biso   1.000  W
  W33      1.0000 0.33293  0.19023  0.31537  Biso   1.000  W
  W34      1.0000 0.16707  0.69023  0.18463  Biso   1.000  W
  W35      1.0000 0.66707  0.80977  0.68463  Biso   1.000  W
  W36      1.0000 0.83293  0.30977  0.81537  Biso   1.000  W
  W37      1.0000 0.19190  0.99952  0.15938  Biso   1.000  W
  W38      1.0000 0.30810  0.49952  0.34062  Biso   1.000  W
  W39      1.0000 0.80810  0.00048  0.84062  Biso   1.000  W
  W40      1.0000 0.69190  0.50048  0.65938  Biso   1.000  W
  W41      1.0000 0.89806  0.19741  0.29018  Biso   1.000  W
  W42      1.0000 0.60194  0.69741  0.20982  Biso   1.000  W
  W43      1.0000 0.10194  0.80259  0.70982  Biso   1.000  W
  W44      1.0000 0.39806  0.30259  0.79018  Biso   1.000  W
  W45      1.0000 0.30109  0.18333  0.15829  Biso   1.000  W
  W46      1.0000 0.19891  0.68333  0.34171  Biso   1.000  W
  W47      1.0000 0.69891  0.81667  0.84171  Biso   1.000  W
  W48      1.0000 0.80109  0.31667  0.65829  Biso   1.000  W
  W49      1.0000 0.79507  0.96790  0.22817  Biso   1.000  W
  W50      1.0000 0.70493  0.46790  0.27183  Biso   1.000  W
  W51      1.0000 0.20493  0.03210  0.77183  Biso   1.000  W
  W52      1.0000 0.29507  0.53210  0.72817  Biso   1.000  W
  W53      1.0000 0.18993  0.12227  0.39745  Biso   1.000  W
  W54      1.0000 0.31007  0.62227  0.10255  Biso   1.000  W
  W55      1.0000 0.81007  0.87773  0.60255  Biso   1.000  W
  W56      1.0000 0.68993  0.37773  0.89745  Biso   1.000  W
  W57      1.0000 0.12642  0.10504  0.07138  Biso   1.000  W
  W58      1.0000 0.37358  0.60504  0.42862  Biso   1.000  W
  W59      1.0000 0.87358  0.89496  0.92862  Biso   1.000  W
  W60      1.0000 0.62642  0.39496  0.57138  Biso   1.000  W
  W61      1.0000 0.73029  0.07301  0.13776  Biso   1.000  W
  W62      1.0000 0.76971  0.57301  0.36224  Biso   1.000  W
  W63      1.0000 0.26971  0.92699  0.86224  Biso   1.000  W
  W64      1.0000 0.23029  0.42699  0.63776  Biso   1.000  W
  W65      1.0000 0.36799  0.07620  0.24732  Biso   1.000  W
  W66      1.0000 0.13201  0.57620  0.25268  Biso   1.000  W
  W67      1.0000 0.63201  0.92380  0.75268  Biso   1.000  W
  W68      1.0000 0.86799  0.42380  0.74732  Biso   1.000  W
  W69      1.0000 0.75719  0.08411  0.29433  Biso   1.000  W
  W70      1.0000 0.74281  0.58411  0.20567  Biso   1.000  W
  W71      1.0000 0.24281  0.91589  0.70567  Biso   1.000  W
  W72      1.0000 0.25719  0.41589  0.79433  Biso   1.000  W
  P1       1.0000 0.16230  0.11872  0.23390  Biso   1.000  P
  P2       1.0000 0.33770  0.61872  0.26610  Biso   1.000  P
  P3       1.0000 0.83770  0.88128  0.76610  Biso   1.000  P
  P4       1.0000 0.66230  0.38128  0.73390  Biso   1.000  P
  P5       1.0000 0.93070  0.07477  0.22495  Biso   1.000  P
  P6       1.0000 0.56930  0.57477  0.27505  Biso   1.000  P
  P7       1.0000 0.06930  0.92523  0.77505  Biso   1.000  P
  P8       1.0000 0.43070  0.42523  0.72495  Biso   1.000  P
  Cu1      1.0000 0.47835  0.30659  0.36069  Biso   1.000  Cu
  Cu2      1.0000 0.02165  0.80659  0.13931  Biso   1.000  Cu
  Cu3      1.0000 0.52165  0.69341  0.63931  Biso   1.000  Cu
  Cu4      1.0000 0.97835  0.19341  0.86069  Biso   1.000  Cu
  Cu5      1.0000 0.52189  0.09692  0.05652  Biso   1.000  Cu
  Cu6      1.0000 0.97811  0.59692  0.44348  Biso   1.000  Cu
  Cu7      1.0000 0.47811  0.90308  0.94348  Biso   1.000  Cu
  Cu8      1.0000 0.02189  0.40308  0.55652  Biso   1.000  Cu
  O1       1.0000 0.40210  0.22890  0.36540  Biso   1.000  O
  O2       1.0000 0.09790  0.72890  0.13460  Biso   1.000  O
  O3       1.0000 0.59790  0.77110  0.63460  Biso   1.000  O
  O4       1.0000 0.90210  0.27110  0.86540  Biso   1.000  O
  O5       1.0000 0.43440  0.32850  0.43380  Biso   1.000  O
  O6       1.0000 0.06560  0.82850  0.06620  Biso   1.000  O
  O7       1.0000 0.56560  0.67150  0.56620  Biso   1.000  O
  O8       1.0000 0.93440  0.17150  0.93380  Biso   1.000  O
  O9       1.0000 0.52920  0.12610  0.15110  Biso   1.000  O
  O10      1.0000 0.97080  0.62610  0.34890  Biso   1.000  O
  O11      1.0000 0.47080  0.87390  0.84890  Biso   1.000  O
  O12      1.0000 0.02920  0.37390  0.65110  Biso   1.000  O
  O13      1.0000 0.63740  0.07910  0.08300  Biso   1.000  O
  O14      1.0000 0.86260  0.57910  0.41700  Biso   1.000  O
  O15      1.0000 0.36260  0.92090  0.91700  Biso   1.000  O
  O16      1.0000 0.13740  0.42090  0.58300  Biso   1.000  O
  O17      1.0000 0.97470  0.89360  0.13170  Biso   1.000  O
  O18      1.0000 0.52530  0.39360  0.36830  Biso   1.000  O
  O19      1.0000 0.02530  0.10640  0.86830  Biso   1.000  O
  O20      1.0000 0.47470  0.60640  0.63170  Biso   1.000  O
  O21      1.0000 0.23130  0.13690  0.10390  Biso   1.000  O
  O22      1.0000 0.26870  0.63690  0.39610  Biso   1.000  O
  O23      1.0000 0.76870  0.86310  0.89610  Biso   1.000  O
  O24      1.0000 0.73130  0.36310  0.60390  Biso   1.000  O
  O25      1.0000 0.28170  0.95740  0.36580  Biso   1.000  O
  O26      1.0000 0.21830  0.45740  0.13420  Biso   1.000  O
  O27      1.0000 0.71830  0.04260  0.63420  Biso   1.000  O
  O28      1.0000 0.78170  0.54260  0.86580  Biso   1.000  O
  O29      1.0000 0.12470  0.29320  0.34670  Biso   1.000  O
  O30      1.0000 0.37530  0.79320  0.15330  Biso   1.000  O
  O31      1.0000 0.87530  0.70680  0.65330  Biso   1.000  O
  O32      1.0000 0.62470  0.20680  0.84670  Biso   1.000  O
  O33      1.0000 0.80400  0.15170  0.28670  Biso   1.000  O
  O34      1.0000 0.69600  0.65170  0.21330  Biso   1.000  O
  O35      1.0000 0.19600  0.84830  0.71330  Biso   1.000  O
  O36      1.0000 0.30400  0.34830  0.78670  Biso   1.000  O
  O37      1.0000 0.34910  0.21500  0.23650  Biso   1.000  O
  O38      1.0000 0.15090  0.71500  0.26350  Biso   1.000  O
  O39      1.0000 0.65090  0.78500  0.76350  Biso   1.000  O
  O40      1.0000 0.84910  0.28500  0.73650  Biso   1.000  O
  O41      1.0000 0.23790  0.05470  0.40120  Biso   1.000  O
  O42      1.0000 0.26210  0.55470  0.09880  Biso   1.000  O
  O43      1.0000 0.76210  0.94530  0.59880  Biso   1.000  O
  O44      1.0000 0.73790  0.44530  0.90120  Biso   1.000  O
  O45      1.0000 0.09880  0.26870  0.21990  Biso   1.000  O
  O46      1.0000 0.40120  0.76870  0.28010  Biso   1.000  O
  O47      1.0000 0.90120  0.73130  0.78010  Biso   1.000  O
  O48      1.0000 0.59880  0.23130  0.71990  Biso   1.000  O
  O49      1.0000 0.86350  0.24570  0.33150  Biso   1.000  O
  O50      1.0000 0.63650  0.74570  0.16850  Biso   1.000  O
  O51      1.0000 0.13650  0.75430  0.66850  Biso   1.000  O
  O52      1.0000 0.36350  0.25430  0.83150  Biso   1.000  O
  O53      1.0000 0.23340  0.23140  0.30190  Biso   1.000  O
  O54      1.0000 0.26660  0.73140  0.19810  Biso   1.000  O
  O55      1.0000 0.76660  0.76860  0.69810  Biso   1.000  O
  O56      1.0000 0.73340  0.26860  0.80190  Biso   1.000  O
  O57      1.0000 0.02000  0.07540  0.06410  Biso   1.000  O
  O58      1.0000 0.48000  0.57540  0.43590  Biso   1.000  O
  O59      1.0000 0.98000  0.92460  0.93590  Biso   1.000  O
  O60      1.0000 0.52000  0.42460  0.56410  Biso   1.000  O
  O61      1.0000 0.22020  0.14160  0.47300  Biso   1.000  O
  O62      1.0000 0.27980  0.64160  0.02700  Biso   1.000  O
  O63      1.0000 0.77980  0.85840  0.52700  Biso   1.000  O
  O64      1.0000 0.72020  0.35840  0.97300  Biso   1.000  O
  O65      1.0000 0.95280  0.15090  0.35180  Biso   1.000  O
  O66      1.0000 0.54720  0.65090  0.14820  Biso   1.000  O
  O67      1.0000 0.04720  0.84910  0.64820  Biso   1.000  O
  O68      1.0000 0.45280  0.34910  0.85180  Biso   1.000  O
  O69      1.0000 0.69000  0.09200  0.21110  Biso   1.000  O
  O70      1.0000 0.81000  0.59200  0.28890  Biso   1.000  O
  O71      1.0000 0.31000  0.90800  0.78890  Biso   1.000  O
  O72      1.0000 0.19000  0.40800  0.71110  Biso   1.000  O
  O73      1.0000 0.71900  0.00120  0.16050  Biso   1.000  O
  O74      1.0000 0.78100  0.50120  0.33950  Biso   1.000  O
  O75      1.0000 0.28100  0.99880  0.83950  Biso   1.000  O
  O76      1.0000 0.21900  0.49880  0.66050  Biso   1.000  O
  O77      1.0000 0.86510  0.95600  0.17320  Biso   1.000  O
  O78      1.0000 0.63490  0.45600  0.32680  Biso   1.000  O
  O79      1.0000 0.13490  0.04400  0.82680  Biso   1.000  O
  O80      1.0000 0.36510  0.54400  0.67320  Biso   1.000  O
  O81      1.0000 0.13710  0.08360  0.17730  Biso   1.000  O
  O82      1.0000 0.36290  0.58360  0.32270  Biso   1.000  O
  O83      1.0000 0.86290  0.91640  0.82270  Biso   1.000  O
  O84      1.0000 0.63710  0.41640  0.67730  Biso   1.000  O
  O85      1.0000 0.28400  0.15000  0.36990  Biso   1.000  O
  O86      1.0000 0.21600  0.65000  0.13010  Biso   1.000  O
  O87      1.0000 0.71600  0.85000  0.63010  Biso   1.000  O
  O88      1.0000 0.78400  0.35000  0.86990  Biso   1.000  O
  O89      1.0000 0.17600  0.03690  0.08260  Biso   1.000  O
  O90      1.0000 0.32400  0.53690  0.41740  Biso   1.000  O
  O91      1.0000 0.82400  0.96310  0.91740  Biso   1.000  O
  O92      1.0000 0.67600  0.46310  0.58260  Biso   1.000  O
  O93      1.0000 0.34900  0.21600  0.10860  Biso   1.000  O
  O94      1.0000 0.15100  0.71600  0.39140  Biso   1.000  O
  O95      1.0000 0.65100  0.78400  0.89140  Biso   1.000  O
  O96      1.0000 0.84900  0.28400  0.60860  Biso   1.000  O
  O97      1.0000 0.20300  0.22360  0.15540  Biso   1.000  O
  O98      1.0000 0.29700  0.72360  0.34460  Biso   1.000  O
  O99      1.0000 0.79700  0.77640  0.84460  Biso   1.000  O
  O100     1.0000 0.70300  0.27640  0.65540  Biso   1.000  O
  O101     1.0000 0.97150  0.21760  0.14630  Biso   1.000  O
  O102     1.0000 0.52850  0.71760  0.35370  Biso   1.000  O
  O103     1.0000 0.02850  0.78240  0.85370  Biso   1.000  O
  O104     1.0000 0.47150  0.28240  0.64630  Biso   1.000  O
  O105     1.0000 0.08650  0.09340  0.39800  Biso   1.000  O
  O106     1.0000 0.41350  0.59340  0.10200  Biso   1.000  O
  O107     1.0000 0.91350  0.90660  0.60200  Biso   1.000  O
  O108     1.0000 0.58650  0.40660  0.89800  Biso   1.000  O
  O109     1.0000 0.25410  0.13610  0.23720  Biso   1.000  O
  O110     1.0000 0.24590  0.63610  0.26280  Biso   1.000  O
  O111     1.0000 0.74590  0.86390  0.76280  Biso   1.000  O
  O112     1.0000 0.75410  0.36390  0.73720  Biso   1.000  O
  O113     1.0000 0.23520  0.94360  0.13990  Biso   1.000  O
  O114     1.0000 0.26480  0.44360  0.36010  Biso   1.000  O
  O115     1.0000 0.76480  0.05640  0.86010  Biso   1.000  O
  O116     1.0000 0.73520  0.55640  0.63990  Biso   1.000  O
  O117     1.0000 0.29410  0.03740  0.18720  Biso   1.000  O
  O118     1.0000 0.20590  0.53740  0.31280  Biso   1.000  O
  O119     1.0000 0.70590  0.96260  0.81280  Biso   1.000  O
  O120     1.0000 0.79410  0.46260  0.68720  Biso   1.000  O
  O121     1.0000 0.07980  0.97860  0.14340  Biso   1.000  O
  O122     1.0000 0.42020  0.47860  0.35660  Biso   1.000  O
  O123     1.0000 0.92020  0.02140  0.85660  Biso   1.000  O
  O124     1.0000 0.57980  0.52140  0.64340  Biso   1.000  O
  O125     1.0000 0.92490  0.98850  0.07460  Biso   1.000  O
  O126     1.0000 0.57510  0.48850  0.42540  Biso   1.000  O
  O127     1.0000 0.07510  0.01150  0.92540  Biso   1.000  O
  O128     1.0000 0.42490  0.51150  0.57460  Biso   1.000  O
  O129     1.0000 0.80360  0.05350  0.08920  Biso   1.000  O
  O130     1.0000 0.69640  0.55350  0.41080  Biso   1.000  O
  O131     1.0000 0.19640  0.94650  0.91080  Biso   1.000  O
  O132     1.0000 0.30360  0.44650  0.58920  Biso   1.000  O
  O133     1.0000 0.95810  0.04910  0.17130  Biso   1.000  O
  O134     1.0000 0.54190  0.54910  0.32870  Biso   1.000  O
  O135     1.0000 0.04190  0.95090  0.82870  Biso   1.000  O
  O136     1.0000 0.45810  0.45090  0.67130  Biso   1.000  O
  O137     1.0000 0.68770  0.09790  0.33830  Biso   1.000  O
  O138     1.0000 0.81230  0.59790  0.16170  Biso   1.000  O
  O139     1.0000 0.31230  0.90210  0.66170  Biso   1.000  O
  O140     1.0000 0.18770  0.40210  0.83830  Biso   1.000  O
  O141     1.0000 0.31860  0.04390  0.30770  Biso   1.000  O
  O142     1.0000 0.18140  0.54390  0.19230  Biso   1.000  O
  O143     1.0000 0.68140  0.95610  0.69230  Biso   1.000  O
  O144     1.0000 0.81860  0.45610  0.80770  Biso   1.000  O
  O145     1.0000 0.74320  0.00840  0.28270  Biso   1.000  O
  O146     1.0000 0.75680  0.50840  0.21730  Biso   1.000  O
  O147     1.0000 0.25680  0.99160  0.71730  Biso   1.000  O
  O148     1.0000 0.24320  0.49160  0.78270  Biso   1.000  O
  O149     1.0000 0.77430  0.14140  0.13980  Biso   1.000  O
  O150     1.0000 0.72570  0.64140  0.36020  Biso   1.000  O
  O151     1.0000 0.22570  0.85860  0.86020  Biso   1.000  O
  O152     1.0000 0.27430  0.35860  0.63980  Biso   1.000  O
  O153     1.0000 0.00150  0.22580  0.28690  Biso   1.000  O
  O154     1.0000 0.49850  0.72580  0.21310  Biso   1.000  O
  O155     1.0000 0.99850  0.77420  0.71310  Biso   1.000  O
  O156     1.0000 0.50150  0.27420  0.78690  Biso   1.000  O
  O157     1.0000 0.19650  0.98870  0.24660  Biso   1.000  O
  O158     1.0000 0.30350  0.48870  0.25340  Biso   1.000  O
  O159     1.0000 0.80350  0.01130  0.75340  Biso   1.000  O
  O160     1.0000 0.69650  0.51130  0.74660  Biso   1.000  O
  O161     1.0000 0.11100  0.16820  0.22790  Biso   1.000  O
  O162     1.0000 0.38900  0.66820  0.27210  Biso   1.000  O
  O163     1.0000 0.88900  0.83180  0.77210  Biso   1.000  O
  O164     1.0000 0.61100  0.33180  0.72790  Biso   1.000  O
  O165     1.0000 0.83820  0.05770  0.22120  Biso   1.000  O
  O166     1.0000 0.66180  0.55770  0.27880  Biso   1.000  O
  O167     1.0000 0.16180  0.94230  0.77880  Biso   1.000  O
  O168     1.0000 0.33820  0.44230  0.72120  Biso   1.000  O
  O169     1.0000 0.01420  0.95480  0.23950  Biso   1.000  O
  O170     1.0000 0.48580  0.45480  0.26050  Biso   1.000  O
  O171     1.0000 0.98580  0.04520  0.76050  Biso   1.000  O
  O172     1.0000 0.51420  0.54520  0.73950  Biso   1.000  O
  O173     1.0000 0.02260  0.90630  0.35610  Biso   1.000  O
  O174     1.0000 0.47740  0.40630  0.14390  Biso   1.000  O
  O175     1.0000 0.97740  0.09370  0.64390  Biso   1.000  O
  O176     1.0000 0.52260  0.59370  0.85610  Biso   1.000  O
  O177     1.0000 0.37790  0.12650  0.18300  Biso   1.000  O
  O178     1.0000 0.12210  0.62650  0.31700  Biso   1.000  O
  O179     1.0000 0.62210  0.87350  0.81700  Biso   1.000  O
  O180     1.0000 0.87790  0.37350  0.68300  Biso   1.000  O
  O181     1.0000 0.86910  0.06820  0.98440  Biso   1.000  O
  O182     1.0000 0.63090  0.56820  0.51560  Biso   1.000  O
  O183     1.0000 0.13090  0.93180  0.01560  Biso   1.000  O
  O184     1.0000 0.36910  0.43180  0.48440  Biso   1.000  O
  O185     1.0000 0.90040  0.13380  0.08670  Biso   1.000  O
  O186     1.0000 0.59960  0.63380  0.41330  Biso   1.000  O
  O187     1.0000 0.09960  0.86620  0.91330  Biso   1.000  O
  O188     1.0000 0.40040  0.36620  0.58670  Biso   1.000  O
  O189     1.0000 0.40020  0.13330  0.30560  Biso   1.000  O
  O190     1.0000 0.09980  0.63330  0.19440  Biso   1.000  O
  O191     1.0000 0.59980  0.86670  0.69440  Biso   1.000  O
  O192     1.0000 0.90020  0.36670  0.80560  Biso   1.000  O
  O193     1.0000 0.13400  0.18370  0.36060  Biso   1.000  O
  O194     1.0000 0.36600  0.68370  0.13940  Biso   1.000  O
  O195     1.0000 0.86600  0.81630  0.63940  Biso   1.000  O
  O196     1.0000 0.63400  0.31630  0.86060  Biso   1.000  O
  O197     1.0000 0.93170  0.13460  0.22010  Biso   1.000  O
  O198     1.0000 0.56830  0.63460  0.27990  Biso   1.000  O
  O199     1.0000 0.06830  0.86540  0.77990  Biso   1.000  O
  O200     1.0000 0.43170  0.36540  0.72010  Biso   1.000  O
  O201     1.0000 0.98070  0.05600  0.28800  Biso   1.000  O
  O202     1.0000 0.51930  0.55600  0.21200  Biso   1.000  O
  O203     1.0000 0.01930  0.94400  0.71200  Biso   1.000  O
  O204     1.0000 0.48070  0.44400  0.78800  Biso   1.000  O
  O205     1.0000 0.84930  0.22190  0.20900  Biso   1.000  O
  O206     1.0000 0.65070  0.72190  0.29100  Biso   1.000  O
  O207     1.0000 0.15070  0.77810  0.79100  Biso   1.000  O
  O208     1.0000 0.34930  0.27810  0.70900  Biso   1.000  O
  O209     1.0000 0.89040  0.96170  0.29240  Biso   1.000  O
  O210     1.0000 0.60960  0.46170  0.20760  Biso   1.000  O
  O211     1.0000 0.10960  0.03830  0.70760  Biso   1.000  O
  O212     1.0000 0.39040  0.53830  0.79240  Biso   1.000  O
  O213     1.0000 0.81290  0.22810  0.07910  Biso   1.000  O
  O214     1.0000 0.68710  0.72810  0.42090  Biso   1.000  O
  O215     1.0000 0.18710  0.77190  0.92090  Biso   1.000  O
  O216     1.0000 0.31290  0.27190  0.57910  Biso   1.000  O
  O217     1.0000 0.11940  0.99060  0.34020  Biso   1.000  O
  O218     1.0000 0.38060  0.49060  0.15980  Biso   1.000  O
  O219     1.0000 0.88060  0.00940  0.65980  Biso   1.000  O
  O220     1.0000 0.61940  0.50940  0.84020  Biso   1.000  O
  O221     1.0000 0.16080  0.08990  0.29500  Biso   1.000  O
  O222     1.0000 0.33920  0.58990  0.20500  Biso   1.000  O
  O223     1.0000 0.83920  0.91010  0.70500  Biso   1.000  O
  O224     1.0000 0.66080  0.41010  0.79500  Biso   1.000  O
  O225     1.0000 0.98800  0.00730  0.39230  Biso   1.000  O
  O226     1.0000 0.51200  0.50730  0.10770  Biso   1.000  O
  O227     1.0000 0.01200  0.99270  0.60770  Biso   1.000  O
  O228     1.0000 0.48800  0.49270  0.89230  Biso   1.000  O
  O229     1.0000 0.07950  0.16870  0.09420  Biso   1.000  O
  O230     1.0000 0.42050  0.66870  0.40580  Biso   1.000  O
  O231     1.0000 0.92050  0.83130  0.90580  Biso   1.000  O
  O232     1.0000 0.57950  0.33130  0.59420  Biso   1.000  O
  O233     1.0000 0.85500  0.06980  0.35480  Biso   1.000  O
  O234     1.0000 0.64500  0.56980  0.14520  Biso   1.000  O
  O235     1.0000 0.14500  0.93020  0.64520  Biso   1.000  O
  O236     1.0000 0.35500  0.43020  0.85480  Biso   1.000  O
  O237     1.0000 0.74780  0.90790  0.23000  Biso   1.000  O
  O238     1.0000 0.75220  0.40790  0.27000  Biso   1.000  O
  O239     1.0000 0.25220  0.09210  0.77000  Biso   1.000  O
  O240     1.0000 0.24780  0.59210  0.73000  Biso   1.000  O
  O241     1.0000 0.07080  0.27890  0.09210  Biso   1.000  O
  O242     1.0000 0.42920  0.77890  0.40790  Biso   1.000  O
  O243     1.0000 0.92920  0.72110  0.90790  Biso   1.000  O
  O244     1.0000 0.57080  0.22110  0.59210  Biso   1.000  O
  O245     1.0000 0.45860  0.04300  0.25380  Biso   1.000  O
  O246     1.0000 0.04140  0.54300  0.24620  Biso   1.000  O
  O247     1.0000 0.54140  0.95700  0.74620  Biso   1.000  O
  O248     1.0000 0.95860  0.45700  0.75380  Biso   1.000  O
  O249     1.0000 0.12190  0.11690  0.99470  Biso   1.000  O
  O250     1.0000 0.37810  0.61690  0.50530  Biso   1.000  O
  O251     1.0000 0.87810  0.88310  0.00530  Biso   1.000  O
  O252     1.0000 0.62190  0.38310  0.49470  Biso   1.000  O
  O253     1.0000 0.96750  0.09620  0.46400  Biso   1.000  O
  O254     1.0000 0.53250  0.59620  0.03600  Biso   1.000  O
  O255     1.0000 0.03250  0.90380  0.53600  Biso   1.000  O
  O256     1.0000 0.46750  0.40380  0.96400  Biso   1.000  O
  C1       1.0000 0.35750  0.06830  0.00230  Biso   1.000  C
  C2       1.0000 0.14250  0.56830  0.49770  Biso   1.000  C
  C3       1.0000 0.64250  0.93170  0.99770  Biso   1.000  C
  C4       1.0000 0.85750  0.43170  0.50230  Biso   1.000  C
  C5       1.0000 0.62270  0.23420  0.25260  Biso   1.000  C
  C6       1.0000 0.87730  0.73420  0.24740  Biso   1.000  C
  C7       1.0000 0.37730  0.76580  0.74740  Biso   1.000  C
  C8       1.0000 0.12270  0.26580  0.75260  Biso   1.000  C
  H1       1.0000 0.67200  0.21540  0.26010  Biso   1.000  H
  H2       1.0000 0.82800  0.71540  0.23990  Biso   1.000  H
  H3       1.0000 0.32800  0.78460  0.73990  Biso   1.000  H
  H4       1.0000 0.17200  0.28460  0.76010  Biso   1.000  H
  C9       1.0000 0.61020  0.26560  0.46870  Biso   1.000  C
  C10      1.0000 0.88980  0.76560  0.03130  Biso   1.000  C
  C11      1.0000 0.38980  0.73440  0.53130  Biso   1.000  C
  C12      1.0000 0.11020  0.23440  0.96870  Biso   1.000  C
  H5       1.0000 0.57980  0.28090  0.49480  Biso   1.000  H
  H6       1.0000 0.92020  0.78090  0.00520  Biso   1.000  H
  H7       1.0000 0.42020  0.71910  0.50520  Biso   1.000  H
  H8       1.0000 0.07980  0.21910  0.99480  Biso   1.000  H
  C13      1.0000 0.53950  0.27070  0.97650  Biso   1.000  C
  C14      1.0000 0.96050  0.77070  0.52350  Biso   1.000  C
  C15      1.0000 0.46050  0.72930  0.02350  Biso   1.000  C
  C16      1.0000 0.03950  0.22930  0.47650  Biso   1.000  C
  H9       1.0000 0.53910  0.30510  0.96210  Biso   1.000  H
  H10      1.0000 0.96090  0.80510  0.53790  Biso   1.000  H
  H11      1.0000 0.46090  0.69490  0.03790  Biso   1.000  H
  H12      1.0000 0.03910  0.19490  0.46210  Biso   1.000  H
  C17      1.0000 0.47680  0.29150  0.23320  Biso   1.000  C
  C18      1.0000 0.02320  0.79150  0.26680  Biso   1.000  C
  C19      1.0000 0.52320  0.70850  0.76680  Biso   1.000  C
  C20      1.0000 0.97680  0.20850  0.73320  Biso   1.000  C
  C21      1.0000 0.62630  0.24690  0.36790  Biso   1.000  C
  C22      1.0000 0.87370  0.74690  0.13210  Biso   1.000  C
  C23      1.0000 0.37370  0.75310  0.63210  Biso   1.000  C
  C24      1.0000 0.12630  0.25310  0.86790  Biso   1.000  C
  C25      1.0000 0.47060  0.18900  0.98700  Biso   1.000  C
  C26      1.0000 0.02940  0.68900  0.51300  Biso   1.000  C
  C27      1.0000 0.52940  0.81100  0.01300  Biso   1.000  C
  C28      1.0000 0.97060  0.31100  0.48700  Biso   1.000  C
  C29      1.0000 0.59130  0.25480  0.30190  Biso   1.000  C
  C30      1.0000 0.90870  0.75480  0.19810  Biso   1.000  C
  C31      1.0000 0.40870  0.74520  0.69810  Biso   1.000  C
  C32      1.0000 0.09130  0.24520  0.80190  Biso   1.000  C
  C33      1.0000 0.31320  0.35130  0.29440  Biso   1.000  C
  C34      1.0000 0.18680  0.85130  0.20560  Biso   1.000  C
  C35      1.0000 0.68680  0.64870  0.70560  Biso   1.000  C
  C36      1.0000 0.81320  0.14870  0.79440  Biso   1.000  C
  H13      1.0000 0.30410  0.35900  0.33370  Biso   1.000  H
  H14      1.0000 0.19590  0.85900  0.16630  Biso   1.000  H
  H15      1.0000 0.69590  0.64100  0.66630  Biso   1.000  H
  H16      1.0000 0.80410  0.14100  0.83370  Biso   1.000  H
  C37      1.0000 0.46920  0.24060  0.96590  Biso   1.000  C
  C38      1.0000 0.03080  0.74060  0.53410  Biso   1.000  C
  C39      1.0000 0.53080  0.75940  0.03410  Biso   1.000  C
  C40      1.0000 0.96920  0.25940  0.46590  Biso   1.000  C
  H17      1.0000 0.41970  0.25490  0.94410  Biso   1.000  H
  H18      1.0000 0.08030  0.75490  0.55590  Biso   1.000  H
  H19      1.0000 0.58030  0.74510  0.05590  Biso   1.000  H
  H20      1.0000 0.91970  0.24510  0.44410  Biso   1.000  H
  C41      1.0000 0.26370  0.12010  0.92960  Biso   1.000  C
  C42      1.0000 0.23630  0.62010  0.57040  Biso   1.000  C
  C43      1.0000 0.73630  0.87990  0.07040  Biso   1.000  C
  C44      1.0000 0.76370  0.37990  0.42960  Biso   1.000  C
  H21      1.0000 0.21240  0.12430  0.90280  Biso   1.000  H
  H22      1.0000 0.28760  0.62430  0.59720  Biso   1.000  H
  H23      1.0000 0.78760  0.87570  0.09720  Biso   1.000  H
  H24      1.0000 0.71240  0.37570  0.40280  Biso   1.000  H
  C45      1.0000 0.28060  0.07510  0.96280  Biso   1.000  C
  C46      1.0000 0.21940  0.57510  0.53720  Biso   1.000  C
  C47      1.0000 0.71940  0.92490  0.03720  Biso   1.000  C
  C48      1.0000 0.78060  0.42490  0.46280  Biso   1.000  C
  H25      1.0000 0.24080  0.04880  0.95910  Biso   1.000  H
  H26      1.0000 0.25920  0.54880  0.54090  Biso   1.000  H
  H27      1.0000 0.75920  0.95120  0.04090  Biso   1.000  H
  H28      1.0000 0.74080  0.45120  0.45910  Biso   1.000  H
  C49      1.0000 0.39900  0.15410  0.97560  Biso   1.000  C
  C50      1.0000 0.10100  0.65410  0.52440  Biso   1.000  C
  C51      1.0000 0.60100  0.84590  0.02440  Biso   1.000  C
  C52      1.0000 0.89900  0.34590  0.47560  Biso   1.000  C
  C53      1.0000 0.34380  0.97820  0.04390  Biso   1.000  C
  C54      1.0000 0.15620  0.47820  0.45610  Biso   1.000  C
  C55      1.0000 0.65620  0.02180  0.95610  Biso   1.000  C
  C56      1.0000 0.84380  0.52180  0.54390  Biso   1.000  C
  H29      1.0000 0.28810  0.97650  0.02440  Biso   1.000  H
  H30      1.0000 0.21190  0.47650  0.47560  Biso   1.000  H
  H31      1.0000 0.71190  0.02350  0.97560  Biso   1.000  H
  H32      1.0000 0.78810  0.52350  0.52440  Biso   1.000  H
  C57      1.0000 0.39050  0.02220  0.03930  Biso   1.000  C
  C58      1.0000 0.10950  0.52220  0.46070  Biso   1.000  C
  C59      1.0000 0.60950  0.97780  0.96070  Biso   1.000  C
  C60      1.0000 0.89050  0.47780  0.53930  Biso   1.000  C
  C61      1.0000 0.32150  0.16010  0.93500  Biso   1.000  C
  C62      1.0000 0.17850  0.66010  0.56500  Biso   1.000  C
  C63      1.0000 0.67850  0.83990  0.06500  Biso   1.000  C
  C64      1.0000 0.82150  0.33990  0.43500  Biso   1.000  C
  H33      1.0000 0.30900  0.19070  0.91190  Biso   1.000  H
  H34      1.0000 0.19100  0.69070  0.58810  Biso   1.000  H
  H35      1.0000 0.69100  0.80930  0.08810  Biso   1.000  H
  H36      1.0000 0.80900  0.30930  0.41190  Biso   1.000  H
  C65      1.0000 0.60870  0.19570  0.03190  Biso   1.000  C
  C66      1.0000 0.89130  0.69570  0.46810  Biso   1.000  C
  C67      1.0000 0.39130  0.80430  0.96810  Biso   1.000  C
  C68      1.0000 0.10870  0.30430  0.53190  Biso   1.000  C
  H37      1.0000 0.65650  0.18050  0.05520  Biso   1.000  H
  H38      1.0000 0.84350  0.68050  0.44480  Biso   1.000  H
  H39      1.0000 0.34350  0.81950  0.94480  Biso   1.000  H
  H40      1.0000 0.15650  0.31950  0.55520  Biso   1.000  H
  C69      1.0000 0.61250  0.24700  0.01050  Biso   1.000  C
  C70      1.0000 0.88750  0.74700  0.48950  Biso   1.000  C
  C71      1.0000 0.38750  0.75300  0.98950  Biso   1.000  C
  C72      1.0000 0.11250  0.25300  0.51050  Biso   1.000  C
  H41      1.0000 0.66230  0.26530  0.01840  Biso   1.000  H
  H42      1.0000 0.83770  0.76530  0.48160  Biso   1.000  H
  H43      1.0000 0.33770  0.73470  0.98160  Biso   1.000  H
  H44      1.0000 0.16230  0.23470  0.51840  Biso   1.000  H
  C73      1.0000 0.50730  0.98690  0.10070  Biso   1.000  C
  C74      1.0000 0.99270  0.48690  0.39930  Biso   1.000  C
  C75      1.0000 0.49270  0.01310  0.89930  Biso   1.000  C
  C76      1.0000 0.00730  0.51310  0.60070  Biso   1.000  C
  H45      1.0000 0.56220  0.98990  0.12150  Biso   1.000  H
  H46      1.0000 0.93780  0.48990  0.37850  Biso   1.000  H
  H47      1.0000 0.43780  0.01010  0.87850  Biso   1.000  H
  H48      1.0000 0.06220  0.51010  0.62150  Biso   1.000  H
  C77      1.0000 0.50740  0.27370  0.18290  Biso   1.000  C
  C78      1.0000 0.99260  0.77370  0.31710  Biso   1.000  C
  C79      1.0000 0.49260  0.72630  0.81710  Biso   1.000  C
  C80      1.0000 0.00740  0.22630  0.68290  Biso   1.000  C
  H49      1.0000 0.48050  0.28280  0.14270  Biso   1.000  H
  H50      1.0000 0.01950  0.78280  0.35730  Biso   1.000  H
  H51      1.0000 0.51950  0.71720  0.85730  Biso   1.000  H
  H52      1.0000 0.98050  0.21720  0.64270  Biso   1.000  H
  C81      1.0000 0.57790  0.24260  0.19240  Biso   1.000  C
  C82      1.0000 0.92210  0.74260  0.30760  Biso   1.000  C
  C83      1.0000 0.42210  0.75740  0.80760  Biso   1.000  C
  C84      1.0000 0.07790  0.25740  0.69240  Biso   1.000  C
  H53      1.0000 0.59490  0.22770  0.15870  Biso   1.000  H
  H54      1.0000 0.90510  0.72770  0.34130  Biso   1.000  H
  H55      1.0000 0.40510  0.77230  0.84130  Biso   1.000  H
  H56      1.0000 0.09490  0.27230  0.65870  Biso   1.000  H
  C85      1.0000 0.39860  0.32050  0.23250  Biso   1.000  C
  C86      1.0000 0.10140  0.82050  0.26750  Biso   1.000  C
  C87      1.0000 0.60140  0.67950  0.76750  Biso   1.000  C
  C88      1.0000 0.89860  0.17950  0.73250  Biso   1.000  C
  C89      1.0000 0.69830  0.22000  0.39150  Biso   1.000  C
  C90      1.0000 0.80170  0.72000  0.10850  Biso   1.000  C
  C91      1.0000 0.30170  0.78000  0.60850  Biso   1.000  C
  C92      1.0000 0.19830  0.28000  0.89150  Biso   1.000  C
  H57      1.0000 0.72860  0.20550  0.36480  Biso   1.000  H
  H58      1.0000 0.77140  0.70550  0.13520  Biso   1.000  H
  H59      1.0000 0.27140  0.79450  0.63520  Biso   1.000  H
  H60      1.0000 0.22860  0.29450  0.86480  Biso   1.000  H
  C93      1.0000 0.72550  0.21470  0.45610  Biso   1.000  C
  C94      1.0000 0.77450  0.71470  0.04390  Biso   1.000  C
  C95      1.0000 0.27450  0.78530  0.54390  Biso   1.000  C
  C96      1.0000 0.22550  0.28530  0.95610  Biso   1.000  C
  H61      1.0000 0.77220  0.19490  0.47290  Biso   1.000  H
  H62      1.0000 0.72780  0.69490  0.02710  Biso   1.000  H
  H63      1.0000 0.22780  0.80510  0.52710  Biso   1.000  H
  H64      1.0000 0.27220  0.30510  0.97290  Biso   1.000  H
  C97      1.0000 0.38300  0.93650  0.07890  Biso   1.000  C
  C98      1.0000 0.11700  0.43650  0.42110  Biso   1.000  C
  C99      1.0000 0.61700  0.06350  0.92110  Biso   1.000  C
  C100     1.0000 0.88300  0.56350  0.57890  Biso   1.000  C
  H65      1.0000 0.35410  0.90600  0.08360  Biso   1.000  H
  H66      1.0000 0.14590  0.40600  0.41640  Biso   1.000  H
  H67      1.0000 0.64590  0.09400  0.91640  Biso   1.000  H
  H68      1.0000 0.85410  0.59400  0.58360  Biso   1.000  H
  C101     1.0000 0.46660  0.94100  0.10690  Biso   1.000  C
  C102     1.0000 0.03340  0.44100  0.39310  Biso   1.000  C
  C103     1.0000 0.53340  0.05900  0.89310  Biso   1.000  C
  C104     1.0000 0.96660  0.55900  0.60690  Biso   1.000  C
  H69      1.0000 0.49450  0.91320  0.12960  Biso   1.000  H
  H70      1.0000 0.00550  0.41320  0.37040  Biso   1.000  H
  H71      1.0000 0.50550  0.08680  0.87040  Biso   1.000  H
  H72      1.0000 0.99450  0.58680  0.62960  Biso   1.000  H
  C105     1.0000 0.25170  0.36170  0.24210  Biso   1.000  C
  C106     1.0000 0.24830  0.86170  0.25790  Biso   1.000  C
  C107     1.0000 0.74830  0.63830  0.75790  Biso   1.000  C
  C108     1.0000 0.75170  0.13830  0.74210  Biso   1.000  C
  H73      1.0000 0.20150  0.37590  0.24620  Biso   1.000  H
  H74      1.0000 0.29850  0.87590  0.25380  Biso   1.000  H
  H75      1.0000 0.79850  0.62410  0.75380  Biso   1.000  H
  H76      1.0000 0.70150  0.12410  0.74620  Biso   1.000  H
  C109     1.0000 0.68160  0.23950  0.49450  Biso   1.000  C
  C110     1.0000 0.81840  0.73950  0.00550  Biso   1.000  C
  C111     1.0000 0.31840  0.76050  0.50550  Biso   1.000  C
  C112     1.0000 0.18160  0.26050  0.99450  Biso   1.000  C
  H77      1.0000 0.70040  0.23850  0.53750  Biso   1.000  H
  H78      1.0000 0.79960  0.73850  0.96250  Biso   1.000  H
  H79      1.0000 0.29960  0.76150  0.46250  Biso   1.000  H
  H80      1.0000 0.20040  0.26150  0.03750  Biso   1.000  H
  C113     1.0000 0.34050  0.33180  0.17930  Biso   1.000  C
  C114     1.0000 0.15950  0.83180  0.32070  Biso   1.000  C
  C115     1.0000 0.65950  0.66820  0.82070  Biso   1.000  C
  C116     1.0000 0.84050  0.16820  0.67930  Biso   1.000  C
  H81      1.0000 0.35090  0.32650  0.13990  Biso   1.000  H
  H82      1.0000 0.14910  0.82650  0.36010  Biso   1.000  H
  H83      1.0000 0.64910  0.67350  0.86010  Biso   1.000  H
  H84      1.0000 0.85090  0.17350  0.63990  Biso   1.000  H
  C117     1.0000 0.26500  0.35170  0.18750  Biso   1.000  C
  C118     1.0000 0.23500  0.85170  0.31250  Biso   1.000  C
  C119     1.0000 0.73500  0.64830  0.81250  Biso   1.000  C
  C120     1.0000 0.76500  0.14830  0.68750  Biso   1.000  C
  H85      1.0000 0.22310  0.35780  0.15260  Biso   1.000  H
  H86      1.0000 0.27690  0.85780  0.34740  Biso   1.000  H
  H87      1.0000 0.77690  0.64220  0.84740  Biso   1.000  H
  H88      1.0000 0.72310  0.14220  0.65260  Biso   1.000  H
  N1       1.0000 0.41320  0.10860  0.00680  Biso   1.000  N
  N2       1.0000 0.08680  0.60860  0.49320  Biso   1.000  N
  N3       1.0000 0.58680  0.89140  0.99320  Biso   1.000  N
  N4       1.0000 0.91320  0.39140  0.50680  Biso   1.000  N
  N5       1.0000 0.47290  0.02680  0.06680  Biso   1.000  N
  N6       1.0000 0.02710  0.52680  0.43320  Biso   1.000  N
  N7       1.0000 0.52710  0.97320  0.93320  Biso   1.000  N
  N8       1.0000 0.97290  0.47320  0.56680  Biso   1.000  N
  N9       1.0000 0.53940  0.16770  0.02040  Biso   1.000  N
  N10      1.0000 0.96060  0.66770  0.47960  Biso   1.000  N
  N11      1.0000 0.46060  0.83230  0.97960  Biso   1.000  N
  N12      1.0000 0.03940  0.33230  0.52040  Biso   1.000  N
  N13      1.0000 0.52310  0.28260  0.29110  Biso   1.000  N
  N14      1.0000 0.97690  0.78260  0.20890  Biso   1.000  N
  N15      1.0000 0.47690  0.71740  0.70890  Biso   1.000  N
  N16      1.0000 0.02310  0.21740  0.79110  Biso   1.000  N
  N17      1.0000 0.58230  0.26980  0.40640  Biso   1.000  N
  N18      1.0000 0.91770  0.76980  0.09360  Biso   1.000  N
  N19      1.0000 0.41770  0.73020  0.59360  Biso   1.000  N
  N20      1.0000 0.08230  0.23020  0.90640  Biso   1.000  N
  N21      1.0000 0.38700  0.32970  0.28910  Biso   1.000  N
  N22      1.0000 0.11300  0.82970  0.21090  Biso   1.000  N
  N23      1.0000 0.61300  0.67030  0.71090  Biso   1.000  N
  N24      1.0000 0.88700  0.17030  0.78910  Biso   1.000  N
  Cu9      1.0000 0.61894  0.95365  0.40008  Biso   1.000  Cu
  Cu10     1.0000 0.88106  0.45365  0.09992  Biso   1.000  Cu
  Cu11     1.0000 0.38106  0.04635  0.59992  Biso   1.000  Cu
  Cu12     1.0000 0.11894  0.54635  0.90008  Biso   1.000  Cu
  O257     1.0000 0.58990  0.97320  0.30030  Biso   1.000  O
  O258     1.0000 0.91010  0.47320  0.19970  Biso   1.000  O
  O259     1.0000 0.41010  0.02680  0.69970  Biso   1.000  O
  O260     1.0000 0.08990  0.52680  0.80030  Biso   1.000  O
  O261     1.0000 0.53010  0.90140  0.38980  Biso   1.000  O
  O262     1.0000 0.96990  0.40140  0.11020  Biso   1.000  O
  O263     1.0000 0.46990  0.09860  0.61020  Biso   1.000  O
  O264     1.0000 0.03010  0.59860  0.88980  Biso   1.000  O
  C121     1.0000 0.76310  0.06620  0.50860  Biso   1.000  C
  C122     1.0000 0.73690  0.56620  0.99140  Biso   1.000  C
  C123     1.0000 0.23690  0.93380  0.49140  Biso   1.000  C
  C124     1.0000 0.26310  0.43380  0.00860  Biso   1.000  C
  H89      1.0000 0.75480  0.09750  0.52810  Biso   1.000  H
  H90      1.0000 0.74520  0.59750  0.97190  Biso   1.000  H
  H91      1.0000 0.24520  0.90250  0.47190  Biso   1.000  H
  H92      1.0000 0.25480  0.40250  0.02810  Biso   1.000  H
  C125     1.0000 0.69570  0.03820  0.47150  Biso   1.000  C
  C126     1.0000 0.80430  0.53820  0.02850  Biso   1.000  C
  C127     1.0000 0.30430  0.96180  0.52850  Biso   1.000  C
  C128     1.0000 0.19570  0.46180  0.97150  Biso   1.000  C
  C129     1.0000 0.85470  0.00050  0.48640  Biso   1.000  C
  C130     1.0000 0.64530  0.50050  0.01360  Biso   1.000  C
  C131     1.0000 0.14530  0.99950  0.51360  Biso   1.000  C
  C132     1.0000 0.35470  0.49950  0.98640  Biso   1.000  C
  H93      1.0000 0.90770  0.98690  0.49070  Biso   1.000  H
  H94      1.0000 0.59230  0.48690  0.00930  Biso   1.000  H
  H95      1.0000 0.09230  0.01310  0.50930  Biso   1.000  H
  H96      1.0000 0.40770  0.51310  0.99070  Biso   1.000  H
  C133     1.0000 0.78770  0.97580  0.45100  Biso   1.000  C
  C134     1.0000 0.71230  0.47580  0.04900  Biso   1.000  C
  C135     1.0000 0.21230  0.02420  0.54900  Biso   1.000  C
  C136     1.0000 0.28770  0.52420  0.95100  Biso   1.000  C
  C137     1.0000 0.78900  0.92510  0.41680  Biso   1.000  C
  C138     1.0000 0.71100  0.42510  0.08320  Biso   1.000  C
  C139     1.0000 0.21100  0.07490  0.58320  Biso   1.000  C
  C140     1.0000 0.28900  0.57490  0.91680  Biso   1.000  C
  C141     1.0000 0.85820  0.89710  0.41120  Biso   1.000  C
  C142     1.0000 0.64180  0.39710  0.08880  Biso   1.000  C
  C143     1.0000 0.14180  0.10290  0.58880  Biso   1.000  C
  C144     1.0000 0.35820  0.60290  0.91120  Biso   1.000  C
  H97      1.0000 0.91030  0.90950  0.43040  Biso   1.000  H
  H98      1.0000 0.58970  0.40950  0.06960  Biso   1.000  H
  H99      1.0000 0.08970  0.09050  0.56960  Biso   1.000  H
  H100     1.0000 0.41030  0.59050  0.93040  Biso   1.000  H
  C145     1.0000 0.84060  0.04550  0.51470  Biso   1.000  C
  C146     1.0000 0.65940  0.54550  0.98530  Biso   1.000  C
  C147     1.0000 0.15940  0.95450  0.48530  Biso   1.000  C
  C148     1.0000 0.34060  0.45450  0.01470  Biso   1.000  C
  H101     1.0000 0.88510  0.06310  0.53930  Biso   1.000  H
  H102     1.0000 0.61490  0.56310  0.96070  Biso   1.000  H
  H103     1.0000 0.11490  0.93690  0.46070  Biso   1.000  H
  H104     1.0000 0.38510  0.43690  0.03930  Biso   1.000  H
  C149     1.0000 0.60800  0.05020  0.45920  Biso   1.000  C
  C150     1.0000 0.89200  0.55020  0.04080  Biso   1.000  C
  C151     1.0000 0.39200  0.94980  0.54080  Biso   1.000  C
  C152     1.0000 0.10800  0.44980  0.95920  Biso   1.000  C
  C153     1.0000 0.57540  0.09740  0.47600  Biso   1.000  C
  C154     1.0000 0.92460  0.59740  0.02400  Biso   1.000  C
  C155     1.0000 0.42460  0.90260  0.52400  Biso   1.000  C
  C156     1.0000 0.07540  0.40260  0.97600  Biso   1.000  C
  H105     1.0000 0.61120  0.12310  0.49630  Biso   1.000  H
  H106     1.0000 0.88880  0.62310  0.00370  Biso   1.000  H
  H107     1.0000 0.38880  0.87690  0.50370  Biso   1.000  H
  H108     1.0000 0.11120  0.37690  0.99630  Biso   1.000  H
  C157     1.0000 0.47650  0.02320  0.41780  Biso   1.000  C
  C158     1.0000 0.02350  0.52320  0.08220  Biso   1.000  C
  C159     1.0000 0.52350  0.97680  0.58220  Biso   1.000  C
  C160     1.0000 0.97650  0.47680  0.91780  Biso   1.000  C
  H109     1.0000 0.44110  0.99750  0.39690  Biso   1.000  H
  H110     1.0000 0.05890  0.49750  0.10310  Biso   1.000  H
  H111     1.0000 0.55890  0.00250  0.60310  Biso   1.000  H
  H112     1.0000 0.94110  0.50250  0.89690  Biso   1.000  H
  C161     1.0000 0.85120  0.85110  0.37760  Biso   1.000  C
  C162     1.0000 0.64880  0.35110  0.12240  Biso   1.000  C
  C163     1.0000 0.14880  0.14890  0.62240  Biso   1.000  C
  C164     1.0000 0.35120  0.64890  0.87760  Biso   1.000  C
  H113     1.0000 0.89810  0.83310  0.37250  Biso   1.000  H
  H114     1.0000 0.60190  0.33310  0.12750  Biso   1.000  H
  H115     1.0000 0.10190  0.16690  0.62750  Biso   1.000  H
  H116     1.0000 0.39810  0.66690  0.87250  Biso   1.000  H
  C165     1.0000 0.77640  0.83300  0.35270  Biso   1.000  C
  C166     1.0000 0.72360  0.33300  0.14730  Biso   1.000  C
  C167     1.0000 0.22360  0.16700  0.64730  Biso   1.000  C
  C168     1.0000 0.27640  0.66700  0.85270  Biso   1.000  C
  H117     1.0000 0.77050  0.80110  0.33160  Biso   1.000  H
  H118     1.0000 0.72950  0.30110  0.16840  Biso   1.000  H
  H119     1.0000 0.22950  0.19890  0.66840  Biso   1.000  H
  H120     1.0000 0.27050  0.69890  0.83160  Biso   1.000  H
  C169     1.0000 0.70680  0.86140  0.35810  Biso   1.000  C
  C170     1.0000 0.79320  0.36140  0.14190  Biso   1.000  C
  C171     1.0000 0.29320  0.13860  0.64190  Biso   1.000  C
  C172     1.0000 0.20680  0.63860  0.85810  Biso   1.000  C
  H121     1.0000 0.65480  0.84880  0.33900  Biso   1.000  H
  H122     1.0000 0.84520  0.34880  0.16100  Biso   1.000  H
  H123     1.0000 0.34520  0.15120  0.66100  Biso   1.000  H
  H124     1.0000 0.15480  0.65120  0.83900  Biso   1.000  H
  C173     1.0000 0.49170  0.10660  0.46330  Biso   1.000  C
  C174     1.0000 0.00830  0.60660  0.03670  Biso   1.000  C
  C175     1.0000 0.50830  0.89340  0.53670  Biso   1.000  C
  C176     1.0000 0.99170  0.39340  0.96330  Biso   1.000  C
  H125     1.0000 0.46980  0.13790  0.47440  Biso   1.000  H
  H126     1.0000 0.03020  0.63790  0.02560  Biso   1.000  H
  H127     1.0000 0.53020  0.86210  0.52560  Biso   1.000  H
  H128     1.0000 0.96980  0.36210  0.97440  Biso   1.000  H
  C177     1.0000 0.44320  0.06810  0.43400  Biso   1.000  C
  C178     1.0000 0.05680  0.56810  0.06600  Biso   1.000  C
  C179     1.0000 0.55680  0.93190  0.56600  Biso   1.000  C
  C180     1.0000 0.94320  0.43190  0.93400  Biso   1.000  C
  H129     1.0000 0.38620  0.07230  0.42470  Biso   1.000  H
  H130     1.0000 0.11380  0.57230  0.07530  Biso   1.000  H
  H131     1.0000 0.61380  0.92770  0.57530  Biso   1.000  H
  H132     1.0000 0.88620  0.42770  0.92470  Biso   1.000  H
  N25      1.0000 0.55750  0.01380  0.43010  Biso   1.000  N
  N26      1.0000 0.94250  0.51380  0.06990  Biso   1.000  N
  N27      1.0000 0.44250  0.98620  0.56990  Biso   1.000  N
  N28      1.0000 0.05750  0.48620  0.93010  Biso   1.000  N
  N29      1.0000 0.71320  0.90650  0.39010  Biso   1.000  N
  N30      1.0000 0.78680  0.40650  0.10990  Biso   1.000  N
  N31      1.0000 0.28680  0.09350  0.60990  Biso   1.000  N
  N32      1.0000 0.21320  0.59350  0.89010  Biso   1.000  N
  N33      1.0000 0.71110  0.99350  0.44440  Biso   1.000  N
  N34      1.0000 0.78890  0.49350  0.05560  Biso   1.000  N
  N35      1.0000 0.28890  0.00650  0.55560  Biso   1.000  N
  N36      1.0000 0.21110  0.50650  0.94440  Biso   1.000  N
  O265     1.0000 0.59210  0.85370  0.20160  Biso   1.000  O
  O266     1.0000 0.90790  0.35370  0.29840  Biso   1.000  O
  O267     1.0000 0.40790  0.14630  0.79840  Biso   1.000  O
  O268     1.0000 0.09210  0.64630  0.70160  Biso   1.000  O
  O269     1.0000 0.47340  0.86940  0.27610  Biso   1.000  O
  O270     1.0000 0.02660  0.36940  0.22390  Biso   1.000  O
  O271     1.0000 0.52660  0.13060  0.72390  Biso   1.000  O
  O272     1.0000 0.97340  0.63060  0.77610  Biso   1.000  O
  O273     1.0000 0.61030  0.81890  0.46500  Biso   1.000  O
  O274     1.0000 0.88970  0.31890  0.03500  Biso   1.000  O
  O275     1.0000 0.38970  0.18110  0.53500  Biso   1.000  O
  O276     1.0000 0.11030  0.68110  0.96500  Biso   1.000  O
  O277     1.0000 0.28340  0.30100  0.44620  Biso   1.000  O
  O278     1.0000 0.21660  0.80100  0.05380  Biso   1.000  O
  O279     1.0000 0.71660  0.69900  0.55380  Biso   1.000  O
  O280     1.0000 0.78340  0.19900  0.94620  Biso   1.000  O
