data_image0
_cell_length_a       26.08
_cell_length_b       28.834
_cell_length_c       12.209
_cell_angle_alpha    90
_cell_angle_beta     90
_cell_angle_gamma    90

_symmetry_space_group_name_H-M    "P 1"
_symmetry_int_tables_number       1

loop_
  _symmetry_equiv_pos_as_xyz
  'x, y, z'

loop_
  _atom_site_label
  _atom_site_occupancy
  _atom_site_fract_x
  _atom_site_fract_y
  _atom_site_fract_z
  _atom_site_thermal_displace_type
  _atom_site_B_iso_or_equiv
  _atom_site_type_symbol
  Cu1      1.0000 0.30647  0.12500  0.12500  Biso   1.000  Cu
  Cu2      1.0000 0.94353  0.12500  0.12500  Biso   1.000  Cu
  Cu3      1.0000 0.30647  0.62500  0.62500  Biso   1.000  Cu
  Cu4      1.0000 0.94353  0.62500  0.62500  Biso   1.000  Cu
  Cu5      1.0000 0.80647  0.12500  0.62500  Biso   1.000  Cu
  Cu6      1.0000 0.44353  0.12500  0.62500  Biso   1.000  Cu
  Cu7      1.0000 0.80647  0.62500  0.12500  Biso   1.000  Cu
  Cu8      1.0000 0.44353  0.62500  0.12500  Biso   1.000  Cu
  Cu9      1.0000 0.69353  0.87500  0.87500  Biso   1.000  Cu
  Cu10     1.0000 0.55647  0.37500  0.87500  Biso   1.000  Cu
  Cu11     1.0000 0.69353  0.37500  0.37500  Biso   1.000  Cu
  Cu12     1.0000 0.55647  0.87500  0.37500  Biso   1.000  Cu
  Cu13     1.0000 0.19353  0.87500  0.37500  Biso   1.000  Cu
  Cu14     1.0000 0.05647  0.37500  0.37500  Biso   1.000  Cu
  Cu15     1.0000 0.19353  0.37500  0.87500  Biso   1.000  Cu
  Cu16     1.0000 0.05647  0.87500  0.87500  Biso   1.000  Cu
  O1       1.0000 0.31580  0.17610  0.23280  Biso   1.000  O
  O2       1.0000 0.93420  0.07390  0.23280  Biso   1.000  O
  O3       1.0000 0.31580  0.07390  0.01720  Biso   1.000  O
  O4       1.0000 0.93420  0.17610  0.01720  Biso   1.000  O
  O5       1.0000 0.31580  0.67610  0.73280  Biso   1.000  O
  O6       1.0000 0.93420  0.57390  0.73280  Biso   1.000  O
  O7       1.0000 0.31580  0.57390  0.51720  Biso   1.000  O
  O8       1.0000 0.93420  0.67610  0.51720  Biso   1.000  O
  O9       1.0000 0.81580  0.17610  0.73280  Biso   1.000  O
  O10      1.0000 0.43420  0.07390  0.73280  Biso   1.000  O
  O11      1.0000 0.81580  0.07390  0.51720  Biso   1.000  O
  O12      1.0000 0.43420  0.17610  0.51720  Biso   1.000  O
  O13      1.0000 0.81580  0.67610  0.23280  Biso   1.000  O
  O14      1.0000 0.43420  0.57390  0.23280  Biso   1.000  O
  O15      1.0000 0.81580  0.57390  0.01720  Biso   1.000  O
  O16      1.0000 0.43420  0.67610  0.01720  Biso   1.000  O
  O17      1.0000 0.68420  0.82390  0.76720  Biso   1.000  O
  O18      1.0000 0.56580  0.42610  0.76720  Biso   1.000  O
  O19      1.0000 0.68420  0.42610  0.48280  Biso   1.000  O
  O20      1.0000 0.56580  0.82390  0.48280  Biso   1.000  O
  O21      1.0000 0.68420  0.32390  0.26720  Biso   1.000  O
  O22      1.0000 0.56580  0.92610  0.26720  Biso   1.000  O
  O23      1.0000 0.68420  0.92610  0.98280  Biso   1.000  O
  O24      1.0000 0.56580  0.32390  0.98280  Biso   1.000  O
  O25      1.0000 0.18420  0.82390  0.26720  Biso   1.000  O
  O26      1.0000 0.06580  0.42610  0.26720  Biso   1.000  O
  O27      1.0000 0.18420  0.42610  0.98280  Biso   1.000  O
  O28      1.0000 0.06580  0.82390  0.98280  Biso   1.000  O
  O29      1.0000 0.18420  0.32390  0.76720  Biso   1.000  O
  O30      1.0000 0.06580  0.92610  0.76720  Biso   1.000  O
  O31      1.0000 0.18420  0.92610  0.48280  Biso   1.000  O
  O32      1.0000 0.06580  0.32390  0.48280  Biso   1.000  O
  O33      1.0000 0.21720  0.12500  0.12500  Biso   1.000  O
  O34      1.0000 0.03280  0.12500  0.12500  Biso   1.000  O
  O35      1.0000 0.21720  0.62500  0.62500  Biso   1.000  O
  O36      1.0000 0.03280  0.62500  0.62500  Biso   1.000  O
  O37      1.0000 0.71720  0.12500  0.62500  Biso   1.000  O
  O38      1.0000 0.53280  0.12500  0.62500  Biso   1.000  O
  O39      1.0000 0.71720  0.62500  0.12500  Biso   1.000  O
  O40      1.0000 0.53280  0.62500  0.12500  Biso   1.000  O
  O41      1.0000 0.78280  0.87500  0.87500  Biso   1.000  O
  O42      1.0000 0.46720  0.37500  0.87500  Biso   1.000  O
  O43      1.0000 0.78280  0.37500  0.37500  Biso   1.000  O
  O44      1.0000 0.46720  0.87500  0.37500  Biso   1.000  O
  O45      1.0000 0.28280  0.87500  0.37500  Biso   1.000  O
  O46      1.0000 0.96720  0.37500  0.37500  Biso   1.000  O
  O47      1.0000 0.28280  0.37500  0.87500  Biso   1.000  O
  O48      1.0000 0.96720  0.87500  0.87500  Biso   1.000  O
  O49      1.0000 0.39840  0.12500  0.12500  Biso   1.000  O
  O50      1.0000 0.85160  0.12500  0.12500  Biso   1.000  O
  O51      1.0000 0.39840  0.62500  0.62500  Biso   1.000  O
  O52      1.0000 0.85160  0.62500  0.62500  Biso   1.000  O
  O53      1.0000 0.89840  0.12500  0.62500  Biso   1.000  O
  O54      1.0000 0.35160  0.12500  0.62500  Biso   1.000  O
  O55      1.0000 0.89840  0.62500  0.12500  Biso   1.000  O
  O56      1.0000 0.35160  0.62500  0.12500  Biso   1.000  O
  O57      1.0000 0.60160  0.87500  0.87500  Biso   1.000  O
  O58      1.0000 0.64840  0.37500  0.87500  Biso   1.000  O
  O59      1.0000 0.60160  0.37500  0.37500  Biso   1.000  O
  O60      1.0000 0.64840  0.87500  0.37500  Biso   1.000  O
  O61      1.0000 0.10160  0.87500  0.37500  Biso   1.000  O
  O62      1.0000 0.14840  0.37500  0.37500  Biso   1.000  O
  O63      1.0000 0.10160  0.37500  0.87500  Biso   1.000  O
  O64      1.0000 0.14840  0.87500  0.87500  Biso   1.000  O
  N1       1.0000 0.30760  0.17660  0.02070  Biso   1.000  N
  N2       1.0000 0.94240  0.07340  0.02070  Biso   1.000  N
  N3       1.0000 0.30760  0.07340  0.22930  Biso   1.000  N
  N4       1.0000 0.94240  0.17660  0.22930  Biso   1.000  N
  N5       1.0000 0.30760  0.67660  0.52070  Biso   1.000  N
  N6       1.0000 0.94240  0.57340  0.52070  Biso   1.000  N
  N7       1.0000 0.30760  0.57340  0.72930  Biso   1.000  N
  N8       1.0000 0.94240  0.67660  0.72930  Biso   1.000  N
  N9       1.0000 0.80760  0.17660  0.52070  Biso   1.000  N
  N10      1.0000 0.44240  0.07340  0.52070  Biso   1.000  N
  N11      1.0000 0.80760  0.07340  0.72930  Biso   1.000  N
  N12      1.0000 0.44240  0.17660  0.72930  Biso   1.000  N
  N13      1.0000 0.80760  0.67660  0.02070  Biso   1.000  N
  N14      1.0000 0.44240  0.57340  0.02070  Biso   1.000  N
  N15      1.0000 0.80760  0.57340  0.22930  Biso   1.000  N
  N16      1.0000 0.44240  0.67660  0.22930  Biso   1.000  N
  N17      1.0000 0.69240  0.82340  0.97930  Biso   1.000  N
  N18      1.0000 0.55760  0.42660  0.97930  Biso   1.000  N
  N19      1.0000 0.69240  0.42660  0.27070  Biso   1.000  N
  N20      1.0000 0.55760  0.82340  0.27070  Biso   1.000  N
  N21      1.0000 0.69240  0.32340  0.47930  Biso   1.000  N
  N22      1.0000 0.55760  0.92660  0.47930  Biso   1.000  N
  N23      1.0000 0.69240  0.92660  0.77070  Biso   1.000  N
  N24      1.0000 0.55760  0.32340  0.77070  Biso   1.000  N
  N25      1.0000 0.19240  0.82340  0.47930  Biso   1.000  N
  N26      1.0000 0.05760  0.42660  0.47930  Biso   1.000  N
  N27      1.0000 0.19240  0.42660  0.77070  Biso   1.000  N
  N28      1.0000 0.05760  0.82340  0.77070  Biso   1.000  N
  N29      1.0000 0.19240  0.32340  0.97930  Biso   1.000  N
  N30      1.0000 0.05760  0.92660  0.97930  Biso   1.000  N
  N31      1.0000 0.19240  0.92660  0.27070  Biso   1.000  N
  N32      1.0000 0.05760  0.32340  0.27070  Biso   1.000  N
  N33      1.0000 0.33770  0.25120  0.24450  Biso   1.000  N
  N34      1.0000 0.91230  0.99880  0.24450  Biso   1.000  N
  N35      1.0000 0.33770  0.99880  0.00550  Biso   1.000  N
  N36      1.0000 0.91230  0.25120  0.00550  Biso   1.000  N
  N37      1.0000 0.33770  0.75120  0.74450  Biso   1.000  N
  N38      1.0000 0.91230  0.49880  0.74450  Biso   1.000  N
  N39      1.0000 0.33770  0.49880  0.50550  Biso   1.000  N
  N40      1.0000 0.91230  0.75120  0.50550  Biso   1.000  N
  N41      1.0000 0.83770  0.25120  0.74450  Biso   1.000  N
  N42      1.0000 0.41230  0.99880  0.74450  Biso   1.000  N
  N43      1.0000 0.83770  0.99880  0.50550  Biso   1.000  N
  N44      1.0000 0.41230  0.25120  0.50550  Biso   1.000  N
  N45      1.0000 0.83770  0.75120  0.24450  Biso   1.000  N
  N46      1.0000 0.41230  0.49880  0.24450  Biso   1.000  N
  N47      1.0000 0.83770  0.49880  0.00550  Biso   1.000  N
  N48      1.0000 0.41230  0.75120  0.00550  Biso   1.000  N
  N49      1.0000 0.66230  0.74880  0.75550  Biso   1.000  N
  N50      1.0000 0.58770  0.50120  0.75550  Biso   1.000  N
  N51      1.0000 0.66230  0.50120  0.49450  Biso   1.000  N
  N52      1.0000 0.58770  0.74880  0.49450  Biso   1.000  N
  N53      1.0000 0.66230  0.24880  0.25550  Biso   1.000  N
  N54      1.0000 0.58770  0.00120  0.25550  Biso   1.000  N
  N55      1.0000 0.66230  0.00120  0.99450  Biso   1.000  N
  N56      1.0000 0.58770  0.24880  0.99450  Biso   1.000  N
  N57      1.0000 0.16230  0.74880  0.25550  Biso   1.000  N
  N58      1.0000 0.08770  0.50120  0.25550  Biso   1.000  N
  N59      1.0000 0.16230  0.50120  0.99450  Biso   1.000  N
  N60      1.0000 0.08770  0.74880  0.99450  Biso   1.000  N
  N61      1.0000 0.16230  0.24880  0.75550  Biso   1.000  N
  N62      1.0000 0.08770  0.00120  0.75550  Biso   1.000  N
  N63      1.0000 0.16230  0.00120  0.49450  Biso   1.000  N
  N64      1.0000 0.08770  0.24880  0.49450  Biso   1.000  N
  C1       1.0000 0.31690  0.21840  0.06650  Biso   1.000  C
  C2       1.0000 0.93310  0.03160  0.06650  Biso   1.000  C
  C3       1.0000 0.31690  0.03160  0.18350  Biso   1.000  C
  C4       1.0000 0.93310  0.21840  0.18350  Biso   1.000  C
  C5       1.0000 0.31690  0.71840  0.56650  Biso   1.000  C
  C6       1.0000 0.93310  0.53160  0.56650  Biso   1.000  C
  C7       1.0000 0.31690  0.53160  0.68350  Biso   1.000  C
  C8       1.0000 0.93310  0.71840  0.68350  Biso   1.000  C
  C9       1.0000 0.81690  0.21840  0.56650  Biso   1.000  C
  C10      1.0000 0.43310  0.03160  0.56650  Biso   1.000  C
  C11      1.0000 0.81690  0.03160  0.68350  Biso   1.000  C
  C12      1.0000 0.43310  0.21840  0.68350  Biso   1.000  C
  C13      1.0000 0.81690  0.71840  0.06650  Biso   1.000  C
  C14      1.0000 0.43310  0.53160  0.06650  Biso   1.000  C
  C15      1.0000 0.81690  0.53160  0.18350  Biso   1.000  C
  C16      1.0000 0.43310  0.71840  0.18350  Biso   1.000  C
  C17      1.0000 0.68310  0.78160  0.93350  Biso   1.000  C
  C18      1.0000 0.56690  0.46840  0.93350  Biso   1.000  C
  C19      1.0000 0.68310  0.46840  0.31650  Biso   1.000  C
  C20      1.0000 0.56690  0.78160  0.31650  Biso   1.000  C
  C21      1.0000 0.68310  0.28160  0.43350  Biso   1.000  C
  C22      1.0000 0.56690  0.96840  0.43350  Biso   1.000  C
  C23      1.0000 0.68310  0.96840  0.81650  Biso   1.000  C
  C24      1.0000 0.56690  0.28160  0.81650  Biso   1.000  C
  C25      1.0000 0.18310  0.78160  0.43350  Biso   1.000  C
  C26      1.0000 0.06690  0.46840  0.43350  Biso   1.000  C
  C27      1.0000 0.18310  0.46840  0.81650  Biso   1.000  C
  C28      1.0000 0.06690  0.78160  0.81650  Biso   1.000  C
  C29      1.0000 0.18310  0.28160  0.93350  Biso   1.000  C
  C30      1.0000 0.06690  0.96840  0.93350  Biso   1.000  C
  C31      1.0000 0.18310  0.96840  0.31650  Biso   1.000  C
  C32      1.0000 0.06690  0.28160  0.31650  Biso   1.000  C
  C33      1.0000 0.30010  0.17390  0.91270  Biso   1.000  C
  C34      1.0000 0.94990  0.07610  0.91270  Biso   1.000  C
  C35      1.0000 0.30010  0.07610  0.33730  Biso   1.000  C
  C36      1.0000 0.94990  0.17390  0.33730  Biso   1.000  C
  C37      1.0000 0.30010  0.67390  0.41270  Biso   1.000  C
  C38      1.0000 0.94990  0.57610  0.41270  Biso   1.000  C
  C39      1.0000 0.30010  0.57610  0.83730  Biso   1.000  C
  C40      1.0000 0.94990  0.67390  0.83730  Biso   1.000  C
  C41      1.0000 0.80010  0.17390  0.41270  Biso   1.000  C
  C42      1.0000 0.44990  0.07610  0.41270  Biso   1.000  C
  C43      1.0000 0.80010  0.07610  0.83730  Biso   1.000  C
  C44      1.0000 0.44990  0.17390  0.83730  Biso   1.000  C
  C45      1.0000 0.80010  0.67390  0.91270  Biso   1.000  C
  C46      1.0000 0.44990  0.57610  0.91270  Biso   1.000  C
  C47      1.0000 0.80010  0.57610  0.33730  Biso   1.000  C
  C48      1.0000 0.44990  0.67390  0.33730  Biso   1.000  C
  C49      1.0000 0.69990  0.82610  0.08730  Biso   1.000  C
  C50      1.0000 0.55010  0.42390  0.08730  Biso   1.000  C
  C51      1.0000 0.69990  0.42390  0.16270  Biso   1.000  C
  C52      1.0000 0.55010  0.82610  0.16270  Biso   1.000  C
  C53      1.0000 0.69990  0.32610  0.58730  Biso   1.000  C
  C54      1.0000 0.55010  0.92390  0.58730  Biso   1.000  C
  C55      1.0000 0.69990  0.92390  0.66270  Biso   1.000  C
  C56      1.0000 0.55010  0.32610  0.66270  Biso   1.000  C
  C57      1.0000 0.19990  0.82610  0.58730  Biso   1.000  C
  C58      1.0000 0.05010  0.42390  0.58730  Biso   1.000  C
  C59      1.0000 0.19990  0.42390  0.66270  Biso   1.000  C
  C60      1.0000 0.05010  0.82610  0.66270  Biso   1.000  C
  C61      1.0000 0.19990  0.32610  0.08730  Biso   1.000  C
  C62      1.0000 0.05010  0.92390  0.08730  Biso   1.000  C
  C63      1.0000 0.19990  0.92390  0.16270  Biso   1.000  C
  C64      1.0000 0.05010  0.32610  0.16270  Biso   1.000  C
  C65      1.0000 0.30140  0.21280  0.84700  Biso   1.000  C
  C66      1.0000 0.94860  0.03720  0.84700  Biso   1.000  C
  C67      1.0000 0.30140  0.03720  0.40300  Biso   1.000  C
  C68      1.0000 0.94860  0.21280  0.40300  Biso   1.000  C
  C69      1.0000 0.30140  0.71280  0.34700  Biso   1.000  C
  C70      1.0000 0.94860  0.53720  0.34700  Biso   1.000  C
  C71      1.0000 0.30140  0.53720  0.90300  Biso   1.000  C
  C72      1.0000 0.94860  0.71280  0.90300  Biso   1.000  C
  C73      1.0000 0.80140  0.21280  0.34700  Biso   1.000  C
  C74      1.0000 0.44860  0.03720  0.34700  Biso   1.000  C
  C75      1.0000 0.80140  0.03720  0.90300  Biso   1.000  C
  C76      1.0000 0.44860  0.21280  0.90300  Biso   1.000  C
  C77      1.0000 0.80140  0.71280  0.84700  Biso   1.000  C
  C78      1.0000 0.44860  0.53720  0.84700  Biso   1.000  C
  C79      1.0000 0.80140  0.53720  0.40300  Biso   1.000  C
  C80      1.0000 0.44860  0.71280  0.40300  Biso   1.000  C
  C81      1.0000 0.69860  0.78720  0.15300  Biso   1.000  C
  C82      1.0000 0.55140  0.46280  0.15300  Biso   1.000  C
  C83      1.0000 0.69860  0.46280  0.09700  Biso   1.000  C
  C84      1.0000 0.55140  0.78720  0.09700  Biso   1.000  C
  C85      1.0000 0.69860  0.28720  0.65300  Biso   1.000  C
  C86      1.0000 0.55140  0.96280  0.65300  Biso   1.000  C
  C87      1.0000 0.69860  0.96280  0.59700  Biso   1.000  C
  C88      1.0000 0.55140  0.28720  0.59700  Biso   1.000  C
  C89      1.0000 0.19860  0.78720  0.65300  Biso   1.000  C
  C90      1.0000 0.05140  0.46280  0.65300  Biso   1.000  C
  C91      1.0000 0.19860  0.46280  0.59700  Biso   1.000  C
  C92      1.0000 0.05140  0.78720  0.59700  Biso   1.000  C
  C93      1.0000 0.19860  0.28720  0.15300  Biso   1.000  C
  C94      1.0000 0.05140  0.96280  0.15300  Biso   1.000  C
  C95      1.0000 0.19860  0.96280  0.09700  Biso   1.000  C
  C96      1.0000 0.05140  0.28720  0.09700  Biso   1.000  C
  C97      1.0000 0.31070  0.25510  0.89360  Biso   1.000  C
  C98      1.0000 0.93930  0.99490  0.89360  Biso   1.000  C
  C99      1.0000 0.31070  0.99490  0.35640  Biso   1.000  C
  C100     1.0000 0.93930  0.25510  0.35640  Biso   1.000  C
  C101     1.0000 0.31070  0.75510  0.39360  Biso   1.000  C
  C102     1.0000 0.93930  0.49490  0.39360  Biso   1.000  C
  C103     1.0000 0.31070  0.49490  0.85640  Biso   1.000  C
  C104     1.0000 0.93930  0.75510  0.85640  Biso   1.000  C
  C105     1.0000 0.81070  0.25510  0.39360  Biso   1.000  C
  C106     1.0000 0.43930  0.99490  0.39360  Biso   1.000  C
  C107     1.0000 0.81070  0.99490  0.85640  Biso   1.000  C
  C108     1.0000 0.43930  0.25510  0.85640  Biso   1.000  C
  C109     1.0000 0.81070  0.75510  0.89360  Biso   1.000  C
  C110     1.0000 0.43930  0.49490  0.89360  Biso   1.000  C
  C111     1.0000 0.81070  0.49490  0.35640  Biso   1.000  C
  C112     1.0000 0.43930  0.75510  0.35640  Biso   1.000  C
  C113     1.0000 0.68930  0.74490  0.10640  Biso   1.000  C
  C114     1.0000 0.56070  0.50510  0.10640  Biso   1.000  C
  C115     1.0000 0.68930  0.50510  0.14360  Biso   1.000  C
  C116     1.0000 0.56070  0.74490  0.14360  Biso   1.000  C
  C117     1.0000 0.68930  0.24490  0.60640  Biso   1.000  C
  C118     1.0000 0.56070  0.00510  0.60640  Biso   1.000  C
  C119     1.0000 0.68930  0.00510  0.64360  Biso   1.000  C
  C120     1.0000 0.56070  0.24490  0.64360  Biso   1.000  C
  C121     1.0000 0.18930  0.74490  0.60640  Biso   1.000  C
  C122     1.0000 0.06070  0.50510  0.60640  Biso   1.000  C
  C123     1.0000 0.18930  0.50510  0.64360  Biso   1.000  C
  C124     1.0000 0.06070  0.74490  0.64360  Biso   1.000  C
  C125     1.0000 0.18930  0.24490  0.10640  Biso   1.000  C
  C126     1.0000 0.06070  0.00510  0.10640  Biso   1.000  C
  C127     1.0000 0.18930  0.00510  0.14360  Biso   1.000  C
  C128     1.0000 0.06070  0.24490  0.14360  Biso   1.000  C
  C129     1.0000 0.31850  0.25810  0.00530  Biso   1.000  C
  C130     1.0000 0.93150  0.99190  0.00530  Biso   1.000  C
  C131     1.0000 0.31850  0.99190  0.24470  Biso   1.000  C
  C132     1.0000 0.93150  0.25810  0.24470  Biso   1.000  C
  C133     1.0000 0.31850  0.75810  0.50530  Biso   1.000  C
  C134     1.0000 0.93150  0.49190  0.50530  Biso   1.000  C
  C135     1.0000 0.31850  0.49190  0.74470  Biso   1.000  C
  C136     1.0000 0.93150  0.75810  0.74470  Biso   1.000  C
  C137     1.0000 0.81850  0.25810  0.50530  Biso   1.000  C
  C138     1.0000 0.43150  0.99190  0.50530  Biso   1.000  C
  C139     1.0000 0.81850  0.99190  0.74470  Biso   1.000  C
  C140     1.0000 0.43150  0.25810  0.74470  Biso   1.000  C
  C141     1.0000 0.81850  0.75810  0.00530  Biso   1.000  C
  C142     1.0000 0.43150  0.49190  0.00530  Biso   1.000  C
  C143     1.0000 0.81850  0.49190  0.24470  Biso   1.000  C
  C144     1.0000 0.43150  0.75810  0.24470  Biso   1.000  C
  C145     1.0000 0.68150  0.74190  0.99470  Biso   1.000  C
  C146     1.0000 0.56850  0.50810  0.99470  Biso   1.000  C
  C147     1.0000 0.68150  0.50810  0.25530  Biso   1.000  C
  C148     1.0000 0.56850  0.74190  0.25530  Biso   1.000  C
  C149     1.0000 0.68150  0.24190  0.49470  Biso   1.000  C
  C150     1.0000 0.56850  0.00810  0.49470  Biso   1.000  C
  C151     1.0000 0.68150  0.00810  0.75530  Biso   1.000  C
  C152     1.0000 0.56850  0.24190  0.75530  Biso   1.000  C
  C153     1.0000 0.18150  0.74190  0.49470  Biso   1.000  C
  C154     1.0000 0.06850  0.50810  0.49470  Biso   1.000  C
  C155     1.0000 0.18150  0.50810  0.75530  Biso   1.000  C
  C156     1.0000 0.06850  0.74190  0.75530  Biso   1.000  C
  C157     1.0000 0.18150  0.24190  0.99470  Biso   1.000  C
  C158     1.0000 0.06850  0.00810  0.99470  Biso   1.000  C
  C159     1.0000 0.18150  0.00810  0.25530  Biso   1.000  C
  C160     1.0000 0.06850  0.24190  0.25530  Biso   1.000  C
  C161     1.0000 0.32370  0.21470  0.18900  Biso   1.000  C
  C162     1.0000 0.92630  0.03530  0.18900  Biso   1.000  C
  C163     1.0000 0.32370  0.03530  0.06100  Biso   1.000  C
  C164     1.0000 0.92630  0.21470  0.06100  Biso   1.000  C
  C165     1.0000 0.32370  0.71470  0.68900  Biso   1.000  C
  C166     1.0000 0.92630  0.53530  0.68900  Biso   1.000  C
  C167     1.0000 0.32370  0.53530  0.56100  Biso   1.000  C
  C168     1.0000 0.92630  0.71470  0.56100  Biso   1.000  C
  C169     1.0000 0.82370  0.21470  0.68900  Biso   1.000  C
  C170     1.0000 0.42630  0.03530  0.68900  Biso   1.000  C
  C171     1.0000 0.82370  0.03530  0.56100  Biso   1.000  C
  C172     1.0000 0.42630  0.21470  0.56100  Biso   1.000  C
  C173     1.0000 0.82370  0.71470  0.18900  Biso   1.000  C
  C174     1.0000 0.42630  0.53530  0.18900  Biso   1.000  C
  C175     1.0000 0.82370  0.53530  0.06100  Biso   1.000  C
  C176     1.0000 0.42630  0.71470  0.06100  Biso   1.000  C
  C177     1.0000 0.67630  0.78530  0.81100  Biso   1.000  C
  C178     1.0000 0.57370  0.46470  0.81100  Biso   1.000  C
  C179     1.0000 0.67630  0.46470  0.43900  Biso   1.000  C
  C180     1.0000 0.57370  0.78530  0.43900  Biso   1.000  C
  C181     1.0000 0.67630  0.28530  0.31100  Biso   1.000  C
  C182     1.0000 0.57370  0.96470  0.31100  Biso   1.000  C
  C183     1.0000 0.67630  0.96470  0.93900  Biso   1.000  C
  C184     1.0000 0.57370  0.28530  0.93900  Biso   1.000  C
  C185     1.0000 0.17630  0.78530  0.31100  Biso   1.000  C
  C186     1.0000 0.07370  0.46470  0.31100  Biso   1.000  C
  C187     1.0000 0.17630  0.46470  0.93900  Biso   1.000  C
  C188     1.0000 0.07370  0.78530  0.93900  Biso   1.000  C
  C189     1.0000 0.17630  0.28530  0.81100  Biso   1.000  C
  C190     1.0000 0.07370  0.96470  0.81100  Biso   1.000  C
  C191     1.0000 0.17630  0.96470  0.43900  Biso   1.000  C
  C192     1.0000 0.07370  0.28530  0.43900  Biso   1.000  C
  C193     1.0000 0.34660  0.25020  0.36230  Biso   1.000  C
  C194     1.0000 0.90340  0.99980  0.36230  Biso   1.000  C
  C195     1.0000 0.34660  0.99980  0.88770  Biso   1.000  C
  C196     1.0000 0.90340  0.25020  0.88770  Biso   1.000  C
  C197     1.0000 0.34660  0.75020  0.86230  Biso   1.000  C
  C198     1.0000 0.90340  0.49980  0.86230  Biso   1.000  C
  C199     1.0000 0.34660  0.49980  0.38770  Biso   1.000  C
  C200     1.0000 0.90340  0.75020  0.38770  Biso   1.000  C
  C201     1.0000 0.84660  0.25020  0.86230  Biso   1.000  C
  C202     1.0000 0.40340  0.99980  0.86230  Biso   1.000  C
  C203     1.0000 0.84660  0.99980  0.38770  Biso   1.000  C
  C204     1.0000 0.40340  0.25020  0.38770  Biso   1.000  C
  C205     1.0000 0.84660  0.75020  0.36230  Biso   1.000  C
  C206     1.0000 0.40340  0.49980  0.36230  Biso   1.000  C
  C207     1.0000 0.84660  0.49980  0.88770  Biso   1.000  C
  C208     1.0000 0.40340  0.75020  0.88770  Biso   1.000  C
  C209     1.0000 0.65340  0.74980  0.63770  Biso   1.000  C
  C210     1.0000 0.59660  0.50020  0.63770  Biso   1.000  C
  C211     1.0000 0.65340  0.50020  0.61230  Biso   1.000  C
  C212     1.0000 0.59660  0.74980  0.61230  Biso   1.000  C
  C213     1.0000 0.65340  0.24980  0.13770  Biso   1.000  C
  C214     1.0000 0.59660  0.00020  0.13770  Biso   1.000  C
  C215     1.0000 0.65340  0.00020  0.11230  Biso   1.000  C
  C216     1.0000 0.59660  0.24980  0.11230  Biso   1.000  C
  C217     1.0000 0.15340  0.74980  0.13770  Biso   1.000  C
  C218     1.0000 0.09660  0.50020  0.13770  Biso   1.000  C
  C219     1.0000 0.15340  0.50020  0.11230  Biso   1.000  C
  C220     1.0000 0.09660  0.74980  0.11230  Biso   1.000  C
  C221     1.0000 0.15340  0.24980  0.63770  Biso   1.000  C
  C222     1.0000 0.09660  0.00020  0.63770  Biso   1.000  C
  C223     1.0000 0.15340  0.00020  0.61230  Biso   1.000  C
  C224     1.0000 0.09660  0.24980  0.61230  Biso   1.000  C
  H1       1.0000 0.29386  0.14447  0.88028  Biso   1.000  H
  H2       1.0000 0.95614  0.10553  0.88028  Biso   1.000  H
  H3       1.0000 0.29386  0.10553  0.36972  Biso   1.000  H
  H4       1.0000 0.95614  0.14447  0.36972  Biso   1.000  H
  H5       1.0000 0.29386  0.64447  0.38028  Biso   1.000  H
  H6       1.0000 0.95614  0.60553  0.38028  Biso   1.000  H
  H7       1.0000 0.29386  0.60553  0.86972  Biso   1.000  H
  H8       1.0000 0.95614  0.64447  0.86972  Biso   1.000  H
  H9       1.0000 0.79386  0.14447  0.38028  Biso   1.000  H
  H10      1.0000 0.45614  0.10553  0.38028  Biso   1.000  H
  H11      1.0000 0.79386  0.10553  0.86972  Biso   1.000  H
  H12      1.0000 0.45614  0.14447  0.86972  Biso   1.000  H
  H13      1.0000 0.79386  0.64447  0.88028  Biso   1.000  H
  H14      1.0000 0.45614  0.60553  0.88028  Biso   1.000  H
  H15      1.0000 0.79386  0.60553  0.36972  Biso   1.000  H
  H16      1.0000 0.45614  0.64447  0.36972  Biso   1.000  H
  H17      1.0000 0.70614  0.85553  0.11972  Biso   1.000  H
  H18      1.0000 0.54386  0.39447  0.11972  Biso   1.000  H
  H19      1.0000 0.70614  0.39447  0.13028  Biso   1.000  H
  H20      1.0000 0.54386  0.85553  0.13028  Biso   1.000  H
  H21      1.0000 0.70614  0.35553  0.61972  Biso   1.000  H
  H22      1.0000 0.54386  0.89447  0.61972  Biso   1.000  H
  H23      1.0000 0.70614  0.89447  0.63028  Biso   1.000  H
  H24      1.0000 0.54386  0.35553  0.63028  Biso   1.000  H
  H25      1.0000 0.20614  0.85553  0.61972  Biso   1.000  H
  H26      1.0000 0.04386  0.39447  0.61972  Biso   1.000  H
  H27      1.0000 0.20614  0.39447  0.63028  Biso   1.000  H
  H28      1.0000 0.04386  0.85553  0.63028  Biso   1.000  H
  H29      1.0000 0.20614  0.35553  0.11972  Biso   1.000  H
  H30      1.0000 0.04386  0.89447  0.11972  Biso   1.000  H
  H31      1.0000 0.20614  0.89447  0.13028  Biso   1.000  H
  H32      1.0000 0.04386  0.35553  0.13028  Biso   1.000  H
  H33      1.0000 0.29580  0.21028  0.77035  Biso   1.000  H
  H34      1.0000 0.95420  0.03972  0.77035  Biso   1.000  H
  H35      1.0000 0.29580  0.03972  0.47965  Biso   1.000  H
  H36      1.0000 0.95420  0.21028  0.47965  Biso   1.000  H
  H37      1.0000 0.29580  0.71028  0.27035  Biso   1.000  H
  H38      1.0000 0.95420  0.53972  0.27035  Biso   1.000  H
  H39      1.0000 0.29580  0.53972  0.97965  Biso   1.000  H
  H40      1.0000 0.95420  0.71028  0.97965  Biso   1.000  H
  H41      1.0000 0.79580  0.21028  0.27035  Biso   1.000  H
  H42      1.0000 0.45420  0.03972  0.27035  Biso   1.000  H
  H43      1.0000 0.79580  0.03972  0.97965  Biso   1.000  H
  H44      1.0000 0.45420  0.21028  0.97965  Biso   1.000  H
  H45      1.0000 0.79580  0.71028  0.77035  Biso   1.000  H
  H46      1.0000 0.45420  0.53972  0.77035  Biso   1.000  H
  H47      1.0000 0.79580  0.53972  0.47965  Biso   1.000  H
  H48      1.0000 0.45420  0.71028  0.47965  Biso   1.000  H
  H49      1.0000 0.70420  0.78972  0.22965  Biso   1.000  H
  H50      1.0000 0.54580  0.46028  0.22965  Biso   1.000  H
  H51      1.0000 0.70420  0.46028  0.02035  Biso   1.000  H
  H52      1.0000 0.54580  0.78972  0.02035  Biso   1.000  H
  H53      1.0000 0.70420  0.28972  0.72965  Biso   1.000  H
  H54      1.0000 0.54580  0.96028  0.72965  Biso   1.000  H
  H55      1.0000 0.70420  0.96028  0.52035  Biso   1.000  H
  H56      1.0000 0.54580  0.28972  0.52035  Biso   1.000  H
  H57      1.0000 0.20420  0.78972  0.72965  Biso   1.000  H
  H58      1.0000 0.04580  0.46028  0.72965  Biso   1.000  H
  H59      1.0000 0.20420  0.46028  0.52035  Biso   1.000  H
  H60      1.0000 0.04580  0.78972  0.52035  Biso   1.000  H
  H61      1.0000 0.20420  0.28972  0.22965  Biso   1.000  H
  H62      1.0000 0.04580  0.96028  0.22965  Biso   1.000  H
  H63      1.0000 0.20420  0.96028  0.02035  Biso   1.000  H
  H64      1.0000 0.04580  0.28972  0.02035  Biso   1.000  H
  H65      1.0000 0.31186  0.28223  0.84948  Biso   1.000  H
  H66      1.0000 0.93814  0.96777  0.84948  Biso   1.000  H
  H67      1.0000 0.31186  0.96777  0.40052  Biso   1.000  H
  H68      1.0000 0.93814  0.28223  0.40052  Biso   1.000  H
  H69      1.0000 0.31186  0.78223  0.34948  Biso   1.000  H
  H70      1.0000 0.93814  0.46777  0.34948  Biso   1.000  H
  H71      1.0000 0.31186  0.46777  0.90052  Biso   1.000  H
  H72      1.0000 0.93814  0.78223  0.90052  Biso   1.000  H
  H73      1.0000 0.81186  0.28223  0.34948  Biso   1.000  H
  H74      1.0000 0.43814  0.96777  0.34948  Biso   1.000  H
  H75      1.0000 0.81186  0.96777  0.90052  Biso   1.000  H
  H76      1.0000 0.43814  0.28223  0.90052  Biso   1.000  H
  H77      1.0000 0.81186  0.78223  0.84948  Biso   1.000  H
  H78      1.0000 0.43814  0.46777  0.84948  Biso   1.000  H
  H79      1.0000 0.81186  0.46777  0.40052  Biso   1.000  H
  H80      1.0000 0.43814  0.78223  0.40052  Biso   1.000  H
  H81      1.0000 0.68814  0.71777  0.15052  Biso   1.000  H
  H82      1.0000 0.56186  0.53223  0.15052  Biso   1.000  H
  H83      1.0000 0.68814  0.53223  0.09948  Biso   1.000  H
  H84      1.0000 0.56186  0.71777  0.09948  Biso   1.000  H
  H85      1.0000 0.68814  0.21777  0.65052  Biso   1.000  H
  H86      1.0000 0.56186  0.03223  0.65052  Biso   1.000  H
  H87      1.0000 0.68814  0.03223  0.59948  Biso   1.000  H
  H88      1.0000 0.56186  0.21777  0.59948  Biso   1.000  H
  H89      1.0000 0.18814  0.71777  0.65052  Biso   1.000  H
  H90      1.0000 0.06186  0.53223  0.65052  Biso   1.000  H
  H91      1.0000 0.18814  0.53223  0.59948  Biso   1.000  H
  H92      1.0000 0.06186  0.71777  0.59948  Biso   1.000  H
  H93      1.0000 0.18814  0.21777  0.15052  Biso   1.000  H
  H94      1.0000 0.06186  0.03223  0.15052  Biso   1.000  H
  H95      1.0000 0.18814  0.03223  0.09948  Biso   1.000  H
  H96      1.0000 0.06186  0.21777  0.09948  Biso   1.000  H
  H97      1.0000 0.32496  0.28724  0.03903  Biso   1.000  H
  H98      1.0000 0.92504  0.96276  0.03903  Biso   1.000  H
  H99      1.0000 0.32496  0.96276  0.21097  Biso   1.000  H
  H100     1.0000 0.92504  0.28724  0.21097  Biso   1.000  H
  H101     1.0000 0.32496  0.78724  0.53903  Biso   1.000  H
  H102     1.0000 0.92504  0.46276  0.53903  Biso   1.000  H
  H103     1.0000 0.32496  0.46276  0.71097  Biso   1.000  H
  H104     1.0000 0.92504  0.78724  0.71097  Biso   1.000  H
  H105     1.0000 0.82496  0.28724  0.53903  Biso   1.000  H
  H106     1.0000 0.42504  0.96276  0.53903  Biso   1.000  H
  H107     1.0000 0.82496  0.96276  0.71097  Biso   1.000  H
  H108     1.0000 0.42504  0.28724  0.71097  Biso   1.000  H
  H109     1.0000 0.82496  0.78724  0.03903  Biso   1.000  H
  H110     1.0000 0.42504  0.46276  0.03903  Biso   1.000  H
  H111     1.0000 0.82496  0.46276  0.21097  Biso   1.000  H
  H112     1.0000 0.42504  0.78724  0.21097  Biso   1.000  H
  H113     1.0000 0.67504  0.71276  0.96097  Biso   1.000  H
  H114     1.0000 0.57496  0.53724  0.96097  Biso   1.000  H
  H115     1.0000 0.67504  0.53724  0.28903  Biso   1.000  H
  H116     1.0000 0.57496  0.71276  0.28903  Biso   1.000  H
  H117     1.0000 0.67504  0.21276  0.46097  Biso   1.000  H
  H118     1.0000 0.57496  0.03724  0.46097  Biso   1.000  H
  H119     1.0000 0.67504  0.03724  0.78903  Biso   1.000  H
  H120     1.0000 0.57496  0.21276  0.78903  Biso   1.000  H
  H121     1.0000 0.17504  0.71276  0.46097  Biso   1.000  H
  H122     1.0000 0.07496  0.53724  0.46097  Biso   1.000  H
  H123     1.0000 0.17504  0.53724  0.78903  Biso   1.000  H
  H124     1.0000 0.07496  0.71276  0.78903  Biso   1.000  H
  H125     1.0000 0.17504  0.21276  0.96097  Biso   1.000  H
  H126     1.0000 0.07496  0.03724  0.96097  Biso   1.000  H
  H127     1.0000 0.17504  0.03724  0.28903  Biso   1.000  H
  H128     1.0000 0.07496  0.21276  0.28903  Biso   1.000  H
  H129     1.0000 0.34000  0.27500  0.21800  Biso   1.000  H
  H130     1.0000 0.91000  0.97500  0.21800  Biso   1.000  H
  H131     1.0000 0.34000  0.97500  0.03200  Biso   1.000  H
  H132     1.0000 0.91000  0.27500  0.03200  Biso   1.000  H
  H133     1.0000 0.34000  0.77500  0.71800  Biso   1.000  H
  H134     1.0000 0.91000  0.47500  0.71800  Biso   1.000  H
  H135     1.0000 0.34000  0.47500  0.53200  Biso   1.000  H
  H136     1.0000 0.91000  0.77500  0.53200  Biso   1.000  H
  H137     1.0000 0.84000  0.27500  0.71800  Biso   1.000  H
  H138     1.0000 0.41000  0.97500  0.71800  Biso   1.000  H
  H139     1.0000 0.84000  0.97500  0.53200  Biso   1.000  H
  H140     1.0000 0.41000  0.27500  0.53200  Biso   1.000  H
  H141     1.0000 0.84000  0.77500  0.21800  Biso   1.000  H
  H142     1.0000 0.41000  0.47500  0.21800  Biso   1.000  H
  H143     1.0000 0.84000  0.47500  0.03200  Biso   1.000  H
  H144     1.0000 0.41000  0.77500  0.03200  Biso   1.000  H
  H145     1.0000 0.66000  0.72500  0.78200  Biso   1.000  H
  H146     1.0000 0.59000  0.52500  0.78200  Biso   1.000  H
  H147     1.0000 0.66000  0.52500  0.46800  Biso   1.000  H
  H148     1.0000 0.59000  0.72500  0.46800  Biso   1.000  H
  H149     1.0000 0.66000  0.22500  0.28200  Biso   1.000  H
  H150     1.0000 0.59000  0.02500  0.28200  Biso   1.000  H
  H151     1.0000 0.66000  0.02500  0.96800  Biso   1.000  H
  H152     1.0000 0.59000  0.22500  0.96800  Biso   1.000  H
  H153     1.0000 0.16000  0.72500  0.28200  Biso   1.000  H
  H154     1.0000 0.09000  0.52500  0.28200  Biso   1.000  H
  H155     1.0000 0.16000  0.52500  0.96800  Biso   1.000  H
  H156     1.0000 0.09000  0.72500  0.96800  Biso   1.000  H
  H157     1.0000 0.16000  0.22500  0.78200  Biso   1.000  H
  H158     1.0000 0.09000  0.02500  0.78200  Biso   1.000  H
  H159     1.0000 0.16000  0.02500  0.46800  Biso   1.000  H
  H160     1.0000 0.09000  0.22500  0.46800  Biso   1.000  H
  H161     1.0000 0.33100  0.27600  0.39400  Biso   1.000  H
  H162     1.0000 0.91900  0.97400  0.39400  Biso   1.000  H
  H163     1.0000 0.33100  0.97400  0.85600  Biso   1.000  H
  H164     1.0000 0.91900  0.27600  0.85600  Biso   1.000  H
  H165     1.0000 0.33100  0.77600  0.89400  Biso   1.000  H
  H166     1.0000 0.91900  0.47400  0.89400  Biso   1.000  H
  H167     1.0000 0.33100  0.47400  0.35600  Biso   1.000  H
  H168     1.0000 0.91900  0.77600  0.35600  Biso   1.000  H
  H169     1.0000 0.83100  0.27600  0.89400  Biso   1.000  H
  H170     1.0000 0.41900  0.97400  0.89400  Biso   1.000  H
  H171     1.0000 0.83100  0.97400  0.35600  Biso   1.000  H
  H172     1.0000 0.41900  0.27600  0.35600  Biso   1.000  H
  H173     1.0000 0.83100  0.77600  0.39400  Biso   1.000  H
  H174     1.0000 0.41900  0.47400  0.39400  Biso   1.000  H
  H175     1.0000 0.83100  0.47400  0.85600  Biso   1.000  H
  H176     1.0000 0.41900  0.77600  0.85600  Biso   1.000  H
  H177     1.0000 0.66900  0.72400  0.60600  Biso   1.000  H
  H178     1.0000 0.58100  0.52600  0.60600  Biso   1.000  H
  H179     1.0000 0.66900  0.52600  0.64400  Biso   1.000  H
  H180     1.0000 0.58100  0.72400  0.64400  Biso   1.000  H
  H181     1.0000 0.66900  0.22400  0.10600  Biso   1.000  H
  H182     1.0000 0.58100  0.02600  0.10600  Biso   1.000  H
  H183     1.0000 0.66900  0.02600  0.14400  Biso   1.000  H
  H184     1.0000 0.58100  0.22400  0.14400  Biso   1.000  H
  H185     1.0000 0.16900  0.72400  0.10600  Biso   1.000  H
  H186     1.0000 0.08100  0.52600  0.10600  Biso   1.000  H
  H187     1.0000 0.16900  0.52600  0.14400  Biso   1.000  H
  H188     1.0000 0.08100  0.72400  0.14400  Biso   1.000  H
  H189     1.0000 0.16900  0.22400  0.60600  Biso   1.000  H
  H190     1.0000 0.08100  0.02600  0.60600  Biso   1.000  H
  H191     1.0000 0.16900  0.02600  0.64400  Biso   1.000  H
  H192     1.0000 0.08100  0.22400  0.64400  Biso   1.000  H
  H193     1.0000 0.33300  0.22500  0.39400  Biso   1.000  H
  H194     1.0000 0.91700  0.02500  0.39400  Biso   1.000  H
  H195     1.0000 0.33300  0.02500  0.85600  Biso   1.000  H
  H196     1.0000 0.91700  0.22500  0.85600  Biso   1.000  H
  H197     1.0000 0.33300  0.72500  0.89400  Biso   1.000  H
  H198     1.0000 0.91700  0.52500  0.89400  Biso   1.000  H
  H199     1.0000 0.33300  0.52500  0.35600  Biso   1.000  H
  H200     1.0000 0.91700  0.72500  0.35600  Biso   1.000  H
  H201     1.0000 0.83300  0.22500  0.89400  Biso   1.000  H
  H202     1.0000 0.41700  0.02500  0.89400  Biso   1.000  H
  H203     1.0000 0.83300  0.02500  0.35600  Biso   1.000  H
  H204     1.0000 0.41700  0.22500  0.35600  Biso   1.000  H
  H205     1.0000 0.83300  0.72500  0.39400  Biso   1.000  H
  H206     1.0000 0.41700  0.52500  0.39400  Biso   1.000  H
  H207     1.0000 0.83300  0.52500  0.85600  Biso   1.000  H
  H208     1.0000 0.41700  0.72500  0.85600  Biso   1.000  H
  H209     1.0000 0.66700  0.77500  0.60600  Biso   1.000  H
  H210     1.0000 0.58300  0.47500  0.60600  Biso   1.000  H
  H211     1.0000 0.66700  0.47500  0.64400  Biso   1.000  H
  H212     1.0000 0.58300  0.77500  0.64400  Biso   1.000  H
  H213     1.0000 0.66700  0.27500  0.10600  Biso   1.000  H
  H214     1.0000 0.58300  0.97500  0.10600  Biso   1.000  H
  H215     1.0000 0.66700  0.97500  0.14400  Biso   1.000  H
  H216     1.0000 0.58300  0.27500  0.14400  Biso   1.000  H
  H217     1.0000 0.16700  0.77500  0.10600  Biso   1.000  H
  H218     1.0000 0.08300  0.47500  0.10600  Biso   1.000  H
  H219     1.0000 0.16700  0.47500  0.14400  Biso   1.000  H
  H220     1.0000 0.08300  0.77500  0.14400  Biso   1.000  H
  H221     1.0000 0.16700  0.27500  0.60600  Biso   1.000  H
  H222     1.0000 0.08300  0.97500  0.60600  Biso   1.000  H
  H223     1.0000 0.16700  0.97500  0.64400  Biso   1.000  H
  H224     1.0000 0.08300  0.27500  0.64400  Biso   1.000  H
  H225     1.0000 0.19700  0.13200  0.17100  Biso   1.000  H
  H226     1.0000 0.05300  0.11800  0.17100  Biso   1.000  H
  H227     1.0000 0.19700  0.11800  0.07900  Biso   1.000  H
  H228     1.0000 0.05300  0.13200  0.07900  Biso   1.000  H
  H229     1.0000 0.19700  0.63200  0.67100  Biso   1.000  H
  H230     1.0000 0.05300  0.61800  0.67100  Biso   1.000  H
  H231     1.0000 0.19700  0.61800  0.57900  Biso   1.000  H
  H232     1.0000 0.05300  0.63200  0.57900  Biso   1.000  H
  H233     1.0000 0.69700  0.13200  0.67100  Biso   1.000  H
  H234     1.0000 0.55300  0.11800  0.67100  Biso   1.000  H
  H235     1.0000 0.69700  0.11800  0.57900  Biso   1.000  H
  H236     1.0000 0.55300  0.13200  0.57900  Biso   1.000  H
  H237     1.0000 0.69700  0.63200  0.17100  Biso   1.000  H
  H238     1.0000 0.55300  0.61800  0.17100  Biso   1.000  H
  H239     1.0000 0.69700  0.61800  0.07900  Biso   1.000  H
  H240     1.0000 0.55300  0.63200  0.07900  Biso   1.000  H
  H241     1.0000 0.80300  0.86800  0.82900  Biso   1.000  H
  H242     1.0000 0.44700  0.38200  0.82900  Biso   1.000  H
  H243     1.0000 0.80300  0.38200  0.42100  Biso   1.000  H
  H244     1.0000 0.44700  0.86800  0.42100  Biso   1.000  H
  H245     1.0000 0.80300  0.36800  0.32900  Biso   1.000  H
  H246     1.0000 0.44700  0.88200  0.32900  Biso   1.000  H
  H247     1.0000 0.80300  0.88200  0.92100  Biso   1.000  H
  H248     1.0000 0.44700  0.36800  0.92100  Biso   1.000  H
  H249     1.0000 0.30300  0.86800  0.32900  Biso   1.000  H
  H250     1.0000 0.94700  0.38200  0.32900  Biso   1.000  H
  H251     1.0000 0.30300  0.38200  0.92100  Biso   1.000  H
  H252     1.0000 0.94700  0.86800  0.92100  Biso   1.000  H
  H253     1.0000 0.30300  0.36800  0.82900  Biso   1.000  H
  H254     1.0000 0.94700  0.88200  0.82900  Biso   1.000  H
  H255     1.0000 0.30300  0.88200  0.42100  Biso   1.000  H
  H256     1.0000 0.94700  0.36800  0.42100  Biso   1.000  H
  H257     1.0000 0.41600  0.09900  0.08600  Biso   1.000  H
  H258     1.0000 0.83400  0.15100  0.08600  Biso   1.000  H
  H259     1.0000 0.41600  0.15100  0.16400  Biso   1.000  H
  H260     1.0000 0.83400  0.09900  0.16400  Biso   1.000  H
  H261     1.0000 0.41600  0.59900  0.58600  Biso   1.000  H
  H262     1.0000 0.83400  0.65100  0.58600  Biso   1.000  H
  H263     1.0000 0.41600  0.65100  0.66400  Biso   1.000  H
  H264     1.0000 0.83400  0.59900  0.66400  Biso   1.000  H
  H265     1.0000 0.91600  0.09900  0.58600  Biso   1.000  H
  H266     1.0000 0.33400  0.15100  0.58600  Biso   1.000  H
  H267     1.0000 0.91600  0.15100  0.66400  Biso   1.000  H
  H268     1.0000 0.33400  0.09900  0.66400  Biso   1.000  H
  H269     1.0000 0.91600  0.59900  0.08600  Biso   1.000  H
  H270     1.0000 0.33400  0.65100  0.08600  Biso   1.000  H
  H271     1.0000 0.91600  0.65100  0.16400  Biso   1.000  H
  H272     1.0000 0.33400  0.59900  0.16400  Biso   1.000  H
  H273     1.0000 0.58400  0.90100  0.91400  Biso   1.000  H
  H274     1.0000 0.66600  0.34900  0.91400  Biso   1.000  H
  H275     1.0000 0.58400  0.34900  0.33600  Biso   1.000  H
  H276     1.0000 0.66600  0.90100  0.33600  Biso   1.000  H
  H277     1.0000 0.58400  0.40100  0.41400  Biso   1.000  H
  H278     1.0000 0.66600  0.84900  0.41400  Biso   1.000  H
  H279     1.0000 0.58400  0.84900  0.83600  Biso   1.000  H
  H280     1.0000 0.66600  0.40100  0.83600  Biso   1.000  H
  H281     1.0000 0.08400  0.90100  0.41400  Biso   1.000  H
  H282     1.0000 0.16600  0.34900  0.41400  Biso   1.000  H
  H283     1.0000 0.08400  0.34900  0.83600  Biso   1.000  H
  H284     1.0000 0.16600  0.90100  0.83600  Biso   1.000  H
  H285     1.0000 0.08400  0.40100  0.91400  Biso   1.000  H
  H286     1.0000 0.16600  0.84900  0.91400  Biso   1.000  H
  H287     1.0000 0.08400  0.84900  0.33600  Biso   1.000  H
  H288     1.0000 0.16600  0.40100  0.33600  Biso   1.000  H
  S1       1.0000 0.12500  0.12500  0.37070  Biso   1.000  S
  S2       1.0000 0.12500  0.12500  0.87930  Biso   1.000  S
  S3       1.0000 0.12500  0.62500  0.87070  Biso   1.000  S
  S4       1.0000 0.12500  0.62500  0.37930  Biso   1.000  S
  S5       1.0000 0.62500  0.12500  0.87070  Biso   1.000  S
  S6       1.0000 0.62500  0.12500  0.37930  Biso   1.000  S
  S7       1.0000 0.62500  0.62500  0.37070  Biso   1.000  S
  S8       1.0000 0.62500  0.62500  0.87930  Biso   1.000  S
  S9       1.0000 0.87500  0.87500  0.62930  Biso   1.000  S
  S10      1.0000 0.37500  0.37500  0.62930  Biso   1.000  S
  S11      1.0000 0.87500  0.37500  0.62070  Biso   1.000  S
  S12      1.0000 0.37500  0.87500  0.62070  Biso   1.000  S
  S13      1.0000 0.87500  0.37500  0.12930  Biso   1.000  S
  S14      1.0000 0.37500  0.87500  0.12930  Biso   1.000  S
  S15      1.0000 0.87500  0.87500  0.12070  Biso   1.000  S
  S16      1.0000 0.37500  0.37500  0.12070  Biso   1.000  S
  O65      1.0000 0.15710  0.15420  0.30090  Biso   1.000  O
  O66      1.0000 0.09290  0.09580  0.30090  Biso   1.000  O
  O67      1.0000 0.15710  0.09580  0.94910  Biso   1.000  O
  O68      1.0000 0.09290  0.15420  0.94910  Biso   1.000  O
  O69      1.0000 0.15710  0.65420  0.80090  Biso   1.000  O
  O70      1.0000 0.09290  0.59580  0.80090  Biso   1.000  O
  O71      1.0000 0.15710  0.59580  0.44910  Biso   1.000  O
  O72      1.0000 0.09290  0.65420  0.44910  Biso   1.000  O
  O73      1.0000 0.65710  0.15420  0.80090  Biso   1.000  O
  O74      1.0000 0.59290  0.09580  0.80090  Biso   1.000  O
  O75      1.0000 0.65710  0.09580  0.44910  Biso   1.000  O
  O76      1.0000 0.59290  0.15420  0.44910  Biso   1.000  O
  O77      1.0000 0.65710  0.65420  0.30090  Biso   1.000  O
  O78      1.0000 0.59290  0.59580  0.30090  Biso   1.000  O
  O79      1.0000 0.65710  0.59580  0.94910  Biso   1.000  O
  O80      1.0000 0.59290  0.65420  0.94910  Biso   1.000  O
  O81      1.0000 0.84290  0.84580  0.69910  Biso   1.000  O
  O82      1.0000 0.40710  0.40420  0.69910  Biso   1.000  O
  O83      1.0000 0.84290  0.40420  0.55090  Biso   1.000  O
  O84      1.0000 0.40710  0.84580  0.55090  Biso   1.000  O
  O85      1.0000 0.84290  0.34580  0.19910  Biso   1.000  O
  O86      1.0000 0.40710  0.90420  0.19910  Biso   1.000  O
  O87      1.0000 0.84290  0.90420  0.05090  Biso   1.000  O
  O88      1.0000 0.40710  0.34580  0.05090  Biso   1.000  O
  O89      1.0000 0.34290  0.84580  0.19910  Biso   1.000  O
  O90      1.0000 0.90710  0.40420  0.19910  Biso   1.000  O
  O91      1.0000 0.34290  0.40420  0.05090  Biso   1.000  O
  O92      1.0000 0.90710  0.84580  0.05090  Biso   1.000  O
  O93      1.0000 0.34290  0.34580  0.69910  Biso   1.000  O
  O94      1.0000 0.90710  0.90420  0.69910  Biso   1.000  O
  O95      1.0000 0.34290  0.90420  0.55090  Biso   1.000  O
  O96      1.0000 0.90710  0.34580  0.55090  Biso   1.000  O
  O97      1.0000 0.15620  0.09480  0.44030  Biso   1.000  O
  O98      1.0000 0.09380  0.15520  0.44030  Biso   1.000  O
  O99      1.0000 0.15620  0.15520  0.80970  Biso   1.000  O
  O100     1.0000 0.09380  0.09480  0.80970  Biso   1.000  O
  O101     1.0000 0.15620  0.59480  0.94030  Biso   1.000  O
  O102     1.0000 0.09380  0.65520  0.94030  Biso   1.000  O
  O103     1.0000 0.15620  0.65520  0.30970  Biso   1.000  O
  O104     1.0000 0.09380  0.59480  0.30970  Biso   1.000  O
  O105     1.0000 0.65620  0.09480  0.94030  Biso   1.000  O
  O106     1.0000 0.59380  0.15520  0.94030  Biso   1.000  O
  O107     1.0000 0.65620  0.15520  0.30970  Biso   1.000  O
  O108     1.0000 0.59380  0.09480  0.30970  Biso   1.000  O
  O109     1.0000 0.65620  0.59480  0.44030  Biso   1.000  O
  O110     1.0000 0.59380  0.65520  0.44030  Biso   1.000  O
  O111     1.0000 0.65620  0.65520  0.80970  Biso   1.000  O
  O112     1.0000 0.59380  0.59480  0.80970  Biso   1.000  O
  O113     1.0000 0.84380  0.90520  0.55970  Biso   1.000  O
  O114     1.0000 0.40620  0.34480  0.55970  Biso   1.000  O
  O115     1.0000 0.84380  0.34480  0.69030  Biso   1.000  O
  O116     1.0000 0.40620  0.90520  0.69030  Biso   1.000  O
  O117     1.0000 0.84380  0.40520  0.05970  Biso   1.000  O
  O118     1.0000 0.40620  0.84480  0.05970  Biso   1.000  O
  O119     1.0000 0.84380  0.84480  0.19030  Biso   1.000  O
  O120     1.0000 0.40620  0.40520  0.19030  Biso   1.000  O
  O121     1.0000 0.34380  0.90520  0.05970  Biso   1.000  O
  O122     1.0000 0.90620  0.34480  0.05970  Biso   1.000  O
  O123     1.0000 0.34380  0.34480  0.19030  Biso   1.000  O
  O124     1.0000 0.90620  0.90520  0.19030  Biso   1.000  O
  O125     1.0000 0.34380  0.40520  0.55970  Biso   1.000  O
  O126     1.0000 0.90620  0.84480  0.55970  Biso   1.000  O
  O127     1.0000 0.34380  0.84480  0.69030  Biso   1.000  O
  O128     1.0000 0.90620  0.40520  0.69030  Biso   1.000  O
  O129     1.0000 0.04390  0.12500  0.62500  Biso   1.000  O
  O130     1.0000 0.20610  0.12500  0.62500  Biso   1.000  O
  O131     1.0000 0.04390  0.62500  0.12500  Biso   1.000  O
  O132     1.0000 0.20610  0.62500  0.12500  Biso   1.000  O
  O133     1.0000 0.54390  0.12500  0.12500  Biso   1.000  O
  O134     1.0000 0.70610  0.12500  0.12500  Biso   1.000  O
  O135     1.0000 0.54390  0.62500  0.62500  Biso   1.000  O
  O136     1.0000 0.70610  0.62500  0.62500  Biso   1.000  O
  O137     1.0000 0.95610  0.87500  0.37500  Biso   1.000  O
  O138     1.0000 0.29390  0.37500  0.37500  Biso   1.000  O
  O139     1.0000 0.95610  0.37500  0.87500  Biso   1.000  O
  O140     1.0000 0.29390  0.87500  0.87500  Biso   1.000  O
  O141     1.0000 0.45610  0.87500  0.87500  Biso   1.000  O
  O142     1.0000 0.79390  0.37500  0.87500  Biso   1.000  O
  O143     1.0000 0.45610  0.37500  0.37500  Biso   1.000  O
  O144     1.0000 0.79390  0.87500  0.37500  Biso   1.000  O
  H289     1.0000 0.06400  0.13100  0.57200  Biso   1.000  H
  H290     1.0000 0.18600  0.11900  0.57200  Biso   1.000  H
  H291     1.0000 0.06400  0.11900  0.67800  Biso   1.000  H
  H292     1.0000 0.18600  0.13100  0.67800  Biso   1.000  H
  H293     1.0000 0.06400  0.63100  0.07200  Biso   1.000  H
  H294     1.0000 0.18600  0.61900  0.07200  Biso   1.000  H
  H295     1.0000 0.06400  0.61900  0.17800  Biso   1.000  H
  H296     1.0000 0.18600  0.63100  0.17800  Biso   1.000  H
  H297     1.0000 0.56400  0.13100  0.07200  Biso   1.000  H
  H298     1.0000 0.68600  0.11900  0.07200  Biso   1.000  H
  H299     1.0000 0.56400  0.11900  0.17800  Biso   1.000  H
  H300     1.0000 0.68600  0.13100  0.17800  Biso   1.000  H
  H301     1.0000 0.56400  0.63100  0.57200  Biso   1.000  H
  H302     1.0000 0.68600  0.61900  0.57200  Biso   1.000  H
  H303     1.0000 0.56400  0.61900  0.67800  Biso   1.000  H
  H304     1.0000 0.68600  0.63100  0.67800  Biso   1.000  H
  H305     1.0000 0.93600  0.86900  0.42800  Biso   1.000  H
  H306     1.0000 0.31400  0.38100  0.42800  Biso   1.000  H
  H307     1.0000 0.93600  0.38100  0.82200  Biso   1.000  H
  H308     1.0000 0.31400  0.86900  0.82200  Biso   1.000  H
  H309     1.0000 0.93600  0.36900  0.92800  Biso   1.000  H
  H310     1.0000 0.31400  0.88100  0.92800  Biso   1.000  H
  H311     1.0000 0.93600  0.88100  0.32200  Biso   1.000  H
  H312     1.0000 0.31400  0.36900  0.32200  Biso   1.000  H
  H313     1.0000 0.43600  0.86900  0.92800  Biso   1.000  H
  H314     1.0000 0.81400  0.38100  0.92800  Biso   1.000  H
  H315     1.0000 0.43600  0.38100  0.32200  Biso   1.000  H
  H316     1.0000 0.81400  0.86900  0.32200  Biso   1.000  H
  H317     1.0000 0.43600  0.36900  0.42800  Biso   1.000  H
  H318     1.0000 0.81400  0.88100  0.42800  Biso   1.000  H
  H319     1.0000 0.43600  0.88100  0.82200  Biso   1.000  H
  H320     1.0000 0.81400  0.36900  0.82200  Biso   1.000  H
  O145     1.0000 0.47050  0.06410  0.04600  Biso   1.000  O
  O146     1.0000 0.77950  0.18590  0.04600  Biso   1.000  O
  O147     1.0000 0.47050  0.18590  0.20400  Biso   1.000  O
  O148     1.0000 0.77950  0.06410  0.20400  Biso   1.000  O
  O149     1.0000 0.47050  0.56410  0.54600  Biso   1.000  O
  O150     1.0000 0.77950  0.68590  0.54600  Biso   1.000  O
  O151     1.0000 0.47050  0.68590  0.70400  Biso   1.000  O
  O152     1.0000 0.77950  0.56410  0.70400  Biso   1.000  O
  O153     1.0000 0.97050  0.06410  0.54600  Biso   1.000  O
  O154     1.0000 0.27950  0.18590  0.54600  Biso   1.000  O
  O155     1.0000 0.97050  0.18590  0.70400  Biso   1.000  O
  O156     1.0000 0.27950  0.06410  0.70400  Biso   1.000  O
  O157     1.0000 0.97050  0.56410  0.04600  Biso   1.000  O
  O158     1.0000 0.27950  0.68590  0.04600  Biso   1.000  O
  O159     1.0000 0.97050  0.68590  0.20400  Biso   1.000  O
  O160     1.0000 0.27950  0.56410  0.20400  Biso   1.000  O
  O161     1.0000 0.52950  0.93590  0.95400  Biso   1.000  O
  O162     1.0000 0.72050  0.31410  0.95400  Biso   1.000  O
  O163     1.0000 0.52950  0.31410  0.29600  Biso   1.000  O
  O164     1.0000 0.72050  0.93590  0.29600  Biso   1.000  O
  O165     1.0000 0.52950  0.43590  0.45400  Biso   1.000  O
  O166     1.0000 0.72050  0.81410  0.45400  Biso   1.000  O
  O167     1.0000 0.52950  0.81410  0.79600  Biso   1.000  O
  O168     1.0000 0.72050  0.43590  0.79600  Biso   1.000  O
  O169     1.0000 0.02950  0.93590  0.45400  Biso   1.000  O
  O170     1.0000 0.22050  0.31410  0.45400  Biso   1.000  O
  O171     1.0000 0.02950  0.31410  0.79600  Biso   1.000  O
  O172     1.0000 0.22050  0.93590  0.79600  Biso   1.000  O
  O173     1.0000 0.02950  0.43590  0.95400  Biso   1.000  O
  O174     1.0000 0.22050  0.81410  0.95400  Biso   1.000  O
  O175     1.0000 0.02950  0.81410  0.29600  Biso   1.000  O
  O176     1.0000 0.22050  0.43590  0.29600  Biso   1.000  O
  H321     1.0000 0.47400  0.03800  0.06700  Biso   1.000  H
  H322     1.0000 0.77600  0.21200  0.06700  Biso   1.000  H
  H323     1.0000 0.47400  0.21200  0.18300  Biso   1.000  H
  H324     1.0000 0.77600  0.03800  0.18300  Biso   1.000  H
  H325     1.0000 0.47400  0.53800  0.56700  Biso   1.000  H
  H326     1.0000 0.77600  0.71200  0.56700  Biso   1.000  H
  H327     1.0000 0.47400  0.71200  0.68300  Biso   1.000  H
  H328     1.0000 0.77600  0.53800  0.68300  Biso   1.000  H
  H329     1.0000 0.97400  0.03800  0.56700  Biso   1.000  H
  H330     1.0000 0.27600  0.21200  0.56700  Biso   1.000  H
  H331     1.0000 0.97400  0.21200  0.68300  Biso   1.000  H
  H332     1.0000 0.27600  0.03800  0.68300  Biso   1.000  H
  H333     1.0000 0.97400  0.53800  0.06700  Biso   1.000  H
  H334     1.0000 0.27600  0.71200  0.06700  Biso   1.000  H
  H335     1.0000 0.97400  0.71200  0.18300  Biso   1.000  H
  H336     1.0000 0.27600  0.53800  0.18300  Biso   1.000  H
  H337     1.0000 0.52600  0.96200  0.93300  Biso   1.000  H
  H338     1.0000 0.72400  0.28800  0.93300  Biso   1.000  H
  H339     1.0000 0.52600  0.28800  0.31700  Biso   1.000  H
  H340     1.0000 0.72400  0.96200  0.31700  Biso   1.000  H
  H341     1.0000 0.52600  0.46200  0.43300  Biso   1.000  H
  H342     1.0000 0.72400  0.78800  0.43300  Biso   1.000  H
  H343     1.0000 0.52600  0.78800  0.81700  Biso   1.000  H
  H344     1.0000 0.72400  0.46200  0.81700  Biso   1.000  H
  H345     1.0000 0.02600  0.96200  0.43300  Biso   1.000  H
  H346     1.0000 0.22400  0.28800  0.43300  Biso   1.000  H
  H347     1.0000 0.02600  0.28800  0.81700  Biso   1.000  H
  H348     1.0000 0.22400  0.96200  0.81700  Biso   1.000  H
  H349     1.0000 0.02600  0.46200  0.93300  Biso   1.000  H
  H350     1.0000 0.22400  0.78800  0.93300  Biso   1.000  H
  H351     1.0000 0.02600  0.78800  0.31700  Biso   1.000  H
  H352     1.0000 0.22400  0.46200  0.31700  Biso   1.000  H
  H353     1.0000 0.50200  0.08300  0.07800  Biso   1.000  H
  H354     1.0000 0.74800  0.16700  0.07800  Biso   1.000  H
  H355     1.0000 0.50200  0.16700  0.17200  Biso   1.000  H
  H356     1.0000 0.74800  0.08300  0.17200  Biso   1.000  H
  H357     1.0000 0.50200  0.58300  0.57800  Biso   1.000  H
  H358     1.0000 0.74800  0.66700  0.57800  Biso   1.000  H
  H359     1.0000 0.50200  0.66700  0.67200  Biso   1.000  H
  H360     1.0000 0.74800  0.58300  0.67200  Biso   1.000  H
  H361     1.0000 0.00200  0.08300  0.57800  Biso   1.000  H
  H362     1.0000 0.24800  0.16700  0.57800  Biso   1.000  H
  H363     1.0000 0.00200  0.16700  0.67200  Biso   1.000  H
  H364     1.0000 0.24800  0.08300  0.67200  Biso   1.000  H
  H365     1.0000 0.00200  0.58300  0.07800  Biso   1.000  H
  H366     1.0000 0.24800  0.66700  0.07800  Biso   1.000  H
  H367     1.0000 0.00200  0.66700  0.17200  Biso   1.000  H
  H368     1.0000 0.24800  0.58300  0.17200  Biso   1.000  H
  H369     1.0000 0.49800  0.91700  0.92200  Biso   1.000  H
  H370     1.0000 0.75200  0.33300  0.92200  Biso   1.000  H
  H371     1.0000 0.49800  0.33300  0.32800  Biso   1.000  H
  H372     1.0000 0.75200  0.91700  0.32800  Biso   1.000  H
  H373     1.0000 0.49800  0.41700  0.42200  Biso   1.000  H
  H374     1.0000 0.75200  0.83300  0.42200  Biso   1.000  H
  H375     1.0000 0.49800  0.83300  0.82800  Biso   1.000  H
  H376     1.0000 0.75200  0.41700  0.82800  Biso   1.000  H
  H377     1.0000 0.99800  0.91700  0.42200  Biso   1.000  H
  H378     1.0000 0.25200  0.33300  0.42200  Biso   1.000  H
  H379     1.0000 0.99800  0.33300  0.82800  Biso   1.000  H
  H380     1.0000 0.25200  0.91700  0.82800  Biso   1.000  H
  H381     1.0000 0.99800  0.41700  0.92200  Biso   1.000  H
  H382     1.0000 0.25200  0.83300  0.92200  Biso   1.000  H
  H383     1.0000 0.99800  0.83300  0.32800  Biso   1.000  H
  H384     1.0000 0.25200  0.41700  0.32800  Biso   1.000  H
  O177     1.0000 0.21750  0.22490  0.37640  Biso   1.000  O
  O178     1.0000 0.03250  0.02510  0.37640  Biso   1.000  O
  O179     1.0000 0.21750  0.02510  0.87360  Biso   1.000  O
  O180     1.0000 0.03250  0.22490  0.87360  Biso   1.000  O
  O181     1.0000 0.21750  0.72490  0.87640  Biso   1.000  O
  O182     1.0000 0.03250  0.52510  0.87640  Biso   1.000  O
  O183     1.0000 0.21750  0.52510  0.37360  Biso   1.000  O
  O184     1.0000 0.03250  0.72490  0.37360  Biso   1.000  O
  O185     1.0000 0.71750  0.22490  0.87640  Biso   1.000  O
  O186     1.0000 0.53250  0.02510  0.87640  Biso   1.000  O
  O187     1.0000 0.71750  0.02510  0.37360  Biso   1.000  O
  O188     1.0000 0.53250  0.22490  0.37360  Biso   1.000  O
  O189     1.0000 0.71750  0.72490  0.37640  Biso   1.000  O
  O190     1.0000 0.53250  0.52510  0.37640  Biso   1.000  O
  O191     1.0000 0.71750  0.52510  0.87360  Biso   1.000  O
  O192     1.0000 0.53250  0.72490  0.87360  Biso   1.000  O
  O193     1.0000 0.78250  0.77510  0.62360  Biso   1.000  O
  O194     1.0000 0.46750  0.47490  0.62360  Biso   1.000  O
  O195     1.0000 0.78250  0.47490  0.62640  Biso   1.000  O
  O196     1.0000 0.46750  0.77510  0.62640  Biso   1.000  O
  O197     1.0000 0.78250  0.27510  0.12360  Biso   1.000  O
  O198     1.0000 0.46750  0.97490  0.12360  Biso   1.000  O
  O199     1.0000 0.78250  0.97490  0.12640  Biso   1.000  O
  O200     1.0000 0.46750  0.27510  0.12640  Biso   1.000  O
  O201     1.0000 0.28250  0.77510  0.12360  Biso   1.000  O
  O202     1.0000 0.96750  0.47490  0.12360  Biso   1.000  O
  O203     1.0000 0.28250  0.47490  0.12640  Biso   1.000  O
  O204     1.0000 0.96750  0.77510  0.12640  Biso   1.000  O
  O205     1.0000 0.28250  0.27510  0.62360  Biso   1.000  O
  O206     1.0000 0.96750  0.97490  0.62360  Biso   1.000  O
  O207     1.0000 0.28250  0.97490  0.62640  Biso   1.000  O
  O208     1.0000 0.96750  0.27510  0.62640  Biso   1.000  O
  H385     1.0000 0.19700  0.20100  0.35400  Biso   1.000  H
  H386     1.0000 0.05300  0.04900  0.35400  Biso   1.000  H
  H387     1.0000 0.19700  0.04900  0.89600  Biso   1.000  H
  H388     1.0000 0.05300  0.20100  0.89600  Biso   1.000  H
  H389     1.0000 0.19700  0.70100  0.85400  Biso   1.000  H
  H390     1.0000 0.05300  0.54900  0.85400  Biso   1.000  H
  H391     1.0000 0.19700  0.54900  0.39600  Biso   1.000  H
  H392     1.0000 0.05300  0.70100  0.39600  Biso   1.000  H
  H393     1.0000 0.69700  0.20100  0.85400  Biso   1.000  H
  H394     1.0000 0.55300  0.04900  0.85400  Biso   1.000  H
  H395     1.0000 0.69700  0.04900  0.39600  Biso   1.000  H
  H396     1.0000 0.55300  0.20100  0.39600  Biso   1.000  H
  H397     1.0000 0.69700  0.70100  0.35400  Biso   1.000  H
  H398     1.0000 0.55300  0.54900  0.35400  Biso   1.000  H
  H399     1.0000 0.69700  0.54900  0.89600  Biso   1.000  H
  H400     1.0000 0.55300  0.70100  0.89600  Biso   1.000  H
  H401     1.0000 0.80300  0.79900  0.64600  Biso   1.000  H
  H402     1.0000 0.44700  0.45100  0.64600  Biso   1.000  H
  H403     1.0000 0.80300  0.45100  0.60400  Biso   1.000  H
  H404     1.0000 0.44700  0.79900  0.60400  Biso   1.000  H
  H405     1.0000 0.80300  0.29900  0.14600  Biso   1.000  H
  H406     1.0000 0.44700  0.95100  0.14600  Biso   1.000  H
  H407     1.0000 0.80300  0.95100  0.10400  Biso   1.000  H
  H408     1.0000 0.44700  0.29900  0.10400  Biso   1.000  H
  H409     1.0000 0.30300  0.79900  0.14600  Biso   1.000  H
  H410     1.0000 0.94700  0.45100  0.14600  Biso   1.000  H
  H411     1.0000 0.30300  0.45100  0.10400  Biso   1.000  H
  H412     1.0000 0.94700  0.79900  0.10400  Biso   1.000  H
  H413     1.0000 0.30300  0.29900  0.64600  Biso   1.000  H
  H414     1.0000 0.94700  0.95100  0.64600  Biso   1.000  H
  H415     1.0000 0.30300  0.95100  0.60400  Biso   1.000  H
  H416     1.0000 0.94700  0.29900  0.60400  Biso   1.000  H
  H417     1.0000 0.23600  0.20700  0.42100  Biso   1.000  H
  H418     1.0000 0.01400  0.04300  0.42100  Biso   1.000  H
  H419     1.0000 0.23600  0.04300  0.82900  Biso   1.000  H
  H420     1.0000 0.01400  0.20700  0.82900  Biso   1.000  H
  H421     1.0000 0.23600  0.70700  0.92100  Biso   1.000  H
  H422     1.0000 0.01400  0.54300  0.92100  Biso   1.000  H
  H423     1.0000 0.23600  0.54300  0.32900  Biso   1.000  H
  H424     1.0000 0.01400  0.70700  0.32900  Biso   1.000  H
  H425     1.0000 0.73600  0.20700  0.92100  Biso   1.000  H
  H426     1.0000 0.51400  0.04300  0.92100  Biso   1.000  H
  H427     1.0000 0.73600  0.04300  0.32900  Biso   1.000  H
  H428     1.0000 0.51400  0.20700  0.32900  Biso   1.000  H
  H429     1.0000 0.73600  0.70700  0.42100  Biso   1.000  H
  H430     1.0000 0.51400  0.54300  0.42100  Biso   1.000  H
  H431     1.0000 0.73600  0.54300  0.82900  Biso   1.000  H
  H432     1.0000 0.51400  0.70700  0.82900  Biso   1.000  H
  H433     1.0000 0.76400  0.79300  0.57900  Biso   1.000  H
  H434     1.0000 0.48600  0.45700  0.57900  Biso   1.000  H
  H435     1.0000 0.76400  0.45700  0.67100  Biso   1.000  H
  H436     1.0000 0.48600  0.79300  0.67100  Biso   1.000  H
  H437     1.0000 0.76400  0.29300  0.07900  Biso   1.000  H
  H438     1.0000 0.48600  0.95700  0.07900  Biso   1.000  H
  H439     1.0000 0.76400  0.95700  0.17100  Biso   1.000  H
  H440     1.0000 0.48600  0.29300  0.17100  Biso   1.000  H
  H441     1.0000 0.26400  0.79300  0.07900  Biso   1.000  H
  H442     1.0000 0.98600  0.45700  0.07900  Biso   1.000  H
  H443     1.0000 0.26400  0.45700  0.17100  Biso   1.000  H
  H444     1.0000 0.98600  0.79300  0.17100  Biso   1.000  H
  H445     1.0000 0.26400  0.29300  0.57900  Biso   1.000  H
  H446     1.0000 0.98600  0.95700  0.57900  Biso   1.000  H
  H447     1.0000 0.26400  0.95700  0.67100  Biso   1.000  H
  H448     1.0000 0.98600  0.29300  0.67100  Biso   1.000  H
