data_image0
_cell_length_a       19.6939
_cell_length_b       27.4554
_cell_length_c       41.4894
_cell_angle_alpha    90
_cell_angle_beta     90
_cell_angle_gamma    90

_symmetry_space_group_name_H-M    "P 1"
_symmetry_int_tables_number       1

loop_
  _symmetry_equiv_pos_as_xyz
  'x, y, z'

loop_
  _atom_site_label
  _atom_site_occupancy
  _atom_site_fract_x
  _atom_site_fract_y
  _atom_site_fract_z
  _atom_site_thermal_displace_type
  _atom_site_B_iso_or_equiv
  _atom_site_type_symbol
  Cu1      1.0000 0.18298  0.46137  0.09190  Biso   1.000  Cu
  Cu2      1.0000 0.56702  0.28863  0.09190  Biso   1.000  Cu
  Cu3      1.0000 0.56702  0.46137  0.65810  Biso   1.000  Cu
  Cu4      1.0000 0.18298  0.28863  0.65810  Biso   1.000  Cu
  Cu5      1.0000 0.18298  0.96137  0.59190  Biso   1.000  Cu
  Cu6      1.0000 0.56702  0.78863  0.59190  Biso   1.000  Cu
  Cu7      1.0000 0.56702  0.96137  0.15810  Biso   1.000  Cu
  Cu8      1.0000 0.18298  0.78863  0.15810  Biso   1.000  Cu
  Cu9      1.0000 0.68298  0.46137  0.59190  Biso   1.000  Cu
  Cu10     1.0000 0.06702  0.28863  0.59190  Biso   1.000  Cu
  Cu11     1.0000 0.06702  0.46137  0.15810  Biso   1.000  Cu
  Cu12     1.0000 0.68298  0.28863  0.15810  Biso   1.000  Cu
  Cu13     1.0000 0.68298  0.96137  0.09190  Biso   1.000  Cu
  Cu14     1.0000 0.06702  0.78863  0.09190  Biso   1.000  Cu
  Cu15     1.0000 0.06702  0.96137  0.65810  Biso   1.000  Cu
  Cu16     1.0000 0.68298  0.78863  0.65810  Biso   1.000  Cu
  Cu17     1.0000 0.81702  0.53863  0.90810  Biso   1.000  Cu
  Cu18     1.0000 0.93298  0.21137  0.90810  Biso   1.000  Cu
  Cu19     1.0000 0.93298  0.53863  0.84190  Biso   1.000  Cu
  Cu20     1.0000 0.81702  0.21137  0.84190  Biso   1.000  Cu
  Cu21     1.0000 0.81702  0.03863  0.40810  Biso   1.000  Cu
  Cu22     1.0000 0.93298  0.71137  0.40810  Biso   1.000  Cu
  Cu23     1.0000 0.93298  0.03863  0.34190  Biso   1.000  Cu
  Cu24     1.0000 0.81702  0.71137  0.34190  Biso   1.000  Cu
  Cu25     1.0000 0.31702  0.53863  0.40810  Biso   1.000  Cu
  Cu26     1.0000 0.43298  0.21137  0.40810  Biso   1.000  Cu
  Cu27     1.0000 0.43298  0.53863  0.34190  Biso   1.000  Cu
  Cu28     1.0000 0.31702  0.21137  0.34190  Biso   1.000  Cu
  Cu29     1.0000 0.31702  0.03863  0.90810  Biso   1.000  Cu
  Cu30     1.0000 0.43298  0.71137  0.90810  Biso   1.000  Cu
  Cu31     1.0000 0.43298  0.03863  0.84190  Biso   1.000  Cu
  Cu32     1.0000 0.31702  0.71137  0.84190  Biso   1.000  Cu
  Cu33     1.0000 0.14292  0.39080  0.02289  Biso   1.000  Cu
  Cu34     1.0000 0.60708  0.35920  0.02289  Biso   1.000  Cu
  Cu35     1.0000 0.60708  0.39080  0.72711  Biso   1.000  Cu
  Cu36     1.0000 0.14292  0.35920  0.72711  Biso   1.000  Cu
  Cu37     1.0000 0.14292  0.89080  0.52289  Biso   1.000  Cu
  Cu38     1.0000 0.60708  0.85920  0.52289  Biso   1.000  Cu
  Cu39     1.0000 0.60708  0.89080  0.22711  Biso   1.000  Cu
  Cu40     1.0000 0.14292  0.85920  0.22711  Biso   1.000  Cu
  Cu41     1.0000 0.64292  0.39080  0.52289  Biso   1.000  Cu
  Cu42     1.0000 0.10708  0.35920  0.52289  Biso   1.000  Cu
  Cu43     1.0000 0.10708  0.39080  0.22711  Biso   1.000  Cu
  Cu44     1.0000 0.64292  0.35920  0.22711  Biso   1.000  Cu
  Cu45     1.0000 0.64292  0.89080  0.02289  Biso   1.000  Cu
  Cu46     1.0000 0.10708  0.85920  0.02289  Biso   1.000  Cu
  Cu47     1.0000 0.10708  0.89080  0.72711  Biso   1.000  Cu
  Cu48     1.0000 0.64292  0.85920  0.72711  Biso   1.000  Cu
  Cu49     1.0000 0.85708  0.60920  0.97711  Biso   1.000  Cu
  Cu50     1.0000 0.89292  0.14080  0.97711  Biso   1.000  Cu
  Cu51     1.0000 0.89292  0.60920  0.77289  Biso   1.000  Cu
  Cu52     1.0000 0.85708  0.14080  0.77289  Biso   1.000  Cu
  Cu53     1.0000 0.85708  0.10920  0.47711  Biso   1.000  Cu
  Cu54     1.0000 0.89292  0.64080  0.47711  Biso   1.000  Cu
  Cu55     1.0000 0.89292  0.10920  0.27289  Biso   1.000  Cu
  Cu56     1.0000 0.85708  0.64080  0.27289  Biso   1.000  Cu
  Cu57     1.0000 0.35708  0.60920  0.47711  Biso   1.000  Cu
  Cu58     1.0000 0.39292  0.14080  0.47711  Biso   1.000  Cu
  Cu59     1.0000 0.39292  0.60920  0.27289  Biso   1.000  Cu
  Cu60     1.0000 0.35708  0.14080  0.27289  Biso   1.000  Cu
  Cu61     1.0000 0.35708  0.10920  0.97711  Biso   1.000  Cu
  Cu62     1.0000 0.39292  0.64080  0.97711  Biso   1.000  Cu
  Cu63     1.0000 0.39292  0.10920  0.77289  Biso   1.000  Cu
  Cu64     1.0000 0.35708  0.64080  0.77289  Biso   1.000  Cu
  Cl1      1.0000 0.22981  0.38199  0.05883  Biso   1.000  Cl
  Cl2      1.0000 0.52019  0.36801  0.05883  Biso   1.000  Cl
  Cl3      1.0000 0.52019  0.38199  0.69117  Biso   1.000  Cl
  Cl4      1.0000 0.22981  0.36801  0.69117  Biso   1.000  Cl
  Cl5      1.0000 0.22981  0.88199  0.55883  Biso   1.000  Cl
  Cl6      1.0000 0.52019  0.86801  0.55883  Biso   1.000  Cl
  Cl7      1.0000 0.52019  0.88199  0.19117  Biso   1.000  Cl
  Cl8      1.0000 0.22981  0.86801  0.19117  Biso   1.000  Cl
  Cl9      1.0000 0.72981  0.38199  0.55883  Biso   1.000  Cl
  Cl10     1.0000 0.02019  0.36801  0.55883  Biso   1.000  Cl
  Cl11     1.0000 0.02019  0.38199  0.19117  Biso   1.000  Cl
  Cl12     1.0000 0.72981  0.36801  0.19117  Biso   1.000  Cl
  Cl13     1.0000 0.72981  0.88199  0.05883  Biso   1.000  Cl
  Cl14     1.0000 0.02019  0.86801  0.05883  Biso   1.000  Cl
  Cl15     1.0000 0.02019  0.88199  0.69117  Biso   1.000  Cl
  Cl16     1.0000 0.72981  0.86801  0.69117  Biso   1.000  Cl
  Cl17     1.0000 0.77019  0.61801  0.94117  Biso   1.000  Cl
  Cl18     1.0000 0.97981  0.13199  0.94117  Biso   1.000  Cl
  Cl19     1.0000 0.97981  0.61801  0.80883  Biso   1.000  Cl
  Cl20     1.0000 0.77019  0.13199  0.80883  Biso   1.000  Cl
  Cl21     1.0000 0.77019  0.11801  0.44117  Biso   1.000  Cl
  Cl22     1.0000 0.97981  0.63199  0.44117  Biso   1.000  Cl
  Cl23     1.0000 0.97981  0.11801  0.30883  Biso   1.000  Cl
  Cl24     1.0000 0.77019  0.63199  0.30883  Biso   1.000  Cl
  Cl25     1.0000 0.27019  0.61801  0.44117  Biso   1.000  Cl
  Cl26     1.0000 0.47981  0.13199  0.44117  Biso   1.000  Cl
  Cl27     1.0000 0.47981  0.61801  0.30883  Biso   1.000  Cl
  Cl28     1.0000 0.27019  0.13199  0.30883  Biso   1.000  Cl
  Cl29     1.0000 0.27019  0.11801  0.94117  Biso   1.000  Cl
  Cl30     1.0000 0.47981  0.63199  0.94117  Biso   1.000  Cl
  Cl31     1.0000 0.47981  0.11801  0.80883  Biso   1.000  Cl
  Cl32     1.0000 0.27019  0.63199  0.80883  Biso   1.000  Cl
  Cl33     1.0000 0.12500  0.53016  0.12500  Biso   1.000  Cl
  Cl34     1.0000 0.62500  0.21984  0.12500  Biso   1.000  Cl
  Cl35     1.0000 0.62500  0.53016  0.62500  Biso   1.000  Cl
  Cl36     1.0000 0.12500  0.21984  0.62500  Biso   1.000  Cl
  Cl37     1.0000 0.12500  0.03016  0.62500  Biso   1.000  Cl
  Cl38     1.0000 0.62500  0.71984  0.62500  Biso   1.000  Cl
  Cl39     1.0000 0.62500  0.03016  0.12500  Biso   1.000  Cl
  Cl40     1.0000 0.12500  0.71984  0.12500  Biso   1.000  Cl
  Cl41     1.0000 0.87500  0.46984  0.87500  Biso   1.000  Cl
  Cl42     1.0000 0.87500  0.28016  0.87500  Biso   1.000  Cl
  Cl43     1.0000 0.87500  0.96984  0.37500  Biso   1.000  Cl
  Cl44     1.0000 0.87500  0.78016  0.37500  Biso   1.000  Cl
  Cl45     1.0000 0.37500  0.46984  0.37500  Biso   1.000  Cl
  Cl46     1.0000 0.37500  0.28016  0.37500  Biso   1.000  Cl
  Cl47     1.0000 0.37500  0.96984  0.87500  Biso   1.000  Cl
  Cl48     1.0000 0.37500  0.78016  0.87500  Biso   1.000  Cl
  N1       1.0000 0.15010  0.49158  0.99683  Biso   1.000  N
  N2       1.0000 0.59990  0.25842  0.99683  Biso   1.000  N
  N3       1.0000 0.59990  0.49158  0.75317  Biso   1.000  N
  N4       1.0000 0.15010  0.25842  0.75317  Biso   1.000  N
  N5       1.0000 0.15010  0.99158  0.49683  Biso   1.000  N
  N6       1.0000 0.59990  0.75842  0.49683  Biso   1.000  N
  N7       1.0000 0.59990  0.99158  0.25317  Biso   1.000  N
  N8       1.0000 0.15010  0.75842  0.25317  Biso   1.000  N
  N9       1.0000 0.65010  0.49158  0.49683  Biso   1.000  N
  N10      1.0000 0.09990  0.25842  0.49683  Biso   1.000  N
  N11      1.0000 0.09990  0.49158  0.25317  Biso   1.000  N
  N12      1.0000 0.65010  0.25842  0.25317  Biso   1.000  N
  N13      1.0000 0.65010  0.99158  0.99683  Biso   1.000  N
  N14      1.0000 0.09990  0.75842  0.99683  Biso   1.000  N
  N15      1.0000 0.09990  0.99158  0.75317  Biso   1.000  N
  N16      1.0000 0.65010  0.75842  0.75317  Biso   1.000  N
  N17      1.0000 0.84990  0.50842  0.00317  Biso   1.000  N
  N18      1.0000 0.90010  0.24158  0.00317  Biso   1.000  N
  N19      1.0000 0.90010  0.50842  0.74683  Biso   1.000  N
  N20      1.0000 0.84990  0.24158  0.74683  Biso   1.000  N
  N21      1.0000 0.84990  0.00842  0.50317  Biso   1.000  N
  N22      1.0000 0.90010  0.74158  0.50317  Biso   1.000  N
  N23      1.0000 0.90010  0.00842  0.24683  Biso   1.000  N
  N24      1.0000 0.84990  0.74158  0.24683  Biso   1.000  N
  N25      1.0000 0.34990  0.50842  0.50317  Biso   1.000  N
  N26      1.0000 0.40010  0.24158  0.50317  Biso   1.000  N
  N27      1.0000 0.40010  0.50842  0.24683  Biso   1.000  N
  N28      1.0000 0.34990  0.24158  0.24683  Biso   1.000  N
  N29      1.0000 0.34990  0.00842  0.00317  Biso   1.000  N
  N30      1.0000 0.40010  0.74158  0.00317  Biso   1.000  N
  N31      1.0000 0.40010  0.00842  0.74683  Biso   1.000  N
  N32      1.0000 0.34990  0.74158  0.74683  Biso   1.000  N
  N33      1.0000 0.15810  0.46257  0.02231  Biso   1.000  N
  N34      1.0000 0.59190  0.28743  0.02231  Biso   1.000  N
  N35      1.0000 0.59190  0.46257  0.72769  Biso   1.000  N
  N36      1.0000 0.15810  0.28743  0.72769  Biso   1.000  N
  N37      1.0000 0.15810  0.96257  0.52231  Biso   1.000  N
  N38      1.0000 0.59190  0.78743  0.52231  Biso   1.000  N
  N39      1.0000 0.59190  0.96257  0.22769  Biso   1.000  N
  N40      1.0000 0.15810  0.78743  0.22769  Biso   1.000  N
  N41      1.0000 0.65810  0.46257  0.52231  Biso   1.000  N
  N42      1.0000 0.09190  0.28743  0.52231  Biso   1.000  N
  N43      1.0000 0.09190  0.46257  0.22769  Biso   1.000  N
  N44      1.0000 0.65810  0.28743  0.22769  Biso   1.000  N
  N45      1.0000 0.65810  0.96257  0.02231  Biso   1.000  N
  N46      1.0000 0.09190  0.78743  0.02231  Biso   1.000  N
  N47      1.0000 0.09190  0.96257  0.72769  Biso   1.000  N
  N48      1.0000 0.65810  0.78743  0.72769  Biso   1.000  N
  N49      1.0000 0.84190  0.53743  0.97769  Biso   1.000  N
  N50      1.0000 0.90810  0.21257  0.97769  Biso   1.000  N
  N51      1.0000 0.90810  0.53743  0.77231  Biso   1.000  N
  N52      1.0000 0.84190  0.21257  0.77231  Biso   1.000  N
  N53      1.0000 0.84190  0.03743  0.47769  Biso   1.000  N
  N54      1.0000 0.90810  0.71257  0.47769  Biso   1.000  N
  N55      1.0000 0.90810  0.03743  0.27231  Biso   1.000  N
  N56      1.0000 0.84190  0.71257  0.27231  Biso   1.000  N
  N57      1.0000 0.34190  0.53743  0.47769  Biso   1.000  N
  N58      1.0000 0.40810  0.21257  0.47769  Biso   1.000  N
  N59      1.0000 0.40810  0.53743  0.27231  Biso   1.000  N
  N60      1.0000 0.34190  0.21257  0.27231  Biso   1.000  N
  N61      1.0000 0.34190  0.03743  0.97769  Biso   1.000  N
  N62      1.0000 0.40810  0.71257  0.97769  Biso   1.000  N
  N63      1.0000 0.40810  0.03743  0.77231  Biso   1.000  N
  N64      1.0000 0.34190  0.71257  0.77231  Biso   1.000  N
  N65      1.0000 0.16800  0.48935  0.04824  Biso   1.000  N
  N66      1.0000 0.58200  0.26065  0.04824  Biso   1.000  N
  N67      1.0000 0.58200  0.48935  0.70176  Biso   1.000  N
  N68      1.0000 0.16800  0.26065  0.70176  Biso   1.000  N
  N69      1.0000 0.16800  0.98935  0.54824  Biso   1.000  N
  N70      1.0000 0.58200  0.76065  0.54824  Biso   1.000  N
  N71      1.0000 0.58200  0.98935  0.20176  Biso   1.000  N
  N72      1.0000 0.16800  0.76065  0.20176  Biso   1.000  N
  N73      1.0000 0.66800  0.48935  0.54824  Biso   1.000  N
  N74      1.0000 0.08200  0.26065  0.54824  Biso   1.000  N
  N75      1.0000 0.08200  0.48935  0.20176  Biso   1.000  N
  N76      1.0000 0.66800  0.26065  0.20176  Biso   1.000  N
  N77      1.0000 0.66800  0.98935  0.04824  Biso   1.000  N
  N78      1.0000 0.08200  0.76065  0.04824  Biso   1.000  N
  N79      1.0000 0.08200  0.98935  0.70176  Biso   1.000  N
  N80      1.0000 0.66800  0.76065  0.70176  Biso   1.000  N
  N81      1.0000 0.83200  0.51065  0.95176  Biso   1.000  N
  N82      1.0000 0.91800  0.23935  0.95176  Biso   1.000  N
  N83      1.0000 0.91800  0.51065  0.79824  Biso   1.000  N
  N84      1.0000 0.83200  0.23935  0.79824  Biso   1.000  N
  N85      1.0000 0.83200  0.01065  0.45176  Biso   1.000  N
  N86      1.0000 0.91800  0.73935  0.45176  Biso   1.000  N
  N87      1.0000 0.91800  0.01065  0.29824  Biso   1.000  N
  N88      1.0000 0.83200  0.73935  0.29824  Biso   1.000  N
  N89      1.0000 0.33200  0.51065  0.45176  Biso   1.000  N
  N90      1.0000 0.41800  0.23935  0.45176  Biso   1.000  N
  N91      1.0000 0.41800  0.51065  0.29824  Biso   1.000  N
  N92      1.0000 0.33200  0.23935  0.29824  Biso   1.000  N
  N93      1.0000 0.33200  0.01065  0.95176  Biso   1.000  N
  N94      1.0000 0.41800  0.73935  0.95176  Biso   1.000  N
  N95      1.0000 0.41800  0.01065  0.79824  Biso   1.000  N
  N96      1.0000 0.33200  0.73935  0.79824  Biso   1.000  N
  N97      1.0000 0.16530  0.53643  0.04057  Biso   1.000  N
  N98      1.0000 0.58470  0.21357  0.04057  Biso   1.000  N
  N99      1.0000 0.58470  0.53643  0.70943  Biso   1.000  N
  N100     1.0000 0.16530  0.21357  0.70943  Biso   1.000  N
  N101     1.0000 0.16530  0.03643  0.54057  Biso   1.000  N
  N102     1.0000 0.58470  0.71357  0.54057  Biso   1.000  N
  N103     1.0000 0.58470  0.03643  0.20943  Biso   1.000  N
  N104     1.0000 0.16530  0.71357  0.20943  Biso   1.000  N
  N105     1.0000 0.66530  0.53643  0.54057  Biso   1.000  N
  N106     1.0000 0.08470  0.21357  0.54057  Biso   1.000  N
  N107     1.0000 0.08470  0.53643  0.20943  Biso   1.000  N
  N108     1.0000 0.66530  0.21357  0.20943  Biso   1.000  N
  N109     1.0000 0.66530  0.03643  0.04057  Biso   1.000  N
  N110     1.0000 0.08470  0.71357  0.04057  Biso   1.000  N
  N111     1.0000 0.08470  0.03643  0.70943  Biso   1.000  N
  N112     1.0000 0.66530  0.71357  0.70943  Biso   1.000  N
  N113     1.0000 0.83470  0.46357  0.95943  Biso   1.000  N
  N114     1.0000 0.91530  0.28643  0.95943  Biso   1.000  N
  N115     1.0000 0.91530  0.46357  0.79057  Biso   1.000  N
  N116     1.0000 0.83470  0.28643  0.79057  Biso   1.000  N
  N117     1.0000 0.83470  0.96357  0.45943  Biso   1.000  N
  N118     1.0000 0.91530  0.78643  0.45943  Biso   1.000  N
  N119     1.0000 0.91530  0.96357  0.29057  Biso   1.000  N
  N120     1.0000 0.83470  0.78643  0.29057  Biso   1.000  N
  N121     1.0000 0.33470  0.46357  0.45943  Biso   1.000  N
  N122     1.0000 0.41530  0.28643  0.45943  Biso   1.000  N
  N123     1.0000 0.41530  0.46357  0.29057  Biso   1.000  N
  N124     1.0000 0.33470  0.28643  0.29057  Biso   1.000  N
  N125     1.0000 0.33470  0.96357  0.95943  Biso   1.000  N
  N126     1.0000 0.41530  0.78643  0.95943  Biso   1.000  N
  N127     1.0000 0.41530  0.96357  0.79057  Biso   1.000  N
  N128     1.0000 0.33470  0.78643  0.79057  Biso   1.000  N
  N129     1.0000 0.30960  0.65907  0.93444  Biso   1.000  N
  N130     1.0000 0.44040  0.09093  0.93444  Biso   1.000  N
  N131     1.0000 0.44040  0.65907  0.81556  Biso   1.000  N
  N132     1.0000 0.30960  0.09093  0.81556  Biso   1.000  N
  N133     1.0000 0.30960  0.15907  0.43444  Biso   1.000  N
  N134     1.0000 0.44040  0.59093  0.43444  Biso   1.000  N
  N135     1.0000 0.44040  0.15907  0.31556  Biso   1.000  N
  N136     1.0000 0.30960  0.59093  0.31556  Biso   1.000  N
  N137     1.0000 0.80960  0.65907  0.43444  Biso   1.000  N
  N138     1.0000 0.94040  0.09093  0.43444  Biso   1.000  N
  N139     1.0000 0.94040  0.65907  0.31556  Biso   1.000  N
  N140     1.0000 0.80960  0.09093  0.31556  Biso   1.000  N
  N141     1.0000 0.80960  0.15907  0.93444  Biso   1.000  N
  N142     1.0000 0.94040  0.59093  0.93444  Biso   1.000  N
  N143     1.0000 0.94040  0.15907  0.81556  Biso   1.000  N
  N144     1.0000 0.80960  0.59093  0.81556  Biso   1.000  N
  N145     1.0000 0.69040  0.34093  0.06556  Biso   1.000  N
  N146     1.0000 0.05960  0.40907  0.06556  Biso   1.000  N
  N147     1.0000 0.05960  0.34093  0.68444  Biso   1.000  N
  N148     1.0000 0.69040  0.40907  0.68444  Biso   1.000  N
  N149     1.0000 0.69040  0.84093  0.56556  Biso   1.000  N
  N150     1.0000 0.05960  0.90907  0.56556  Biso   1.000  N
  N151     1.0000 0.05960  0.84093  0.18444  Biso   1.000  N
  N152     1.0000 0.69040  0.90907  0.18444  Biso   1.000  N
  N153     1.0000 0.19040  0.34093  0.56556  Biso   1.000  N
  N154     1.0000 0.55960  0.40907  0.56556  Biso   1.000  N
  N155     1.0000 0.55960  0.34093  0.18444  Biso   1.000  N
  N156     1.0000 0.19040  0.40907  0.18444  Biso   1.000  N
  N157     1.0000 0.19040  0.84093  0.06556  Biso   1.000  N
  N158     1.0000 0.55960  0.90907  0.06556  Biso   1.000  N
  N159     1.0000 0.55960  0.84093  0.68444  Biso   1.000  N
  N160     1.0000 0.19040  0.90907  0.68444  Biso   1.000  N
  N161     1.0000 0.34050  0.67851  0.90876  Biso   1.000  N
  N162     1.0000 0.40950  0.07149  0.90876  Biso   1.000  N
  N163     1.0000 0.40950  0.67851  0.84124  Biso   1.000  N
  N164     1.0000 0.34050  0.07149  0.84124  Biso   1.000  N
  N165     1.0000 0.34050  0.17851  0.40876  Biso   1.000  N
  N166     1.0000 0.40950  0.57149  0.40876  Biso   1.000  N
  N167     1.0000 0.40950  0.17851  0.34124  Biso   1.000  N
  N168     1.0000 0.34050  0.57149  0.34124  Biso   1.000  N
  N169     1.0000 0.84050  0.67851  0.40876  Biso   1.000  N
  N170     1.0000 0.90950  0.07149  0.40876  Biso   1.000  N
  N171     1.0000 0.90950  0.67851  0.34124  Biso   1.000  N
  N172     1.0000 0.84050  0.07149  0.34124  Biso   1.000  N
  N173     1.0000 0.84050  0.17851  0.90876  Biso   1.000  N
  N174     1.0000 0.90950  0.57149  0.90876  Biso   1.000  N
  N175     1.0000 0.90950  0.17851  0.84124  Biso   1.000  N
  N176     1.0000 0.84050  0.57149  0.84124  Biso   1.000  N
  N177     1.0000 0.65950  0.32149  0.09124  Biso   1.000  N
  N178     1.0000 0.09050  0.42851  0.09124  Biso   1.000  N
  N179     1.0000 0.09050  0.32149  0.65876  Biso   1.000  N
  N180     1.0000 0.65950  0.42851  0.65876  Biso   1.000  N
  N181     1.0000 0.65950  0.82149  0.59124  Biso   1.000  N
  N182     1.0000 0.09050  0.92851  0.59124  Biso   1.000  N
  N183     1.0000 0.09050  0.82149  0.15876  Biso   1.000  N
  N184     1.0000 0.65950  0.92851  0.15876  Biso   1.000  N
  N185     1.0000 0.15950  0.32149  0.59124  Biso   1.000  N
  N186     1.0000 0.59050  0.42851  0.59124  Biso   1.000  N
  N187     1.0000 0.59050  0.32149  0.15876  Biso   1.000  N
  N188     1.0000 0.15950  0.42851  0.15876  Biso   1.000  N
  N189     1.0000 0.15950  0.82149  0.09124  Biso   1.000  N
  N190     1.0000 0.59050  0.92851  0.09124  Biso   1.000  N
  N191     1.0000 0.59050  0.82149  0.65876  Biso   1.000  N
  N192     1.0000 0.15950  0.92851  0.65876  Biso   1.000  N
  N193     1.0000 0.29810  0.68096  0.88483  Biso   1.000  N
  N194     1.0000 0.45190  0.06904  0.88483  Biso   1.000  N
  N195     1.0000 0.45190  0.68096  0.86517  Biso   1.000  N
  N196     1.0000 0.29810  0.06904  0.86517  Biso   1.000  N
  N197     1.0000 0.29810  0.18096  0.38483  Biso   1.000  N
  N198     1.0000 0.45190  0.56904  0.38483  Biso   1.000  N
  N199     1.0000 0.45190  0.18096  0.36517  Biso   1.000  N
  N200     1.0000 0.29810  0.56904  0.36517  Biso   1.000  N
  N201     1.0000 0.79810  0.68096  0.38483  Biso   1.000  N
  N202     1.0000 0.95190  0.06904  0.38483  Biso   1.000  N
  N203     1.0000 0.95190  0.68096  0.36517  Biso   1.000  N
  N204     1.0000 0.79810  0.06904  0.36517  Biso   1.000  N
  N205     1.0000 0.79810  0.18096  0.88483  Biso   1.000  N
  N206     1.0000 0.95190  0.56904  0.88483  Biso   1.000  N
  N207     1.0000 0.95190  0.18096  0.86517  Biso   1.000  N
  N208     1.0000 0.79810  0.56904  0.86517  Biso   1.000  N
  N209     1.0000 0.70190  0.31904  0.11517  Biso   1.000  N
  N210     1.0000 0.04810  0.43096  0.11517  Biso   1.000  N
  N211     1.0000 0.04810  0.31904  0.63483  Biso   1.000  N
  N212     1.0000 0.70190  0.43096  0.63483  Biso   1.000  N
  N213     1.0000 0.70190  0.81904  0.61517  Biso   1.000  N
  N214     1.0000 0.04810  0.93096  0.61517  Biso   1.000  N
  N215     1.0000 0.04810  0.81904  0.13483  Biso   1.000  N
  N216     1.0000 0.70190  0.93096  0.13483  Biso   1.000  N
  N217     1.0000 0.20190  0.31904  0.61517  Biso   1.000  N
  N218     1.0000 0.54810  0.43096  0.61517  Biso   1.000  N
  N219     1.0000 0.54810  0.31904  0.13483  Biso   1.000  N
  N220     1.0000 0.20190  0.43096  0.13483  Biso   1.000  N
  N221     1.0000 0.20190  0.81904  0.11517  Biso   1.000  N
  N222     1.0000 0.54810  0.93096  0.11517  Biso   1.000  N
  N223     1.0000 0.54810  0.81904  0.63483  Biso   1.000  N
  N224     1.0000 0.20190  0.93096  0.63483  Biso   1.000  N
  N225     1.0000 0.23760  0.66356  0.89345  Biso   1.000  N
  N226     1.0000 0.51240  0.08644  0.89345  Biso   1.000  N
  N227     1.0000 0.51240  0.66356  0.85655  Biso   1.000  N
  N228     1.0000 0.23760  0.08644  0.85655  Biso   1.000  N
  N229     1.0000 0.23760  0.16356  0.39345  Biso   1.000  N
  N230     1.0000 0.51240  0.58644  0.39345  Biso   1.000  N
  N231     1.0000 0.51240  0.16356  0.35655  Biso   1.000  N
  N232     1.0000 0.23760  0.58644  0.35655  Biso   1.000  N
  N233     1.0000 0.73760  0.66356  0.39345  Biso   1.000  N
  N234     1.0000 0.01240  0.08644  0.39345  Biso   1.000  N
  N235     1.0000 0.01240  0.66356  0.35655  Biso   1.000  N
  N236     1.0000 0.73760  0.08644  0.35655  Biso   1.000  N
  N237     1.0000 0.73760  0.16356  0.89345  Biso   1.000  N
  N238     1.0000 0.01240  0.58644  0.89345  Biso   1.000  N
  N239     1.0000 0.01240  0.16356  0.85655  Biso   1.000  N
  N240     1.0000 0.73760  0.58644  0.85655  Biso   1.000  N
  N241     1.0000 0.76240  0.33644  0.10655  Biso   1.000  N
  N242     1.0000 0.98760  0.41356  0.10655  Biso   1.000  N
  N243     1.0000 0.98760  0.33644  0.64345  Biso   1.000  N
  N244     1.0000 0.76240  0.41356  0.64345  Biso   1.000  N
  N245     1.0000 0.76240  0.83644  0.60655  Biso   1.000  N
  N246     1.0000 0.98760  0.91356  0.60655  Biso   1.000  N
  N247     1.0000 0.98760  0.83644  0.14345  Biso   1.000  N
  N248     1.0000 0.76240  0.91356  0.14345  Biso   1.000  N
  N249     1.0000 0.26240  0.33644  0.60655  Biso   1.000  N
  N250     1.0000 0.48760  0.41356  0.60655  Biso   1.000  N
  N251     1.0000 0.48760  0.33644  0.14345  Biso   1.000  N
  N252     1.0000 0.26240  0.41356  0.14345  Biso   1.000  N
  N253     1.0000 0.26240  0.83644  0.10655  Biso   1.000  N
  N254     1.0000 0.48760  0.91356  0.10655  Biso   1.000  N
  N255     1.0000 0.48760  0.83644  0.64345  Biso   1.000  N
  N256     1.0000 0.26240  0.91356  0.64345  Biso   1.000  N
  C1       1.0000 0.15410  0.53660  0.00893  Biso   1.000  C
  C2       1.0000 0.59590  0.21340  0.00893  Biso   1.000  C
  C3       1.0000 0.59590  0.53660  0.74107  Biso   1.000  C
  C4       1.0000 0.15410  0.21340  0.74107  Biso   1.000  C
  C5       1.0000 0.15410  0.03660  0.50893  Biso   1.000  C
  C6       1.0000 0.59590  0.71340  0.50893  Biso   1.000  C
  C7       1.0000 0.59590  0.03660  0.24107  Biso   1.000  C
  C8       1.0000 0.15410  0.71340  0.24107  Biso   1.000  C
  C9       1.0000 0.65410  0.53660  0.50893  Biso   1.000  C
  C10      1.0000 0.09590  0.21340  0.50893  Biso   1.000  C
  C11      1.0000 0.09590  0.53660  0.24107  Biso   1.000  C
  C12      1.0000 0.65410  0.21340  0.24107  Biso   1.000  C
  C13      1.0000 0.65410  0.03660  0.00893  Biso   1.000  C
  C14      1.0000 0.09590  0.71340  0.00893  Biso   1.000  C
  C15      1.0000 0.09590  0.03660  0.74107  Biso   1.000  C
  C16      1.0000 0.65410  0.71340  0.74107  Biso   1.000  C
  C17      1.0000 0.84590  0.46340  0.99107  Biso   1.000  C
  C18      1.0000 0.90410  0.28660  0.99107  Biso   1.000  C
  C19      1.0000 0.90410  0.46340  0.75893  Biso   1.000  C
  C20      1.0000 0.84590  0.28660  0.75893  Biso   1.000  C
  C21      1.0000 0.84590  0.96340  0.49107  Biso   1.000  C
  C22      1.0000 0.90410  0.78660  0.49107  Biso   1.000  C
  C23      1.0000 0.90410  0.96340  0.25893  Biso   1.000  C
  C24      1.0000 0.84590  0.78660  0.25893  Biso   1.000  C
  C25      1.0000 0.34590  0.46340  0.49107  Biso   1.000  C
  C26      1.0000 0.40410  0.28660  0.49107  Biso   1.000  C
  C27      1.0000 0.40410  0.46340  0.25893  Biso   1.000  C
  C28      1.0000 0.34590  0.28660  0.25893  Biso   1.000  C
  C29      1.0000 0.34590  0.96340  0.99107  Biso   1.000  C
  C30      1.0000 0.40410  0.78660  0.99107  Biso   1.000  C
  C31      1.0000 0.40410  0.96340  0.75893  Biso   1.000  C
  C32      1.0000 0.34590  0.78660  0.75893  Biso   1.000  C
  C33      1.0000 0.14120  0.58080  0.98832  Biso   1.000  C
  C34      1.0000 0.60880  0.16920  0.98832  Biso   1.000  C
  C35      1.0000 0.60880  0.58080  0.76168  Biso   1.000  C
  C36      1.0000 0.14120  0.16920  0.76168  Biso   1.000  C
  C37      1.0000 0.14120  0.08080  0.48832  Biso   1.000  C
  C38      1.0000 0.60880  0.66920  0.48832  Biso   1.000  C
  C39      1.0000 0.60880  0.08080  0.26168  Biso   1.000  C
  C40      1.0000 0.14120  0.66920  0.26168  Biso   1.000  C
  C41      1.0000 0.64120  0.58080  0.48832  Biso   1.000  C
  C42      1.0000 0.10880  0.16920  0.48832  Biso   1.000  C
  C43      1.0000 0.10880  0.58080  0.26168  Biso   1.000  C
  C44      1.0000 0.64120  0.16920  0.26168  Biso   1.000  C
  C45      1.0000 0.64120  0.08080  0.98832  Biso   1.000  C
  C46      1.0000 0.10880  0.66920  0.98832  Biso   1.000  C
  C47      1.0000 0.10880  0.08080  0.76168  Biso   1.000  C
  C48      1.0000 0.64120  0.66920  0.76168  Biso   1.000  C
  C49      1.0000 0.85880  0.41920  0.01168  Biso   1.000  C
  C50      1.0000 0.89120  0.33080  0.01168  Biso   1.000  C
  C51      1.0000 0.89120  0.41920  0.73832  Biso   1.000  C
  C52      1.0000 0.85880  0.33080  0.73832  Biso   1.000  C
  C53      1.0000 0.85880  0.91920  0.51168  Biso   1.000  C
  C54      1.0000 0.89120  0.83080  0.51168  Biso   1.000  C
  C55      1.0000 0.89120  0.91920  0.23832  Biso   1.000  C
  C56      1.0000 0.85880  0.83080  0.23832  Biso   1.000  C
  C57      1.0000 0.35880  0.41920  0.51168  Biso   1.000  C
  C58      1.0000 0.39120  0.33080  0.51168  Biso   1.000  C
  C59      1.0000 0.39120  0.41920  0.23832  Biso   1.000  C
  C60      1.0000 0.35880  0.33080  0.23832  Biso   1.000  C
  C61      1.0000 0.35880  0.91920  0.01168  Biso   1.000  C
  C62      1.0000 0.39120  0.83080  0.01168  Biso   1.000  C
  C63      1.0000 0.39120  0.91920  0.73832  Biso   1.000  C
  C64      1.0000 0.35880  0.83080  0.73832  Biso   1.000  C
  C65      1.0000 0.20270  0.59150  0.96674  Biso   1.000  C
  C66      1.0000 0.54730  0.15850  0.96674  Biso   1.000  C
  C67      1.0000 0.54730  0.59150  0.78326  Biso   1.000  C
  C68      1.0000 0.20270  0.15850  0.78326  Biso   1.000  C
  C69      1.0000 0.20270  0.09150  0.46674  Biso   1.000  C
  C70      1.0000 0.54730  0.65850  0.46674  Biso   1.000  C
  C71      1.0000 0.54730  0.09150  0.28326  Biso   1.000  C
  C72      1.0000 0.20270  0.65850  0.28326  Biso   1.000  C
  C73      1.0000 0.70270  0.59150  0.46674  Biso   1.000  C
  C74      1.0000 0.04730  0.15850  0.46674  Biso   1.000  C
  C75      1.0000 0.04730  0.59150  0.28326  Biso   1.000  C
  C76      1.0000 0.70270  0.15850  0.28326  Biso   1.000  C
  C77      1.0000 0.70270  0.09150  0.96674  Biso   1.000  C
  C78      1.0000 0.04730  0.65850  0.96674  Biso   1.000  C
  C79      1.0000 0.04730  0.09150  0.78326  Biso   1.000  C
  C80      1.0000 0.70270  0.65850  0.78326  Biso   1.000  C
  C81      1.0000 0.79730  0.40850  0.03326  Biso   1.000  C
  C82      1.0000 0.95270  0.34150  0.03326  Biso   1.000  C
  C83      1.0000 0.95270  0.40850  0.71674  Biso   1.000  C
  C84      1.0000 0.79730  0.34150  0.71674  Biso   1.000  C
  C85      1.0000 0.79730  0.90850  0.53326  Biso   1.000  C
  C86      1.0000 0.95270  0.84150  0.53326  Biso   1.000  C
  C87      1.0000 0.95270  0.90850  0.21674  Biso   1.000  C
  C88      1.0000 0.79730  0.84150  0.21674  Biso   1.000  C
  C89      1.0000 0.29730  0.40850  0.53326  Biso   1.000  C
  C90      1.0000 0.45270  0.34150  0.53326  Biso   1.000  C
  C91      1.0000 0.45270  0.40850  0.21674  Biso   1.000  C
  C92      1.0000 0.29730  0.34150  0.21674  Biso   1.000  C
  C93      1.0000 0.29730  0.90850  0.03326  Biso   1.000  C
  C94      1.0000 0.45270  0.84150  0.03326  Biso   1.000  C
  C95      1.0000 0.45270  0.90850  0.71674  Biso   1.000  C
  C96      1.0000 0.29730  0.84150  0.71674  Biso   1.000  C
  H1       1.0000 0.24300  0.59830  0.98030  Biso   1.000  H
  H2       1.0000 0.50700  0.15170  0.98030  Biso   1.000  H
  H3       1.0000 0.50700  0.59830  0.76970  Biso   1.000  H
  H4       1.0000 0.24300  0.15170  0.76970  Biso   1.000  H
  H5       1.0000 0.24300  0.09830  0.48030  Biso   1.000  H
  H6       1.0000 0.50700  0.65170  0.48030  Biso   1.000  H
  H7       1.0000 0.50700  0.09830  0.26970  Biso   1.000  H
  H8       1.0000 0.24300  0.65170  0.26970  Biso   1.000  H
  H9       1.0000 0.74300  0.59830  0.48030  Biso   1.000  H
  H10      1.0000 0.00700  0.15170  0.48030  Biso   1.000  H
  H11      1.0000 0.00700  0.59830  0.26970  Biso   1.000  H
  H12      1.0000 0.74300  0.15170  0.26970  Biso   1.000  H
  H13      1.0000 0.74300  0.09830  0.98030  Biso   1.000  H
  H14      1.0000 0.00700  0.65170  0.98030  Biso   1.000  H
  H15      1.0000 0.00700  0.09830  0.76970  Biso   1.000  H
  H16      1.0000 0.74300  0.65170  0.76970  Biso   1.000  H
  H17      1.0000 0.75700  0.40170  0.01970  Biso   1.000  H
  H18      1.0000 0.99300  0.34830  0.01970  Biso   1.000  H
  H19      1.0000 0.99300  0.40170  0.73030  Biso   1.000  H
  H20      1.0000 0.75700  0.34830  0.73030  Biso   1.000  H
  H21      1.0000 0.75700  0.90170  0.51970  Biso   1.000  H
  H22      1.0000 0.99300  0.84830  0.51970  Biso   1.000  H
  H23      1.0000 0.99300  0.90170  0.23030  Biso   1.000  H
  H24      1.0000 0.75700  0.84830  0.23030  Biso   1.000  H
  H25      1.0000 0.25700  0.40170  0.51970  Biso   1.000  H
  H26      1.0000 0.49300  0.34830  0.51970  Biso   1.000  H
  H27      1.0000 0.49300  0.40170  0.23030  Biso   1.000  H
  H28      1.0000 0.25700  0.34830  0.23030  Biso   1.000  H
  H29      1.0000 0.25700  0.90170  0.01970  Biso   1.000  H
  H30      1.0000 0.49300  0.84830  0.01970  Biso   1.000  H
  H31      1.0000 0.49300  0.90170  0.73030  Biso   1.000  H
  H32      1.0000 0.25700  0.84830  0.73030  Biso   1.000  H
  H33      1.0000 0.21280  0.56280  0.95320  Biso   1.000  H
  H34      1.0000 0.53720  0.18720  0.95320  Biso   1.000  H
  H35      1.0000 0.53720  0.56280  0.79680  Biso   1.000  H
  H36      1.0000 0.21280  0.18720  0.79680  Biso   1.000  H
  H37      1.0000 0.21280  0.06280  0.45320  Biso   1.000  H
  H38      1.0000 0.53720  0.68720  0.45320  Biso   1.000  H
  H39      1.0000 0.53720  0.06280  0.29680  Biso   1.000  H
  H40      1.0000 0.21280  0.68720  0.29680  Biso   1.000  H
  H41      1.0000 0.71280  0.56280  0.45320  Biso   1.000  H
  H42      1.0000 0.03720  0.18720  0.45320  Biso   1.000  H
  H43      1.0000 0.03720  0.56280  0.29680  Biso   1.000  H
  H44      1.0000 0.71280  0.18720  0.29680  Biso   1.000  H
  H45      1.0000 0.71280  0.06280  0.95320  Biso   1.000  H
  H46      1.0000 0.03720  0.68720  0.95320  Biso   1.000  H
  H47      1.0000 0.03720  0.06280  0.79680  Biso   1.000  H
  H48      1.0000 0.71280  0.68720  0.79680  Biso   1.000  H
  H49      1.0000 0.78720  0.43720  0.04680  Biso   1.000  H
  H50      1.0000 0.96280  0.31280  0.04680  Biso   1.000  H
  H51      1.0000 0.96280  0.43720  0.70320  Biso   1.000  H
  H52      1.0000 0.78720  0.31280  0.70320  Biso   1.000  H
  H53      1.0000 0.78720  0.93720  0.54680  Biso   1.000  H
  H54      1.0000 0.96280  0.81280  0.54680  Biso   1.000  H
  H55      1.0000 0.96280  0.93720  0.20320  Biso   1.000  H
  H56      1.0000 0.78720  0.81280  0.20320  Biso   1.000  H
  H57      1.0000 0.28720  0.43720  0.54680  Biso   1.000  H
  H58      1.0000 0.46280  0.31280  0.54680  Biso   1.000  H
  H59      1.0000 0.46280  0.43720  0.20320  Biso   1.000  H
  H60      1.0000 0.28720  0.31280  0.20320  Biso   1.000  H
  H61      1.0000 0.28720  0.93720  0.04680  Biso   1.000  H
  H62      1.0000 0.46280  0.81280  0.04680  Biso   1.000  H
  H63      1.0000 0.46280  0.93720  0.70320  Biso   1.000  H
  H64      1.0000 0.28720  0.81280  0.70320  Biso   1.000  H
  C97      1.0000 0.18770  0.63550  0.94531  Biso   1.000  C
  C98      1.0000 0.56230  0.11450  0.94531  Biso   1.000  C
  C99      1.0000 0.56230  0.63550  0.80469  Biso   1.000  C
  C100     1.0000 0.18770  0.11450  0.80469  Biso   1.000  C
  C101     1.0000 0.18770  0.13550  0.44531  Biso   1.000  C
  C102     1.0000 0.56230  0.61450  0.44531  Biso   1.000  C
  C103     1.0000 0.56230  0.13550  0.30469  Biso   1.000  C
  C104     1.0000 0.18770  0.61450  0.30469  Biso   1.000  C
  C105     1.0000 0.68770  0.63550  0.44531  Biso   1.000  C
  C106     1.0000 0.06230  0.11450  0.44531  Biso   1.000  C
  C107     1.0000 0.06230  0.63550  0.30469  Biso   1.000  C
  C108     1.0000 0.68770  0.11450  0.30469  Biso   1.000  C
  C109     1.0000 0.68770  0.13550  0.94531  Biso   1.000  C
  C110     1.0000 0.06230  0.61450  0.94531  Biso   1.000  C
  C111     1.0000 0.06230  0.13550  0.80469  Biso   1.000  C
  C112     1.0000 0.68770  0.61450  0.80469  Biso   1.000  C
  C113     1.0000 0.81230  0.36450  0.05469  Biso   1.000  C
  C114     1.0000 0.93770  0.38550  0.05469  Biso   1.000  C
  C115     1.0000 0.93770  0.36450  0.69531  Biso   1.000  C
  C116     1.0000 0.81230  0.38550  0.69531  Biso   1.000  C
  C117     1.0000 0.81230  0.86450  0.55469  Biso   1.000  C
  C118     1.0000 0.93770  0.88550  0.55469  Biso   1.000  C
  C119     1.0000 0.93770  0.86450  0.19531  Biso   1.000  C
  C120     1.0000 0.81230  0.88550  0.19531  Biso   1.000  C
  C121     1.0000 0.31230  0.36450  0.55469  Biso   1.000  C
  C122     1.0000 0.43770  0.38550  0.55469  Biso   1.000  C
  C123     1.0000 0.43770  0.36450  0.19531  Biso   1.000  C
  C124     1.0000 0.31230  0.38550  0.19531  Biso   1.000  C
  C125     1.0000 0.31230  0.86450  0.05469  Biso   1.000  C
  C126     1.0000 0.43770  0.88550  0.05469  Biso   1.000  C
  C127     1.0000 0.43770  0.86450  0.69531  Biso   1.000  C
  C128     1.0000 0.31230  0.88550  0.69531  Biso   1.000  C
  C129     1.0000 0.12500  0.62500  0.92407  Biso   1.000  C
  C130     1.0000 0.62500  0.12500  0.92407  Biso   1.000  C
  C131     1.0000 0.62500  0.62500  0.82593  Biso   1.000  C
  C132     1.0000 0.12500  0.12500  0.82593  Biso   1.000  C
  C133     1.0000 0.12500  0.12500  0.42407  Biso   1.000  C
  C134     1.0000 0.62500  0.62500  0.42407  Biso   1.000  C
  C135     1.0000 0.62500  0.12500  0.32593  Biso   1.000  C
  C136     1.0000 0.12500  0.62500  0.32593  Biso   1.000  C
  C137     1.0000 0.87500  0.37500  0.07593  Biso   1.000  C
  C138     1.0000 0.87500  0.37500  0.67407  Biso   1.000  C
  C139     1.0000 0.87500  0.87500  0.57593  Biso   1.000  C
  C140     1.0000 0.87500  0.87500  0.17407  Biso   1.000  C
  C141     1.0000 0.37500  0.37500  0.57593  Biso   1.000  C
  C142     1.0000 0.37500  0.37500  0.17407  Biso   1.000  C
  C143     1.0000 0.37500  0.87500  0.07593  Biso   1.000  C
  C144     1.0000 0.37500  0.87500  0.67407  Biso   1.000  C
  H65      1.0000 0.13420  0.59660  0.91010  Biso   1.000  H
  H66      1.0000 0.61580  0.15340  0.91010  Biso   1.000  H
  H67      1.0000 0.61580  0.59660  0.83990  Biso   1.000  H
  H68      1.0000 0.13420  0.15340  0.83990  Biso   1.000  H
  H69      1.0000 0.13420  0.09660  0.41010  Biso   1.000  H
  H70      1.0000 0.61580  0.65340  0.41010  Biso   1.000  H
  H71      1.0000 0.61580  0.09660  0.33990  Biso   1.000  H
  H72      1.0000 0.13420  0.65340  0.33990  Biso   1.000  H
  H73      1.0000 0.63420  0.59660  0.41010  Biso   1.000  H
  H74      1.0000 0.11580  0.15340  0.41010  Biso   1.000  H
  H75      1.0000 0.11580  0.59660  0.33990  Biso   1.000  H
  H76      1.0000 0.63420  0.15340  0.33990  Biso   1.000  H
  H77      1.0000 0.63420  0.09660  0.91010  Biso   1.000  H
  H78      1.0000 0.11580  0.65340  0.91010  Biso   1.000  H
  H79      1.0000 0.11580  0.09660  0.83990  Biso   1.000  H
  H80      1.0000 0.63420  0.65340  0.83990  Biso   1.000  H
  H81      1.0000 0.86580  0.40340  0.08990  Biso   1.000  H
  H82      1.0000 0.88420  0.34660  0.08990  Biso   1.000  H
  H83      1.0000 0.88420  0.40340  0.66010  Biso   1.000  H
  H84      1.0000 0.86580  0.34660  0.66010  Biso   1.000  H
  H85      1.0000 0.86580  0.90340  0.58990  Biso   1.000  H
  H86      1.0000 0.88420  0.84660  0.58990  Biso   1.000  H
  H87      1.0000 0.88420  0.90340  0.16010  Biso   1.000  H
  H88      1.0000 0.86580  0.84660  0.16010  Biso   1.000  H
  H89      1.0000 0.36580  0.40340  0.58990  Biso   1.000  H
  H90      1.0000 0.38420  0.34660  0.58990  Biso   1.000  H
  H91      1.0000 0.38420  0.40340  0.16010  Biso   1.000  H
  H92      1.0000 0.36580  0.34660  0.16010  Biso   1.000  H
  H93      1.0000 0.36580  0.90340  0.08990  Biso   1.000  H
  H94      1.0000 0.38420  0.84660  0.08990  Biso   1.000  H
  H95      1.0000 0.38420  0.90340  0.66010  Biso   1.000  H
  H96      1.0000 0.36580  0.84660  0.66010  Biso   1.000  H
  C145     1.0000 0.12500  0.62500  0.01000  Biso   1.000  C
  C146     1.0000 0.62500  0.12500  0.01000  Biso   1.000  C
  C147     1.0000 0.62500  0.62500  0.74000  Biso   1.000  C
  C148     1.0000 0.12500  0.12500  0.74000  Biso   1.000  C
  C149     1.0000 0.12500  0.12500  0.51000  Biso   1.000  C
  C150     1.0000 0.62500  0.62500  0.51000  Biso   1.000  C
  C151     1.0000 0.62500  0.12500  0.24000  Biso   1.000  C
  C152     1.0000 0.12500  0.62500  0.24000  Biso   1.000  C
  C153     1.0000 0.87500  0.37500  0.99000  Biso   1.000  C
  C154     1.0000 0.87500  0.37500  0.76000  Biso   1.000  C
  C155     1.0000 0.87500  0.87500  0.49000  Biso   1.000  C
  C156     1.0000 0.87500  0.87500  0.26000  Biso   1.000  C
  C157     1.0000 0.37500  0.37500  0.49000  Biso   1.000  C
  C158     1.0000 0.37500  0.37500  0.26000  Biso   1.000  C
  C159     1.0000 0.37500  0.87500  0.99000  Biso   1.000  C
  C160     1.0000 0.37500  0.87500  0.76000  Biso   1.000  C
  H97      1.0000 0.08560  0.61750  0.02400  Biso   1.000  H
  H98      1.0000 0.66440  0.13250  0.02400  Biso   1.000  H
  H99      1.0000 0.66440  0.61750  0.72600  Biso   1.000  H
  H100     1.0000 0.08560  0.13250  0.72600  Biso   1.000  H
  H101     1.0000 0.08560  0.11750  0.52400  Biso   1.000  H
  H102     1.0000 0.66440  0.63250  0.52400  Biso   1.000  H
  H103     1.0000 0.66440  0.11750  0.22600  Biso   1.000  H
  H104     1.0000 0.08560  0.63250  0.22600  Biso   1.000  H
  H105     1.0000 0.58560  0.61750  0.52400  Biso   1.000  H
  H106     1.0000 0.16440  0.13250  0.52400  Biso   1.000  H
  H107     1.0000 0.16440  0.61750  0.22600  Biso   1.000  H
  H108     1.0000 0.58560  0.13250  0.22600  Biso   1.000  H
  H109     1.0000 0.58560  0.11750  0.02400  Biso   1.000  H
  H110     1.0000 0.16440  0.63250  0.02400  Biso   1.000  H
  H111     1.0000 0.16440  0.11750  0.72600  Biso   1.000  H
  H112     1.0000 0.58560  0.63250  0.72600  Biso   1.000  H
  H113     1.0000 0.91440  0.38250  0.97600  Biso   1.000  H
  H114     1.0000 0.83560  0.36750  0.97600  Biso   1.000  H
  H115     1.0000 0.83560  0.38250  0.77400  Biso   1.000  H
  H116     1.0000 0.91440  0.36750  0.77400  Biso   1.000  H
  H117     1.0000 0.91440  0.88250  0.47600  Biso   1.000  H
  H118     1.0000 0.83560  0.86750  0.47600  Biso   1.000  H
  H119     1.0000 0.83560  0.88250  0.27400  Biso   1.000  H
  H120     1.0000 0.91440  0.86750  0.27400  Biso   1.000  H
  H121     1.0000 0.41440  0.38250  0.47600  Biso   1.000  H
  H122     1.0000 0.33560  0.36750  0.47600  Biso   1.000  H
  H123     1.0000 0.33560  0.38250  0.27400  Biso   1.000  H
  H124     1.0000 0.41440  0.36750  0.27400  Biso   1.000  H
  H125     1.0000 0.41440  0.88250  0.97600  Biso   1.000  H
  H126     1.0000 0.33560  0.86750  0.97600  Biso   1.000  H
  H127     1.0000 0.33560  0.88250  0.77400  Biso   1.000  H
  H128     1.0000 0.41440  0.86750  0.77400  Biso   1.000  H
  C161     1.0000 0.07870  0.56980  0.96687  Biso   1.000  C
  C162     1.0000 0.67130  0.18020  0.96687  Biso   1.000  C
  C163     1.0000 0.67130  0.56980  0.78313  Biso   1.000  C
  C164     1.0000 0.07870  0.18020  0.78313  Biso   1.000  C
  C165     1.0000 0.07870  0.06980  0.46687  Biso   1.000  C
  C166     1.0000 0.67130  0.68020  0.46687  Biso   1.000  C
  C167     1.0000 0.67130  0.06980  0.28313  Biso   1.000  C
  C168     1.0000 0.07870  0.68020  0.28313  Biso   1.000  C
  C169     1.0000 0.57870  0.56980  0.46687  Biso   1.000  C
  C170     1.0000 0.17130  0.18020  0.46687  Biso   1.000  C
  C171     1.0000 0.17130  0.56980  0.28313  Biso   1.000  C
  C172     1.0000 0.57870  0.18020  0.28313  Biso   1.000  C
  C173     1.0000 0.57870  0.06980  0.96687  Biso   1.000  C
  C174     1.0000 0.17130  0.68020  0.96687  Biso   1.000  C
  C175     1.0000 0.17130  0.06980  0.78313  Biso   1.000  C
  C176     1.0000 0.57870  0.68020  0.78313  Biso   1.000  C
  C177     1.0000 0.92130  0.43020  0.03313  Biso   1.000  C
  C178     1.0000 0.82870  0.31980  0.03313  Biso   1.000  C
  C179     1.0000 0.82870  0.43020  0.71687  Biso   1.000  C
  C180     1.0000 0.92130  0.31980  0.71687  Biso   1.000  C
  C181     1.0000 0.92130  0.93020  0.53313  Biso   1.000  C
  C182     1.0000 0.82870  0.81980  0.53313  Biso   1.000  C
  C183     1.0000 0.82870  0.93020  0.21687  Biso   1.000  C
  C184     1.0000 0.92130  0.81980  0.21687  Biso   1.000  C
  C185     1.0000 0.42130  0.43020  0.53313  Biso   1.000  C
  C186     1.0000 0.32870  0.31980  0.53313  Biso   1.000  C
  C187     1.0000 0.32870  0.43020  0.21687  Biso   1.000  C
  C188     1.0000 0.42130  0.31980  0.21687  Biso   1.000  C
  C189     1.0000 0.42130  0.93020  0.03313  Biso   1.000  C
  C190     1.0000 0.32870  0.81980  0.03313  Biso   1.000  C
  C191     1.0000 0.32870  0.93020  0.71687  Biso   1.000  C
  C192     1.0000 0.42130  0.81980  0.71687  Biso   1.000  C
  H129     1.0000 0.03910  0.56210  0.98060  Biso   1.000  H
  H130     1.0000 0.71090  0.18790  0.98060  Biso   1.000  H
  H131     1.0000 0.71090  0.56210  0.76940  Biso   1.000  H
  H132     1.0000 0.03910  0.18790  0.76940  Biso   1.000  H
  H133     1.0000 0.03910  0.06210  0.48060  Biso   1.000  H
  H134     1.0000 0.71090  0.68790  0.48060  Biso   1.000  H
  H135     1.0000 0.71090  0.06210  0.26940  Biso   1.000  H
  H136     1.0000 0.03910  0.68790  0.26940  Biso   1.000  H
  H137     1.0000 0.53910  0.56210  0.48060  Biso   1.000  H
  H138     1.0000 0.21090  0.18790  0.48060  Biso   1.000  H
  H139     1.0000 0.21090  0.56210  0.26940  Biso   1.000  H
  H140     1.0000 0.53910  0.18790  0.26940  Biso   1.000  H
  H141     1.0000 0.53910  0.06210  0.98060  Biso   1.000  H
  H142     1.0000 0.21090  0.68790  0.98060  Biso   1.000  H
  H143     1.0000 0.21090  0.06210  0.76940  Biso   1.000  H
  H144     1.0000 0.53910  0.68790  0.76940  Biso   1.000  H
  H145     1.0000 0.96090  0.43790  0.01940  Biso   1.000  H
  H146     1.0000 0.78910  0.31210  0.01940  Biso   1.000  H
  H147     1.0000 0.78910  0.43790  0.73060  Biso   1.000  H
  H148     1.0000 0.96090  0.31210  0.73060  Biso   1.000  H
  H149     1.0000 0.96090  0.93790  0.51940  Biso   1.000  H
  H150     1.0000 0.78910  0.81210  0.51940  Biso   1.000  H
  H151     1.0000 0.78910  0.93790  0.23060  Biso   1.000  H
  H152     1.0000 0.96090  0.81210  0.23060  Biso   1.000  H
  H153     1.0000 0.46090  0.43790  0.51940  Biso   1.000  H
  H154     1.0000 0.28910  0.31210  0.51940  Biso   1.000  H
  H155     1.0000 0.28910  0.43790  0.23060  Biso   1.000  H
  H156     1.0000 0.46090  0.31210  0.23060  Biso   1.000  H
  H157     1.0000 0.46090  0.93790  0.01940  Biso   1.000  H
  H158     1.0000 0.28910  0.81210  0.01940  Biso   1.000  H
  H159     1.0000 0.28910  0.93790  0.73060  Biso   1.000  H
  H160     1.0000 0.46090  0.81210  0.73060  Biso   1.000  H
  H161     1.0000 0.08830  0.54110  0.95310  Biso   1.000  H
  H162     1.0000 0.66170  0.20890  0.95310  Biso   1.000  H
  H163     1.0000 0.66170  0.54110  0.79690  Biso   1.000  H
  H164     1.0000 0.08830  0.20890  0.79690  Biso   1.000  H
  H165     1.0000 0.08830  0.04110  0.45310  Biso   1.000  H
  H166     1.0000 0.66170  0.70890  0.45310  Biso   1.000  H
  H167     1.0000 0.66170  0.04110  0.29690  Biso   1.000  H
  H168     1.0000 0.08830  0.70890  0.29690  Biso   1.000  H
  H169     1.0000 0.58830  0.54110  0.45310  Biso   1.000  H
  H170     1.0000 0.16170  0.20890  0.45310  Biso   1.000  H
  H171     1.0000 0.16170  0.54110  0.29690  Biso   1.000  H
  H172     1.0000 0.58830  0.20890  0.29690  Biso   1.000  H
  H173     1.0000 0.58830  0.04110  0.95310  Biso   1.000  H
  H174     1.0000 0.16170  0.70890  0.95310  Biso   1.000  H
  H175     1.0000 0.16170  0.04110  0.79690  Biso   1.000  H
  H176     1.0000 0.58830  0.70890  0.79690  Biso   1.000  H
  H177     1.0000 0.91170  0.45890  0.04690  Biso   1.000  H
  H178     1.0000 0.83830  0.29110  0.04690  Biso   1.000  H
  H179     1.0000 0.83830  0.45890  0.70310  Biso   1.000  H
  H180     1.0000 0.91170  0.29110  0.70310  Biso   1.000  H
  H181     1.0000 0.91170  0.95890  0.54690  Biso   1.000  H
  H182     1.0000 0.83830  0.79110  0.54690  Biso   1.000  H
  H183     1.0000 0.83830  0.95890  0.20310  Biso   1.000  H
  H184     1.0000 0.91170  0.79110  0.20310  Biso   1.000  H
  H185     1.0000 0.41170  0.45890  0.54690  Biso   1.000  H
  H186     1.0000 0.33830  0.29110  0.54690  Biso   1.000  H
  H187     1.0000 0.33830  0.45890  0.20310  Biso   1.000  H
  H188     1.0000 0.41170  0.29110  0.20310  Biso   1.000  H
  H189     1.0000 0.41170  0.95890  0.04690  Biso   1.000  H
  H190     1.0000 0.33830  0.79110  0.04690  Biso   1.000  H
  H191     1.0000 0.33830  0.95890  0.70310  Biso   1.000  H
  H192     1.0000 0.41170  0.79110  0.70310  Biso   1.000  H
  C193     1.0000 0.24580  0.65030  0.92433  Biso   1.000  C
  C194     1.0000 0.50420  0.09970  0.92433  Biso   1.000  C
  C195     1.0000 0.50420  0.65030  0.82567  Biso   1.000  C
  C196     1.0000 0.24580  0.09970  0.82567  Biso   1.000  C
  C197     1.0000 0.24580  0.15030  0.42433  Biso   1.000  C
  C198     1.0000 0.50420  0.59970  0.42433  Biso   1.000  C
  C199     1.0000 0.50420  0.15030  0.32567  Biso   1.000  C
  C200     1.0000 0.24580  0.59970  0.32567  Biso   1.000  C
  C201     1.0000 0.74580  0.65030  0.42433  Biso   1.000  C
  C202     1.0000 0.00420  0.09970  0.42433  Biso   1.000  C
  C203     1.0000 0.00420  0.65030  0.32567  Biso   1.000  C
  C204     1.0000 0.74580  0.09970  0.32567  Biso   1.000  C
  C205     1.0000 0.74580  0.15030  0.92433  Biso   1.000  C
  C206     1.0000 0.00420  0.59970  0.92433  Biso   1.000  C
  C207     1.0000 0.00420  0.15030  0.82567  Biso   1.000  C
  C208     1.0000 0.74580  0.59970  0.82567  Biso   1.000  C
  C209     1.0000 0.75420  0.34970  0.07567  Biso   1.000  C
  C210     1.0000 0.99580  0.40030  0.07567  Biso   1.000  C
  C211     1.0000 0.99580  0.34970  0.67433  Biso   1.000  C
  C212     1.0000 0.75420  0.40030  0.67433  Biso   1.000  C
  C213     1.0000 0.75420  0.84970  0.57567  Biso   1.000  C
  C214     1.0000 0.99580  0.90030  0.57567  Biso   1.000  C
  C215     1.0000 0.99580  0.84970  0.17433  Biso   1.000  C
  C216     1.0000 0.75420  0.90030  0.17433  Biso   1.000  C
  C217     1.0000 0.25420  0.34970  0.57567  Biso   1.000  C
  C218     1.0000 0.49580  0.40030  0.57567  Biso   1.000  C
  C219     1.0000 0.49580  0.34970  0.17433  Biso   1.000  C
  C220     1.0000 0.25420  0.40030  0.17433  Biso   1.000  C
  C221     1.0000 0.25420  0.84970  0.07567  Biso   1.000  C
  C222     1.0000 0.49580  0.90030  0.07567  Biso   1.000  C
  C223     1.0000 0.49580  0.84970  0.67433  Biso   1.000  C
  C224     1.0000 0.25420  0.90030  0.67433  Biso   1.000  C
  O1       1.0000 0.27120  0.49575  0.09267  Biso   1.000  O
  O2       1.0000 0.47880  0.25425  0.09267  Biso   1.000  O
  O3       1.0000 0.47880  0.49575  0.65733  Biso   1.000  O
  O4       1.0000 0.27120  0.25425  0.65733  Biso   1.000  O
  O5       1.0000 0.27120  0.99575  0.59267  Biso   1.000  O
  O6       1.0000 0.47880  0.75425  0.59267  Biso   1.000  O
  O7       1.0000 0.47880  0.99575  0.15733  Biso   1.000  O
  O8       1.0000 0.27120  0.75425  0.15733  Biso   1.000  O
  O9       1.0000 0.77120  0.49575  0.59267  Biso   1.000  O
  O10      1.0000 0.97880  0.25425  0.59267  Biso   1.000  O
  O11      1.0000 0.97880  0.49575  0.15733  Biso   1.000  O
  O12      1.0000 0.77120  0.25425  0.15733  Biso   1.000  O
  O13      1.0000 0.77120  0.99575  0.09267  Biso   1.000  O
  O14      1.0000 0.97880  0.75425  0.09267  Biso   1.000  O
  O15      1.0000 0.97880  0.99575  0.65733  Biso   1.000  O
  O16      1.0000 0.77120  0.75425  0.65733  Biso   1.000  O
  O17      1.0000 0.72880  0.50425  0.90733  Biso   1.000  O
  O18      1.0000 0.02120  0.24575  0.90733  Biso   1.000  O
  O19      1.0000 0.02120  0.50425  0.84267  Biso   1.000  O
  O20      1.0000 0.72880  0.24575  0.84267  Biso   1.000  O
  O21      1.0000 0.72880  0.00425  0.40733  Biso   1.000  O
  O22      1.0000 0.02120  0.74575  0.40733  Biso   1.000  O
  O23      1.0000 0.02120  0.00425  0.34267  Biso   1.000  O
  O24      1.0000 0.72880  0.74575  0.34267  Biso   1.000  O
  O25      1.0000 0.22880  0.50425  0.40733  Biso   1.000  O
  O26      1.0000 0.52120  0.24575  0.40733  Biso   1.000  O
  O27      1.0000 0.52120  0.50425  0.34267  Biso   1.000  O
  O28      1.0000 0.22880  0.24575  0.34267  Biso   1.000  O
  O29      1.0000 0.22880  0.00425  0.90733  Biso   1.000  O
  O30      1.0000 0.52120  0.74575  0.90733  Biso   1.000  O
  O31      1.0000 0.52120  0.00425  0.84267  Biso   1.000  O
  O32      1.0000 0.22880  0.74575  0.84267  Biso   1.000  O
  N257     1.0000 0.38490  0.49960  0.09058  Biso   1.000  N
  N258     1.0000 0.36510  0.25040  0.09058  Biso   1.000  N
  N259     1.0000 0.36510  0.49960  0.65942  Biso   1.000  N
  N260     1.0000 0.38490  0.25040  0.65942  Biso   1.000  N
  N261     1.0000 0.38490  0.99960  0.59058  Biso   1.000  N
  N262     1.0000 0.36510  0.75040  0.59058  Biso   1.000  N
  N263     1.0000 0.36510  0.99960  0.15942  Biso   1.000  N
  N264     1.0000 0.38490  0.75040  0.15942  Biso   1.000  N
  N265     1.0000 0.88490  0.49960  0.59058  Biso   1.000  N
  N266     1.0000 0.86510  0.25040  0.59058  Biso   1.000  N
  N267     1.0000 0.86510  0.49960  0.15942  Biso   1.000  N
  N268     1.0000 0.88490  0.25040  0.15942  Biso   1.000  N
  N269     1.0000 0.88490  0.99960  0.09058  Biso   1.000  N
  N270     1.0000 0.86510  0.75040  0.09058  Biso   1.000  N
  N271     1.0000 0.86510  0.99960  0.65942  Biso   1.000  N
  N272     1.0000 0.88490  0.75040  0.65942  Biso   1.000  N
  N273     1.0000 0.61510  0.50040  0.90942  Biso   1.000  N
  N274     1.0000 0.13490  0.24960  0.90942  Biso   1.000  N
  N275     1.0000 0.13490  0.50040  0.84058  Biso   1.000  N
  N276     1.0000 0.61510  0.24960  0.84058  Biso   1.000  N
  N277     1.0000 0.61510  0.00040  0.40942  Biso   1.000  N
  N278     1.0000 0.13490  0.74960  0.40942  Biso   1.000  N
  N279     1.0000 0.13490  0.00040  0.34058  Biso   1.000  N
  N280     1.0000 0.61510  0.74960  0.34058  Biso   1.000  N
  N281     1.0000 0.11510  0.50040  0.40942  Biso   1.000  N
  N282     1.0000 0.63490  0.24960  0.40942  Biso   1.000  N
  N283     1.0000 0.63490  0.50040  0.34058  Biso   1.000  N
  N284     1.0000 0.11510  0.24960  0.34058  Biso   1.000  N
  N285     1.0000 0.11510  0.00040  0.90942  Biso   1.000  N
  N286     1.0000 0.63490  0.74960  0.90942  Biso   1.000  N
  N287     1.0000 0.63490  0.00040  0.84058  Biso   1.000  N
  N288     1.0000 0.11510  0.74960  0.84058  Biso   1.000  N
  C225     1.0000 0.32700  0.47680  0.09180  Biso   1.000  C
  C226     1.0000 0.42300  0.27320  0.09180  Biso   1.000  C
  C227     1.0000 0.42300  0.47680  0.65820  Biso   1.000  C
  C228     1.0000 0.32700  0.27320  0.65820  Biso   1.000  C
  C229     1.0000 0.32700  0.97680  0.59180  Biso   1.000  C
  C230     1.0000 0.42300  0.77320  0.59180  Biso   1.000  C
  C231     1.0000 0.42300  0.97680  0.15820  Biso   1.000  C
  C232     1.0000 0.32700  0.77320  0.15820  Biso   1.000  C
  C233     1.0000 0.82700  0.47680  0.59180  Biso   1.000  C
  C234     1.0000 0.92300  0.27320  0.59180  Biso   1.000  C
  C235     1.0000 0.92300  0.47680  0.15820  Biso   1.000  C
  C236     1.0000 0.82700  0.27320  0.15820  Biso   1.000  C
  C237     1.0000 0.82700  0.97680  0.09180  Biso   1.000  C
  C238     1.0000 0.92300  0.77320  0.09180  Biso   1.000  C
  C239     1.0000 0.92300  0.97680  0.65820  Biso   1.000  C
  C240     1.0000 0.82700  0.77320  0.65820  Biso   1.000  C
  C241     1.0000 0.67300  0.52320  0.90820  Biso   1.000  C
  C242     1.0000 0.07700  0.22680  0.90820  Biso   1.000  C
  C243     1.0000 0.07700  0.52320  0.84180  Biso   1.000  C
  C244     1.0000 0.67300  0.22680  0.84180  Biso   1.000  C
  C245     1.0000 0.67300  0.02320  0.40820  Biso   1.000  C
  C246     1.0000 0.07700  0.72680  0.40820  Biso   1.000  C
  C247     1.0000 0.07700  0.02320  0.34180  Biso   1.000  C
  C248     1.0000 0.67300  0.72680  0.34180  Biso   1.000  C
  C249     1.0000 0.17300  0.52320  0.40820  Biso   1.000  C
  C250     1.0000 0.57700  0.22680  0.40820  Biso   1.000  C
  C251     1.0000 0.57700  0.52320  0.34180  Biso   1.000  C
  C252     1.0000 0.17300  0.22680  0.34180  Biso   1.000  C
  C253     1.0000 0.17300  0.02320  0.90820  Biso   1.000  C
  C254     1.0000 0.57700  0.72680  0.90820  Biso   1.000  C
  C255     1.0000 0.57700  0.02320  0.84180  Biso   1.000  C
  C256     1.0000 0.17300  0.72680  0.84180  Biso   1.000  C
  H193     1.0000 0.32850  0.44220  0.09200  Biso   1.000  H
  H194     1.0000 0.42150  0.30780  0.09200  Biso   1.000  H
  H195     1.0000 0.42150  0.44220  0.65800  Biso   1.000  H
  H196     1.0000 0.32850  0.30780  0.65800  Biso   1.000  H
  H197     1.0000 0.32850  0.94220  0.59200  Biso   1.000  H
  H198     1.0000 0.42150  0.80780  0.59200  Biso   1.000  H
  H199     1.0000 0.42150  0.94220  0.15800  Biso   1.000  H
  H200     1.0000 0.32850  0.80780  0.15800  Biso   1.000  H
  H201     1.0000 0.82850  0.44220  0.59200  Biso   1.000  H
  H202     1.0000 0.92150  0.30780  0.59200  Biso   1.000  H
  H203     1.0000 0.92150  0.44220  0.15800  Biso   1.000  H
  H204     1.0000 0.82850  0.30780  0.15800  Biso   1.000  H
  H205     1.0000 0.82850  0.94220  0.09200  Biso   1.000  H
  H206     1.0000 0.92150  0.80780  0.09200  Biso   1.000  H
  H207     1.0000 0.92150  0.94220  0.65800  Biso   1.000  H
  H208     1.0000 0.82850  0.80780  0.65800  Biso   1.000  H
  H209     1.0000 0.67150  0.55780  0.90800  Biso   1.000  H
  H210     1.0000 0.07850  0.19220  0.90800  Biso   1.000  H
  H211     1.0000 0.07850  0.55780  0.84200  Biso   1.000  H
  H212     1.0000 0.67150  0.19220  0.84200  Biso   1.000  H
  H213     1.0000 0.67150  0.05780  0.40800  Biso   1.000  H
  H214     1.0000 0.07850  0.69220  0.40800  Biso   1.000  H
  H215     1.0000 0.07850  0.05780  0.34200  Biso   1.000  H
  H216     1.0000 0.67150  0.69220  0.34200  Biso   1.000  H
  H217     1.0000 0.17150  0.55780  0.40800  Biso   1.000  H
  H218     1.0000 0.57850  0.19220  0.40800  Biso   1.000  H
  H219     1.0000 0.57850  0.55780  0.34200  Biso   1.000  H
  H220     1.0000 0.17150  0.19220  0.34200  Biso   1.000  H
  H221     1.0000 0.17150  0.05780  0.90800  Biso   1.000  H
  H222     1.0000 0.57850  0.69220  0.90800  Biso   1.000  H
  H223     1.0000 0.57850  0.05780  0.84200  Biso   1.000  H
  H224     1.0000 0.17150  0.69220  0.84200  Biso   1.000  H
  C257     1.0000 0.38780  0.55150  0.08270  Biso   1.000  C
  C258     1.0000 0.36220  0.19850  0.08270  Biso   1.000  C
  C259     1.0000 0.36220  0.55150  0.66730  Biso   1.000  C
  C260     1.0000 0.38780  0.19850  0.66730  Biso   1.000  C
  C261     1.0000 0.38780  0.05150  0.58270  Biso   1.000  C
  C262     1.0000 0.36220  0.69850  0.58270  Biso   1.000  C
  C263     1.0000 0.36220  0.05150  0.16730  Biso   1.000  C
  C264     1.0000 0.38780  0.69850  0.16730  Biso   1.000  C
  C265     1.0000 0.88780  0.55150  0.58270  Biso   1.000  C
  C266     1.0000 0.86220  0.19850  0.58270  Biso   1.000  C
  C267     1.0000 0.86220  0.55150  0.16730  Biso   1.000  C
  C268     1.0000 0.88780  0.19850  0.16730  Biso   1.000  C
  C269     1.0000 0.88780  0.05150  0.08270  Biso   1.000  C
  C270     1.0000 0.86220  0.69850  0.08270  Biso   1.000  C
  C271     1.0000 0.86220  0.05150  0.66730  Biso   1.000  C
  C272     1.0000 0.88780  0.69850  0.66730  Biso   1.000  C
  C273     1.0000 0.61220  0.44850  0.91730  Biso   1.000  C
  C274     1.0000 0.13780  0.30150  0.91730  Biso   1.000  C
  C275     1.0000 0.13780  0.44850  0.83270  Biso   1.000  C
  C276     1.0000 0.61220  0.30150  0.83270  Biso   1.000  C
  C277     1.0000 0.61220  0.94850  0.41730  Biso   1.000  C
  C278     1.0000 0.13780  0.80150  0.41730  Biso   1.000  C
  C279     1.0000 0.13780  0.94850  0.33270  Biso   1.000  C
  C280     1.0000 0.61220  0.80150  0.33270  Biso   1.000  C
  C281     1.0000 0.11220  0.44850  0.41730  Biso   1.000  C
  C282     1.0000 0.63780  0.30150  0.41730  Biso   1.000  C
  C283     1.0000 0.63780  0.44850  0.33270  Biso   1.000  C
  C284     1.0000 0.11220  0.30150  0.33270  Biso   1.000  C
  C285     1.0000 0.11220  0.94850  0.91730  Biso   1.000  C
  C286     1.0000 0.63780  0.80150  0.91730  Biso   1.000  C
  C287     1.0000 0.63780  0.94850  0.83270  Biso   1.000  C
  C288     1.0000 0.11220  0.80150  0.83270  Biso   1.000  C
  H225     1.0000 0.34300  0.56250  0.07540  Biso   1.000  H
  H226     1.0000 0.40700  0.18750  0.07540  Biso   1.000  H
  H227     1.0000 0.40700  0.56250  0.67460  Biso   1.000  H
  H228     1.0000 0.34300  0.18750  0.67460  Biso   1.000  H
  H229     1.0000 0.34300  0.06250  0.57540  Biso   1.000  H
  H230     1.0000 0.40700  0.68750  0.57540  Biso   1.000  H
  H231     1.0000 0.40700  0.06250  0.17460  Biso   1.000  H
  H232     1.0000 0.34300  0.68750  0.17460  Biso   1.000  H
  H233     1.0000 0.84300  0.56250  0.57540  Biso   1.000  H
  H234     1.0000 0.90700  0.18750  0.57540  Biso   1.000  H
  H235     1.0000 0.90700  0.56250  0.17460  Biso   1.000  H
  H236     1.0000 0.84300  0.18750  0.17460  Biso   1.000  H
  H237     1.0000 0.84300  0.06250  0.07540  Biso   1.000  H
  H238     1.0000 0.90700  0.68750  0.07540  Biso   1.000  H
  H239     1.0000 0.90700  0.06250  0.67460  Biso   1.000  H
  H240     1.0000 0.84300  0.68750  0.67460  Biso   1.000  H
  H241     1.0000 0.65700  0.43750  0.92460  Biso   1.000  H
  H242     1.0000 0.09300  0.31250  0.92460  Biso   1.000  H
  H243     1.0000 0.09300  0.43750  0.82540  Biso   1.000  H
  H244     1.0000 0.65700  0.31250  0.82540  Biso   1.000  H
  H245     1.0000 0.65700  0.93750  0.42460  Biso   1.000  H
  H246     1.0000 0.09300  0.81250  0.42460  Biso   1.000  H
  H247     1.0000 0.09300  0.93750  0.32540  Biso   1.000  H
  H248     1.0000 0.65700  0.81250  0.32540  Biso   1.000  H
  H249     1.0000 0.15700  0.43750  0.42460  Biso   1.000  H
  H250     1.0000 0.59300  0.31250  0.42460  Biso   1.000  H
  H251     1.0000 0.59300  0.43750  0.32540  Biso   1.000  H
  H252     1.0000 0.15700  0.31250  0.32540  Biso   1.000  H
  H253     1.0000 0.15700  0.93750  0.92460  Biso   1.000  H
  H254     1.0000 0.59300  0.81250  0.92460  Biso   1.000  H
  H255     1.0000 0.59300  0.93750  0.82540  Biso   1.000  H
  H256     1.0000 0.15700  0.81250  0.82540  Biso   1.000  H
  H257     1.0000 0.42120  0.55690  0.06560  Biso   1.000  H
  H258     1.0000 0.32880  0.19310  0.06560  Biso   1.000  H
  H259     1.0000 0.32880  0.55690  0.68440  Biso   1.000  H
  H260     1.0000 0.42120  0.19310  0.68440  Biso   1.000  H
  H261     1.0000 0.42120  0.05690  0.56560  Biso   1.000  H
  H262     1.0000 0.32880  0.69310  0.56560  Biso   1.000  H
  H263     1.0000 0.32880  0.05690  0.18440  Biso   1.000  H
  H264     1.0000 0.42120  0.69310  0.18440  Biso   1.000  H
  H265     1.0000 0.92120  0.55690  0.56560  Biso   1.000  H
  H266     1.0000 0.82880  0.19310  0.56560  Biso   1.000  H
  H267     1.0000 0.82880  0.55690  0.18440  Biso   1.000  H
  H268     1.0000 0.92120  0.19310  0.18440  Biso   1.000  H
  H269     1.0000 0.92120  0.05690  0.06560  Biso   1.000  H
  H270     1.0000 0.82880  0.69310  0.06560  Biso   1.000  H
  H271     1.0000 0.82880  0.05690  0.68440  Biso   1.000  H
  H272     1.0000 0.92120  0.69310  0.68440  Biso   1.000  H
  H273     1.0000 0.57880  0.44310  0.93440  Biso   1.000  H
  H274     1.0000 0.17120  0.30690  0.93440  Biso   1.000  H
  H275     1.0000 0.17120  0.44310  0.81560  Biso   1.000  H
  H276     1.0000 0.57880  0.30690  0.81560  Biso   1.000  H
  H277     1.0000 0.57880  0.94310  0.43440  Biso   1.000  H
  H278     1.0000 0.17120  0.80690  0.43440  Biso   1.000  H
  H279     1.0000 0.17120  0.94310  0.31560  Biso   1.000  H
  H280     1.0000 0.57880  0.80690  0.31560  Biso   1.000  H
  H281     1.0000 0.07880  0.44310  0.43440  Biso   1.000  H
  H282     1.0000 0.67120  0.30690  0.43440  Biso   1.000  H
  H283     1.0000 0.67120  0.44310  0.31560  Biso   1.000  H
  H284     1.0000 0.07880  0.30690  0.31560  Biso   1.000  H
  H285     1.0000 0.07880  0.94310  0.93440  Biso   1.000  H
  H286     1.0000 0.67120  0.80690  0.93440  Biso   1.000  H
  H287     1.0000 0.67120  0.94310  0.81560  Biso   1.000  H
  H288     1.0000 0.07880  0.80690  0.81560  Biso   1.000  H
  H289     1.0000 0.40110  0.57000  0.10190  Biso   1.000  H
  H290     1.0000 0.34890  0.18000  0.10190  Biso   1.000  H
  H291     1.0000 0.34890  0.57000  0.64810  Biso   1.000  H
  H292     1.0000 0.40110  0.18000  0.64810  Biso   1.000  H
  H293     1.0000 0.40110  0.07000  0.60190  Biso   1.000  H
  H294     1.0000 0.34890  0.68000  0.60190  Biso   1.000  H
  H295     1.0000 0.34890  0.07000  0.14810  Biso   1.000  H
  H296     1.0000 0.40110  0.68000  0.14810  Biso   1.000  H
  H297     1.0000 0.90110  0.57000  0.60190  Biso   1.000  H
  H298     1.0000 0.84890  0.18000  0.60190  Biso   1.000  H
  H299     1.0000 0.84890  0.57000  0.14810  Biso   1.000  H
  H300     1.0000 0.90110  0.18000  0.14810  Biso   1.000  H
  H301     1.0000 0.90110  0.07000  0.10190  Biso   1.000  H
  H302     1.0000 0.84890  0.68000  0.10190  Biso   1.000  H
  H303     1.0000 0.84890  0.07000  0.64810  Biso   1.000  H
  H304     1.0000 0.90110  0.68000  0.64810  Biso   1.000  H
  H305     1.0000 0.59890  0.43000  0.89810  Biso   1.000  H
  H306     1.0000 0.15110  0.32000  0.89810  Biso   1.000  H
  H307     1.0000 0.15110  0.43000  0.85190  Biso   1.000  H
  H308     1.0000 0.59890  0.32000  0.85190  Biso   1.000  H
  H309     1.0000 0.59890  0.93000  0.39810  Biso   1.000  H
  H310     1.0000 0.15110  0.82000  0.39810  Biso   1.000  H
  H311     1.0000 0.15110  0.93000  0.35190  Biso   1.000  H
  H312     1.0000 0.59890  0.82000  0.35190  Biso   1.000  H
  H313     1.0000 0.09890  0.43000  0.39810  Biso   1.000  H
  H314     1.0000 0.65110  0.32000  0.39810  Biso   1.000  H
  H315     1.0000 0.65110  0.43000  0.35190  Biso   1.000  H
  H316     1.0000 0.09890  0.32000  0.35190  Biso   1.000  H
  H317     1.0000 0.09890  0.93000  0.89810  Biso   1.000  H
  H318     1.0000 0.65110  0.82000  0.89810  Biso   1.000  H
  H319     1.0000 0.65110  0.93000  0.85190  Biso   1.000  H
  H320     1.0000 0.09890  0.82000  0.85190  Biso   1.000  H
  C289     1.0000 0.44900  0.47490  0.09690  Biso   1.000  C
  C290     1.0000 0.30100  0.27510  0.09690  Biso   1.000  C
  C291     1.0000 0.30100  0.47490  0.65310  Biso   1.000  C
  C292     1.0000 0.44900  0.27510  0.65310  Biso   1.000  C
  C293     1.0000 0.44900  0.97490  0.59690  Biso   1.000  C
  C294     1.0000 0.30100  0.77510  0.59690  Biso   1.000  C
  C295     1.0000 0.30100  0.97490  0.15310  Biso   1.000  C
  C296     1.0000 0.44900  0.77510  0.15310  Biso   1.000  C
  C297     1.0000 0.94900  0.47490  0.59690  Biso   1.000  C
  C298     1.0000 0.80100  0.27510  0.59690  Biso   1.000  C
  C299     1.0000 0.80100  0.47490  0.15310  Biso   1.000  C
  C300     1.0000 0.94900  0.27510  0.15310  Biso   1.000  C
  C301     1.0000 0.94900  0.97490  0.09690  Biso   1.000  C
  C302     1.0000 0.80100  0.77510  0.09690  Biso   1.000  C
  C303     1.0000 0.80100  0.97490  0.65310  Biso   1.000  C
  C304     1.0000 0.94900  0.77510  0.65310  Biso   1.000  C
  C305     1.0000 0.55100  0.52510  0.90310  Biso   1.000  C
  C306     1.0000 0.19900  0.22490  0.90310  Biso   1.000  C
  C307     1.0000 0.19900  0.52510  0.84690  Biso   1.000  C
  C308     1.0000 0.55100  0.22490  0.84690  Biso   1.000  C
  C309     1.0000 0.55100  0.02510  0.40310  Biso   1.000  C
  C310     1.0000 0.19900  0.72490  0.40310  Biso   1.000  C
  C311     1.0000 0.19900  0.02510  0.34690  Biso   1.000  C
  C312     1.0000 0.55100  0.72490  0.34690  Biso   1.000  C
  C313     1.0000 0.05100  0.52510  0.40310  Biso   1.000  C
  C314     1.0000 0.69900  0.22490  0.40310  Biso   1.000  C
  C315     1.0000 0.69900  0.52510  0.34690  Biso   1.000  C
  C316     1.0000 0.05100  0.22490  0.34690  Biso   1.000  C
  C317     1.0000 0.05100  0.02510  0.90310  Biso   1.000  C
  C318     1.0000 0.69900  0.72490  0.90310  Biso   1.000  C
  C319     1.0000 0.69900  0.02510  0.84690  Biso   1.000  C
  C320     1.0000 0.05100  0.72490  0.84690  Biso   1.000  C
  H321     1.0000 0.46790  0.48660  0.11730  Biso   1.000  H
  H322     1.0000 0.28210  0.26340  0.11730  Biso   1.000  H
  H323     1.0000 0.28210  0.48660  0.63270  Biso   1.000  H
  H324     1.0000 0.46790  0.26340  0.63270  Biso   1.000  H
  H325     1.0000 0.46790  0.98660  0.61730  Biso   1.000  H
  H326     1.0000 0.28210  0.76340  0.61730  Biso   1.000  H
  H327     1.0000 0.28210  0.98660  0.13270  Biso   1.000  H
  H328     1.0000 0.46790  0.76340  0.13270  Biso   1.000  H
  H329     1.0000 0.96790  0.48660  0.61730  Biso   1.000  H
  H330     1.0000 0.78210  0.26340  0.61730  Biso   1.000  H
  H331     1.0000 0.78210  0.48660  0.13270  Biso   1.000  H
  H332     1.0000 0.96790  0.26340  0.13270  Biso   1.000  H
  H333     1.0000 0.96790  0.98660  0.11730  Biso   1.000  H
  H334     1.0000 0.78210  0.76340  0.11730  Biso   1.000  H
  H335     1.0000 0.78210  0.98660  0.63270  Biso   1.000  H
  H336     1.0000 0.96790  0.76340  0.63270  Biso   1.000  H
  H337     1.0000 0.53210  0.51340  0.88270  Biso   1.000  H
  H338     1.0000 0.21790  0.23660  0.88270  Biso   1.000  H
  H339     1.0000 0.21790  0.51340  0.86730  Biso   1.000  H
  H340     1.0000 0.53210  0.23660  0.86730  Biso   1.000  H
  H341     1.0000 0.53210  0.01340  0.38270  Biso   1.000  H
  H342     1.0000 0.21790  0.73660  0.38270  Biso   1.000  H
  H343     1.0000 0.21790  0.01340  0.36730  Biso   1.000  H
  H344     1.0000 0.53210  0.73660  0.36730  Biso   1.000  H
  H345     1.0000 0.03210  0.51340  0.38270  Biso   1.000  H
  H346     1.0000 0.71790  0.23660  0.38270  Biso   1.000  H
  H347     1.0000 0.71790  0.51340  0.36730  Biso   1.000  H
  H348     1.0000 0.03210  0.23660  0.36730  Biso   1.000  H
  H349     1.0000 0.03210  0.01340  0.88270  Biso   1.000  H
  H350     1.0000 0.71790  0.73660  0.88270  Biso   1.000  H
  H351     1.0000 0.71790  0.01340  0.86730  Biso   1.000  H
  H352     1.0000 0.03210  0.73660  0.86730  Biso   1.000  H
  H353     1.0000 0.48090  0.48180  0.07940  Biso   1.000  H
  H354     1.0000 0.26910  0.26820  0.07940  Biso   1.000  H
  H355     1.0000 0.26910  0.48180  0.67060  Biso   1.000  H
  H356     1.0000 0.48090  0.26820  0.67060  Biso   1.000  H
  H357     1.0000 0.48090  0.98180  0.57940  Biso   1.000  H
  H358     1.0000 0.26910  0.76820  0.57940  Biso   1.000  H
  H359     1.0000 0.26910  0.98180  0.17060  Biso   1.000  H
  H360     1.0000 0.48090  0.76820  0.17060  Biso   1.000  H
  H361     1.0000 0.98090  0.48180  0.57940  Biso   1.000  H
  H362     1.0000 0.76910  0.26820  0.57940  Biso   1.000  H
  H363     1.0000 0.76910  0.48180  0.17060  Biso   1.000  H
  H364     1.0000 0.98090  0.26820  0.17060  Biso   1.000  H
  H365     1.0000 0.98090  0.98180  0.07940  Biso   1.000  H
  H366     1.0000 0.76910  0.76820  0.07940  Biso   1.000  H
  H367     1.0000 0.76910  0.98180  0.67060  Biso   1.000  H
  H368     1.0000 0.98090  0.76820  0.67060  Biso   1.000  H
  H369     1.0000 0.51910  0.51820  0.92060  Biso   1.000  H
  H370     1.0000 0.23090  0.23180  0.92060  Biso   1.000  H
  H371     1.0000 0.23090  0.51820  0.82940  Biso   1.000  H
  H372     1.0000 0.51910  0.23180  0.82940  Biso   1.000  H
  H373     1.0000 0.51910  0.01820  0.42060  Biso   1.000  H
  H374     1.0000 0.23090  0.73180  0.42060  Biso   1.000  H
  H375     1.0000 0.23090  0.01820  0.32940  Biso   1.000  H
  H376     1.0000 0.51910  0.73180  0.32940  Biso   1.000  H
  H377     1.0000 0.01910  0.51820  0.42060  Biso   1.000  H
  H378     1.0000 0.73090  0.23180  0.42060  Biso   1.000  H
  H379     1.0000 0.73090  0.51820  0.32940  Biso   1.000  H
  H380     1.0000 0.01910  0.23180  0.32940  Biso   1.000  H
  H381     1.0000 0.01910  0.01820  0.92060  Biso   1.000  H
  H382     1.0000 0.73090  0.73180  0.92060  Biso   1.000  H
  H383     1.0000 0.73090  0.01820  0.82940  Biso   1.000  H
  H384     1.0000 0.01910  0.73180  0.82940  Biso   1.000  H
  H385     1.0000 0.44110  0.43970  0.09830  Biso   1.000  H
  H386     1.0000 0.30890  0.31030  0.09830  Biso   1.000  H
  H387     1.0000 0.30890  0.43970  0.65170  Biso   1.000  H
  H388     1.0000 0.44110  0.31030  0.65170  Biso   1.000  H
  H389     1.0000 0.44110  0.93970  0.59830  Biso   1.000  H
  H390     1.0000 0.30890  0.81030  0.59830  Biso   1.000  H
  H391     1.0000 0.30890  0.93970  0.15170  Biso   1.000  H
  H392     1.0000 0.44110  0.81030  0.15170  Biso   1.000  H
  H393     1.0000 0.94110  0.43970  0.59830  Biso   1.000  H
  H394     1.0000 0.80890  0.31030  0.59830  Biso   1.000  H
  H395     1.0000 0.80890  0.43970  0.15170  Biso   1.000  H
  H396     1.0000 0.94110  0.31030  0.15170  Biso   1.000  H
  H397     1.0000 0.94110  0.93970  0.09830  Biso   1.000  H
  H398     1.0000 0.80890  0.81030  0.09830  Biso   1.000  H
  H399     1.0000 0.80890  0.93970  0.65170  Biso   1.000  H
  H400     1.0000 0.94110  0.81030  0.65170  Biso   1.000  H
  H401     1.0000 0.55890  0.56030  0.90170  Biso   1.000  H
  H402     1.0000 0.19110  0.18970  0.90170  Biso   1.000  H
  H403     1.0000 0.19110  0.56030  0.84830  Biso   1.000  H
  H404     1.0000 0.55890  0.18970  0.84830  Biso   1.000  H
  H405     1.0000 0.55890  0.06030  0.40170  Biso   1.000  H
  H406     1.0000 0.19110  0.68970  0.40170  Biso   1.000  H
  H407     1.0000 0.19110  0.06030  0.34830  Biso   1.000  H
  H408     1.0000 0.55890  0.68970  0.34830  Biso   1.000  H
  H409     1.0000 0.05890  0.56030  0.40170  Biso   1.000  H
  H410     1.0000 0.69110  0.18970  0.40170  Biso   1.000  H
  H411     1.0000 0.69110  0.56030  0.34830  Biso   1.000  H
  H412     1.0000 0.05890  0.18970  0.34830  Biso   1.000  H
  H413     1.0000 0.05890  0.06030  0.90170  Biso   1.000  H
  H414     1.0000 0.69110  0.68970  0.90170  Biso   1.000  H
  H415     1.0000 0.69110  0.06030  0.84830  Biso   1.000  H
  H416     1.0000 0.05890  0.68970  0.84830  Biso   1.000  H
  O33      1.0000 0.12190  0.32260  0.02230  Biso   1.000  O
  O34      1.0000 0.62810  0.42740  0.02230  Biso   1.000  O
  O35      1.0000 0.62810  0.32260  0.72770  Biso   1.000  O
  O36      1.0000 0.12190  0.42740  0.72770  Biso   1.000  O
  O37      1.0000 0.12190  0.82260  0.52230  Biso   1.000  O
  O38      1.0000 0.62810  0.92740  0.52230  Biso   1.000  O
  O39      1.0000 0.62810  0.82260  0.22770  Biso   1.000  O
  O40      1.0000 0.12190  0.92740  0.22770  Biso   1.000  O
  O41      1.0000 0.62190  0.32260  0.52230  Biso   1.000  O
  O42      1.0000 0.12810  0.42740  0.52230  Biso   1.000  O
  O43      1.0000 0.12810  0.32260  0.22770  Biso   1.000  O
  O44      1.0000 0.62190  0.42740  0.22770  Biso   1.000  O
  O45      1.0000 0.62190  0.82260  0.02230  Biso   1.000  O
  O46      1.0000 0.12810  0.92740  0.02230  Biso   1.000  O
  O47      1.0000 0.12810  0.82260  0.72770  Biso   1.000  O
  O48      1.0000 0.62190  0.92740  0.72770  Biso   1.000  O
  O49      1.0000 0.87810  0.67740  0.97770  Biso   1.000  O
  O50      1.0000 0.87190  0.07260  0.97770  Biso   1.000  O
  O51      1.0000 0.87190  0.67740  0.77230  Biso   1.000  O
  O52      1.0000 0.87810  0.07260  0.77230  Biso   1.000  O
  O53      1.0000 0.87810  0.17740  0.47770  Biso   1.000  O
  O54      1.0000 0.87190  0.57260  0.47770  Biso   1.000  O
  O55      1.0000 0.87190  0.17740  0.27230  Biso   1.000  O
  O56      1.0000 0.87810  0.57260  0.27230  Biso   1.000  O
  O57      1.0000 0.37810  0.67740  0.47770  Biso   1.000  O
  O58      1.0000 0.37190  0.07260  0.47770  Biso   1.000  O
  O59      1.0000 0.37190  0.67740  0.27230  Biso   1.000  O
  O60      1.0000 0.37810  0.07260  0.27230  Biso   1.000  O
  O61      1.0000 0.37810  0.17740  0.97770  Biso   1.000  O
  O62      1.0000 0.37190  0.57260  0.97770  Biso   1.000  O
  O63      1.0000 0.37190  0.17740  0.77230  Biso   1.000  O
  O64      1.0000 0.37810  0.57260  0.77230  Biso   1.000  O
  N289     1.0000 0.13650  0.24360  0.00820  Biso   1.000  N
  N290     1.0000 0.61350  0.50640  0.00820  Biso   1.000  N
  N291     1.0000 0.61350  0.24360  0.74180  Biso   1.000  N
  N292     1.0000 0.13650  0.50640  0.74180  Biso   1.000  N
  N293     1.0000 0.13650  0.74360  0.50820  Biso   1.000  N
  N294     1.0000 0.61350  0.00640  0.50820  Biso   1.000  N
  N295     1.0000 0.61350  0.74360  0.24180  Biso   1.000  N
  N296     1.0000 0.13650  0.00640  0.24180  Biso   1.000  N
  N297     1.0000 0.63650  0.24360  0.50820  Biso   1.000  N
  N298     1.0000 0.11350  0.50640  0.50820  Biso   1.000  N
  N299     1.0000 0.11350  0.24360  0.24180  Biso   1.000  N
  N300     1.0000 0.63650  0.50640  0.24180  Biso   1.000  N
  N301     1.0000 0.63650  0.74360  0.00820  Biso   1.000  N
  N302     1.0000 0.11350  0.00640  0.00820  Biso   1.000  N
  N303     1.0000 0.11350  0.74360  0.74180  Biso   1.000  N
  N304     1.0000 0.63650  0.00640  0.74180  Biso   1.000  N
  N305     1.0000 0.86350  0.75640  0.99180  Biso   1.000  N
  N306     1.0000 0.88650  0.99360  0.99180  Biso   1.000  N
  N307     1.0000 0.88650  0.75640  0.75820  Biso   1.000  N
  N308     1.0000 0.86350  0.99360  0.75820  Biso   1.000  N
  N309     1.0000 0.86350  0.25640  0.49180  Biso   1.000  N
  N310     1.0000 0.88650  0.49360  0.49180  Biso   1.000  N
  N311     1.0000 0.88650  0.25640  0.25820  Biso   1.000  N
  N312     1.0000 0.86350  0.49360  0.25820  Biso   1.000  N
  N313     1.0000 0.36350  0.75640  0.49180  Biso   1.000  N
  N314     1.0000 0.38650  0.99360  0.49180  Biso   1.000  N
  N315     1.0000 0.38650  0.75640  0.25820  Biso   1.000  N
  N316     1.0000 0.36350  0.99360  0.25820  Biso   1.000  N
  N317     1.0000 0.36350  0.25640  0.99180  Biso   1.000  N
  N318     1.0000 0.38650  0.49360  0.99180  Biso   1.000  N
  N319     1.0000 0.38650  0.25640  0.75820  Biso   1.000  N
  N320     1.0000 0.36350  0.49360  0.75820  Biso   1.000  N
  C321     1.0000 0.15630  0.28810  0.01330  Biso   1.000  C
  C322     1.0000 0.59370  0.46190  0.01330  Biso   1.000  C
  C323     1.0000 0.59370  0.28810  0.73670  Biso   1.000  C
  C324     1.0000 0.15630  0.46190  0.73670  Biso   1.000  C
  C325     1.0000 0.15630  0.78810  0.51330  Biso   1.000  C
  C326     1.0000 0.59370  0.96190  0.51330  Biso   1.000  C
  C327     1.0000 0.59370  0.78810  0.23670  Biso   1.000  C
  C328     1.0000 0.15630  0.96190  0.23670  Biso   1.000  C
  C329     1.0000 0.65630  0.28810  0.51330  Biso   1.000  C
  C330     1.0000 0.09370  0.46190  0.51330  Biso   1.000  C
  C331     1.0000 0.09370  0.28810  0.23670  Biso   1.000  C
  C332     1.0000 0.65630  0.46190  0.23670  Biso   1.000  C
  C333     1.0000 0.65630  0.78810  0.01330  Biso   1.000  C
  C334     1.0000 0.09370  0.96190  0.01330  Biso   1.000  C
  C335     1.0000 0.09370  0.78810  0.73670  Biso   1.000  C
  C336     1.0000 0.65630  0.96190  0.73670  Biso   1.000  C
  C337     1.0000 0.84370  0.71190  0.98670  Biso   1.000  C
  C338     1.0000 0.90630  0.03810  0.98670  Biso   1.000  C
  C339     1.0000 0.90630  0.71190  0.76330  Biso   1.000  C
  C340     1.0000 0.84370  0.03810  0.76330  Biso   1.000  C
  C341     1.0000 0.84370  0.21190  0.48670  Biso   1.000  C
  C342     1.0000 0.90630  0.53810  0.48670  Biso   1.000  C
  C343     1.0000 0.90630  0.21190  0.26330  Biso   1.000  C
  C344     1.0000 0.84370  0.53810  0.26330  Biso   1.000  C
  C345     1.0000 0.34370  0.71190  0.48670  Biso   1.000  C
  C346     1.0000 0.40630  0.03810  0.48670  Biso   1.000  C
  C347     1.0000 0.40630  0.71190  0.26330  Biso   1.000  C
  C348     1.0000 0.34370  0.03810  0.26330  Biso   1.000  C
  C349     1.0000 0.34370  0.21190  0.98670  Biso   1.000  C
  C350     1.0000 0.40630  0.53810  0.98670  Biso   1.000  C
  C351     1.0000 0.40630  0.21190  0.76330  Biso   1.000  C
  C352     1.0000 0.34370  0.53810  0.76330  Biso   1.000  C
  H417     1.0000 0.20310  0.29460  0.00970  Biso   1.000  H
  H418     1.0000 0.54690  0.45540  0.00970  Biso   1.000  H
  H419     1.0000 0.54690  0.29460  0.74030  Biso   1.000  H
  H420     1.0000 0.20310  0.45540  0.74030  Biso   1.000  H
  H421     1.0000 0.20310  0.79460  0.50970  Biso   1.000  H
  H422     1.0000 0.54690  0.95540  0.50970  Biso   1.000  H
  H423     1.0000 0.54690  0.79460  0.24030  Biso   1.000  H
  H424     1.0000 0.20310  0.95540  0.24030  Biso   1.000  H
  H425     1.0000 0.70310  0.29460  0.50970  Biso   1.000  H
  H426     1.0000 0.04690  0.45540  0.50970  Biso   1.000  H
  H427     1.0000 0.04690  0.29460  0.24030  Biso   1.000  H
  H428     1.0000 0.70310  0.45540  0.24030  Biso   1.000  H
  H429     1.0000 0.70310  0.79460  0.00970  Biso   1.000  H
  H430     1.0000 0.04690  0.95540  0.00970  Biso   1.000  H
  H431     1.0000 0.04690  0.79460  0.74030  Biso   1.000  H
  H432     1.0000 0.70310  0.95540  0.74030  Biso   1.000  H
  H433     1.0000 0.79690  0.70540  0.99030  Biso   1.000  H
  H434     1.0000 0.95310  0.04460  0.99030  Biso   1.000  H
  H435     1.0000 0.95310  0.70540  0.75970  Biso   1.000  H
  H436     1.0000 0.79690  0.04460  0.75970  Biso   1.000  H
  H437     1.0000 0.79690  0.20540  0.49030  Biso   1.000  H
  H438     1.0000 0.95310  0.54460  0.49030  Biso   1.000  H
  H439     1.0000 0.95310  0.20540  0.25970  Biso   1.000  H
  H440     1.0000 0.79690  0.54460  0.25970  Biso   1.000  H
  H441     1.0000 0.29690  0.70540  0.49030  Biso   1.000  H
  H442     1.0000 0.45310  0.04460  0.49030  Biso   1.000  H
  H443     1.0000 0.45310  0.70540  0.25970  Biso   1.000  H
  H444     1.0000 0.29690  0.04460  0.25970  Biso   1.000  H
  H445     1.0000 0.29690  0.20540  0.99030  Biso   1.000  H
  H446     1.0000 0.45310  0.54460  0.99030  Biso   1.000  H
  H447     1.0000 0.45310  0.20540  0.75970  Biso   1.000  H
  H448     1.0000 0.29690  0.54460  0.75970  Biso   1.000  H
  C353     1.0000 0.06600  0.22900  0.00760  Biso   1.000  C
  C354     1.0000 0.68400  0.52100  0.00760  Biso   1.000  C
  C355     1.0000 0.68400  0.22900  0.74240  Biso   1.000  C
  C356     1.0000 0.06600  0.52100  0.74240  Biso   1.000  C
  C357     1.0000 0.06600  0.72900  0.50760  Biso   1.000  C
  C358     1.0000 0.68400  0.02100  0.50760  Biso   1.000  C
  C359     1.0000 0.68400  0.72900  0.24240  Biso   1.000  C
  C360     1.0000 0.06600  0.02100  0.24240  Biso   1.000  C
  C361     1.0000 0.56600  0.22900  0.50760  Biso   1.000  C
  C362     1.0000 0.18400  0.52100  0.50760  Biso   1.000  C
  C363     1.0000 0.18400  0.22900  0.24240  Biso   1.000  C
  C364     1.0000 0.56600  0.52100  0.24240  Biso   1.000  C
  C365     1.0000 0.56600  0.72900  0.00760  Biso   1.000  C
  C366     1.0000 0.18400  0.02100  0.00760  Biso   1.000  C
  C367     1.0000 0.18400  0.72900  0.74240  Biso   1.000  C
  C368     1.0000 0.56600  0.02100  0.74240  Biso   1.000  C
  C369     1.0000 0.93400  0.77100  0.99240  Biso   1.000  C
  C370     1.0000 0.81600  0.97900  0.99240  Biso   1.000  C
  C371     1.0000 0.81600  0.77100  0.75760  Biso   1.000  C
  C372     1.0000 0.93400  0.97900  0.75760  Biso   1.000  C
  C373     1.0000 0.93400  0.27100  0.49240  Biso   1.000  C
  C374     1.0000 0.81600  0.47900  0.49240  Biso   1.000  C
  C375     1.0000 0.81600  0.27100  0.25760  Biso   1.000  C
  C376     1.0000 0.93400  0.47900  0.25760  Biso   1.000  C
  C377     1.0000 0.43400  0.77100  0.49240  Biso   1.000  C
  C378     1.0000 0.31600  0.97900  0.49240  Biso   1.000  C
  C379     1.0000 0.31600  0.77100  0.25760  Biso   1.000  C
  C380     1.0000 0.43400  0.97900  0.25760  Biso   1.000  C
  C381     1.0000 0.43400  0.27100  0.99240  Biso   1.000  C
  C382     1.0000 0.31600  0.47900  0.99240  Biso   1.000  C
  C383     1.0000 0.31600  0.27100  0.75760  Biso   1.000  C
  C384     1.0000 0.43400  0.47900  0.75760  Biso   1.000  C
  H449     1.0000 0.03950  0.25090  0.02140  Biso   1.000  H
  H450     1.0000 0.71050  0.49910  0.02140  Biso   1.000  H
  H451     1.0000 0.71050  0.25090  0.72860  Biso   1.000  H
  H452     1.0000 0.03950  0.49910  0.72860  Biso   1.000  H
  H453     1.0000 0.03950  0.75090  0.52140  Biso   1.000  H
  H454     1.0000 0.71050  0.99910  0.52140  Biso   1.000  H
  H455     1.0000 0.71050  0.75090  0.22860  Biso   1.000  H
  H456     1.0000 0.03950  0.99910  0.22860  Biso   1.000  H
  H457     1.0000 0.53950  0.25090  0.52140  Biso   1.000  H
  H458     1.0000 0.21050  0.49910  0.52140  Biso   1.000  H
  H459     1.0000 0.21050  0.25090  0.22860  Biso   1.000  H
  H460     1.0000 0.53950  0.49910  0.22860  Biso   1.000  H
  H461     1.0000 0.53950  0.75090  0.02140  Biso   1.000  H
  H462     1.0000 0.21050  0.99910  0.02140  Biso   1.000  H
  H463     1.0000 0.21050  0.75090  0.72860  Biso   1.000  H
  H464     1.0000 0.53950  0.99910  0.72860  Biso   1.000  H
  H465     1.0000 0.96050  0.74910  0.97860  Biso   1.000  H
  H466     1.0000 0.78950  0.00090  0.97860  Biso   1.000  H
  H467     1.0000 0.78950  0.74910  0.77140  Biso   1.000  H
  H468     1.0000 0.96050  0.00090  0.77140  Biso   1.000  H
  H469     1.0000 0.96050  0.24910  0.47860  Biso   1.000  H
  H470     1.0000 0.78950  0.50090  0.47860  Biso   1.000  H
  H471     1.0000 0.78950  0.24910  0.27140  Biso   1.000  H
  H472     1.0000 0.96050  0.50090  0.27140  Biso   1.000  H
  H473     1.0000 0.46050  0.74910  0.47860  Biso   1.000  H
  H474     1.0000 0.28950  0.00090  0.47860  Biso   1.000  H
  H475     1.0000 0.28950  0.74910  0.27140  Biso   1.000  H
  H476     1.0000 0.46050  0.00090  0.27140  Biso   1.000  H
  H477     1.0000 0.46050  0.24910  0.97860  Biso   1.000  H
  H478     1.0000 0.28950  0.50090  0.97860  Biso   1.000  H
  H479     1.0000 0.28950  0.24910  0.77140  Biso   1.000  H
  H480     1.0000 0.46050  0.50090  0.77140  Biso   1.000  H
  H481     1.0000 0.06190  0.19560  0.01560  Biso   1.000  H
  H482     1.0000 0.68810  0.55440  0.01560  Biso   1.000  H
  H483     1.0000 0.68810  0.19560  0.73440  Biso   1.000  H
  H484     1.0000 0.06190  0.55440  0.73440  Biso   1.000  H
  H485     1.0000 0.06190  0.69560  0.51560  Biso   1.000  H
  H486     1.0000 0.68810  0.05440  0.51560  Biso   1.000  H
  H487     1.0000 0.68810  0.69560  0.23440  Biso   1.000  H
  H488     1.0000 0.06190  0.05440  0.23440  Biso   1.000  H
  H489     1.0000 0.56190  0.19560  0.51560  Biso   1.000  H
  H490     1.0000 0.18810  0.55440  0.51560  Biso   1.000  H
  H491     1.0000 0.18810  0.19560  0.23440  Biso   1.000  H
  H492     1.0000 0.56190  0.55440  0.23440  Biso   1.000  H
  H493     1.0000 0.56190  0.69560  0.01560  Biso   1.000  H
  H494     1.0000 0.18810  0.05440  0.01560  Biso   1.000  H
  H495     1.0000 0.18810  0.69560  0.73440  Biso   1.000  H
  H496     1.0000 0.56190  0.05440  0.73440  Biso   1.000  H
  H497     1.0000 0.93810  0.80440  0.98440  Biso   1.000  H
  H498     1.0000 0.81190  0.94560  0.98440  Biso   1.000  H
  H499     1.0000 0.81190  0.80440  0.76560  Biso   1.000  H
  H500     1.0000 0.93810  0.94560  0.76560  Biso   1.000  H
  H501     1.0000 0.93810  0.30440  0.48440  Biso   1.000  H
  H502     1.0000 0.81190  0.44560  0.48440  Biso   1.000  H
  H503     1.0000 0.81190  0.30440  0.26560  Biso   1.000  H
  H504     1.0000 0.93810  0.44560  0.26560  Biso   1.000  H
  H505     1.0000 0.43810  0.80440  0.48440  Biso   1.000  H
  H506     1.0000 0.31190  0.94560  0.48440  Biso   1.000  H
  H507     1.0000 0.31190  0.80440  0.26560  Biso   1.000  H
  H508     1.0000 0.43810  0.94560  0.26560  Biso   1.000  H
  H509     1.0000 0.43810  0.30440  0.98440  Biso   1.000  H
  H510     1.0000 0.31190  0.44560  0.98440  Biso   1.000  H
  H511     1.0000 0.31190  0.30440  0.76560  Biso   1.000  H
  H512     1.0000 0.43810  0.44560  0.76560  Biso   1.000  H
  H513     1.0000 0.04880  0.23080  0.98550  Biso   1.000  H
  H514     1.0000 0.70120  0.51920  0.98550  Biso   1.000  H
  H515     1.0000 0.70120  0.23080  0.76450  Biso   1.000  H
  H516     1.0000 0.04880  0.51920  0.76450  Biso   1.000  H
  H517     1.0000 0.04880  0.73080  0.48550  Biso   1.000  H
  H518     1.0000 0.70120  0.01920  0.48550  Biso   1.000  H
  H519     1.0000 0.70120  0.73080  0.26450  Biso   1.000  H
  H520     1.0000 0.04880  0.01920  0.26450  Biso   1.000  H
  H521     1.0000 0.54880  0.23080  0.48550  Biso   1.000  H
  H522     1.0000 0.20120  0.51920  0.48550  Biso   1.000  H
  H523     1.0000 0.20120  0.23080  0.26450  Biso   1.000  H
  H524     1.0000 0.54880  0.51920  0.26450  Biso   1.000  H
  H525     1.0000 0.54880  0.73080  0.98550  Biso   1.000  H
  H526     1.0000 0.20120  0.01920  0.98550  Biso   1.000  H
  H527     1.0000 0.20120  0.73080  0.76450  Biso   1.000  H
  H528     1.0000 0.54880  0.01920  0.76450  Biso   1.000  H
  H529     1.0000 0.95120  0.76920  0.01450  Biso   1.000  H
  H530     1.0000 0.79880  0.98080  0.01450  Biso   1.000  H
  H531     1.0000 0.79880  0.76920  0.73550  Biso   1.000  H
  H532     1.0000 0.95120  0.98080  0.73550  Biso   1.000  H
  H533     1.0000 0.95120  0.26920  0.51450  Biso   1.000  H
  H534     1.0000 0.79880  0.48080  0.51450  Biso   1.000  H
  H535     1.0000 0.79880  0.26920  0.23550  Biso   1.000  H
  H536     1.0000 0.95120  0.48080  0.23550  Biso   1.000  H
  H537     1.0000 0.45120  0.76920  0.51450  Biso   1.000  H
  H538     1.0000 0.29880  0.98080  0.51450  Biso   1.000  H
  H539     1.0000 0.29880  0.76920  0.23550  Biso   1.000  H
  H540     1.0000 0.45120  0.98080  0.23550  Biso   1.000  H
  H541     1.0000 0.45120  0.26920  0.01450  Biso   1.000  H
  H542     1.0000 0.29880  0.48080  0.01450  Biso   1.000  H
  H543     1.0000 0.29880  0.26920  0.73550  Biso   1.000  H
  H544     1.0000 0.45120  0.48080  0.73550  Biso   1.000  H
  C385     1.0000 0.18730  0.20520  0.00260  Biso   1.000  C
  C386     1.0000 0.56270  0.54480  0.00260  Biso   1.000  C
  C387     1.0000 0.56270  0.20520  0.74740  Biso   1.000  C
  C388     1.0000 0.18730  0.54480  0.74740  Biso   1.000  C
  C389     1.0000 0.18730  0.70520  0.50260  Biso   1.000  C
  C390     1.0000 0.56270  0.04480  0.50260  Biso   1.000  C
  C391     1.0000 0.56270  0.70520  0.24740  Biso   1.000  C
  C392     1.0000 0.18730  0.04480  0.24740  Biso   1.000  C
  C393     1.0000 0.68730  0.20520  0.50260  Biso   1.000  C
  C394     1.0000 0.06270  0.54480  0.50260  Biso   1.000  C
  C395     1.0000 0.06270  0.20520  0.24740  Biso   1.000  C
  C396     1.0000 0.68730  0.54480  0.24740  Biso   1.000  C
  C397     1.0000 0.68730  0.70520  0.00260  Biso   1.000  C
  C398     1.0000 0.06270  0.04480  0.00260  Biso   1.000  C
  C399     1.0000 0.06270  0.70520  0.74740  Biso   1.000  C
  C400     1.0000 0.68730  0.04480  0.74740  Biso   1.000  C
  C401     1.0000 0.81270  0.79480  0.99740  Biso   1.000  C
  C402     1.0000 0.93730  0.95520  0.99740  Biso   1.000  C
  C403     1.0000 0.93730  0.79480  0.75260  Biso   1.000  C
  C404     1.0000 0.81270  0.95520  0.75260  Biso   1.000  C
  C405     1.0000 0.81270  0.29480  0.49740  Biso   1.000  C
  C406     1.0000 0.93730  0.45520  0.49740  Biso   1.000  C
  C407     1.0000 0.93730  0.29480  0.25260  Biso   1.000  C
  C408     1.0000 0.81270  0.45520  0.25260  Biso   1.000  C
  C409     1.0000 0.31270  0.79480  0.49740  Biso   1.000  C
  C410     1.0000 0.43730  0.95520  0.49740  Biso   1.000  C
  C411     1.0000 0.43730  0.79480  0.25260  Biso   1.000  C
  C412     1.0000 0.31270  0.95520  0.25260  Biso   1.000  C
  C413     1.0000 0.31270  0.29480  0.99740  Biso   1.000  C
  C414     1.0000 0.43730  0.45520  0.99740  Biso   1.000  C
  C415     1.0000 0.43730  0.29480  0.75260  Biso   1.000  C
  C416     1.0000 0.31270  0.45520  0.75260  Biso   1.000  C
  H545     1.0000 0.17870  0.18960  0.98180  Biso   1.000  H
  H546     1.0000 0.57130  0.56040  0.98180  Biso   1.000  H
  H547     1.0000 0.57130  0.18960  0.76820  Biso   1.000  H
  H548     1.0000 0.17870  0.56040  0.76820  Biso   1.000  H
  H549     1.0000 0.17870  0.68960  0.48180  Biso   1.000  H
  H550     1.0000 0.57130  0.06040  0.48180  Biso   1.000  H
  H551     1.0000 0.57130  0.68960  0.26820  Biso   1.000  H
  H552     1.0000 0.17870  0.06040  0.26820  Biso   1.000  H
  H553     1.0000 0.67870  0.18960  0.48180  Biso   1.000  H
  H554     1.0000 0.07130  0.56040  0.48180  Biso   1.000  H
  H555     1.0000 0.07130  0.18960  0.26820  Biso   1.000  H
  H556     1.0000 0.67870  0.56040  0.26820  Biso   1.000  H
  H557     1.0000 0.67870  0.68960  0.98180  Biso   1.000  H
  H558     1.0000 0.07130  0.06040  0.98180  Biso   1.000  H
  H559     1.0000 0.07130  0.68960  0.76820  Biso   1.000  H
  H560     1.0000 0.67870  0.06040  0.76820  Biso   1.000  H
  H561     1.0000 0.82130  0.81040  0.01820  Biso   1.000  H
  H562     1.0000 0.92870  0.93960  0.01820  Biso   1.000  H
  H563     1.0000 0.92870  0.81040  0.73180  Biso   1.000  H
  H564     1.0000 0.82130  0.93960  0.73180  Biso   1.000  H
  H565     1.0000 0.82130  0.31040  0.51820  Biso   1.000  H
  H566     1.0000 0.92870  0.43960  0.51820  Biso   1.000  H
  H567     1.0000 0.92870  0.31040  0.23180  Biso   1.000  H
  H568     1.0000 0.82130  0.43960  0.23180  Biso   1.000  H
  H569     1.0000 0.32130  0.81040  0.51820  Biso   1.000  H
  H570     1.0000 0.42870  0.93960  0.51820  Biso   1.000  H
  H571     1.0000 0.42870  0.81040  0.23180  Biso   1.000  H
  H572     1.0000 0.32130  0.93960  0.23180  Biso   1.000  H
  H573     1.0000 0.32130  0.31040  0.01820  Biso   1.000  H
  H574     1.0000 0.42870  0.43960  0.01820  Biso   1.000  H
  H575     1.0000 0.42870  0.31040  0.73180  Biso   1.000  H
  H576     1.0000 0.32130  0.43960  0.73180  Biso   1.000  H
  H577     1.0000 0.18440  0.18090  0.01980  Biso   1.000  H
  H578     1.0000 0.56560  0.56910  0.01980  Biso   1.000  H
  H579     1.0000 0.56560  0.18090  0.73020  Biso   1.000  H
  H580     1.0000 0.18440  0.56910  0.73020  Biso   1.000  H
  H581     1.0000 0.18440  0.68090  0.51980  Biso   1.000  H
  H582     1.0000 0.56560  0.06910  0.51980  Biso   1.000  H
  H583     1.0000 0.56560  0.68090  0.23020  Biso   1.000  H
  H584     1.0000 0.18440  0.06910  0.23020  Biso   1.000  H
  H585     1.0000 0.68440  0.18090  0.51980  Biso   1.000  H
  H586     1.0000 0.06560  0.56910  0.51980  Biso   1.000  H
  H587     1.0000 0.06560  0.18090  0.23020  Biso   1.000  H
  H588     1.0000 0.68440  0.56910  0.23020  Biso   1.000  H
  H589     1.0000 0.68440  0.68090  0.01980  Biso   1.000  H
  H590     1.0000 0.06560  0.06910  0.01980  Biso   1.000  H
  H591     1.0000 0.06560  0.68090  0.73020  Biso   1.000  H
  H592     1.0000 0.68440  0.06910  0.73020  Biso   1.000  H
  H593     1.0000 0.81560  0.81910  0.98020  Biso   1.000  H
  H594     1.0000 0.93440  0.93090  0.98020  Biso   1.000  H
  H595     1.0000 0.93440  0.81910  0.76980  Biso   1.000  H
  H596     1.0000 0.81560  0.93090  0.76980  Biso   1.000  H
  H597     1.0000 0.81560  0.31910  0.48020  Biso   1.000  H
  H598     1.0000 0.93440  0.43090  0.48020  Biso   1.000  H
  H599     1.0000 0.93440  0.31910  0.26980  Biso   1.000  H
  H600     1.0000 0.81560  0.43090  0.26980  Biso   1.000  H
  H601     1.0000 0.31560  0.81910  0.48020  Biso   1.000  H
  H602     1.0000 0.43440  0.93090  0.48020  Biso   1.000  H
  H603     1.0000 0.43440  0.81910  0.26980  Biso   1.000  H
  H604     1.0000 0.31560  0.93090  0.26980  Biso   1.000  H
  H605     1.0000 0.31560  0.31910  0.98020  Biso   1.000  H
  H606     1.0000 0.43440  0.43090  0.98020  Biso   1.000  H
  H607     1.0000 0.43440  0.31910  0.76980  Biso   1.000  H
  H608     1.0000 0.31560  0.43090  0.76980  Biso   1.000  H
  H609     1.0000 0.23280  0.21970  0.00250  Biso   1.000  H
  H610     1.0000 0.51720  0.53030  0.00250  Biso   1.000  H
  H611     1.0000 0.51720  0.21970  0.74750  Biso   1.000  H
  H612     1.0000 0.23280  0.53030  0.74750  Biso   1.000  H
  H613     1.0000 0.23280  0.71970  0.50250  Biso   1.000  H
  H614     1.0000 0.51720  0.03030  0.50250  Biso   1.000  H
  H615     1.0000 0.51720  0.71970  0.24750  Biso   1.000  H
  H616     1.0000 0.23280  0.03030  0.24750  Biso   1.000  H
  H617     1.0000 0.73280  0.21970  0.50250  Biso   1.000  H
  H618     1.0000 0.01720  0.53030  0.50250  Biso   1.000  H
  H619     1.0000 0.01720  0.21970  0.24750  Biso   1.000  H
  H620     1.0000 0.73280  0.53030  0.24750  Biso   1.000  H
  H621     1.0000 0.73280  0.71970  0.00250  Biso   1.000  H
  H622     1.0000 0.01720  0.03030  0.00250  Biso   1.000  H
  H623     1.0000 0.01720  0.71970  0.74750  Biso   1.000  H
  H624     1.0000 0.73280  0.03030  0.74750  Biso   1.000  H
  H625     1.0000 0.76720  0.78030  0.99750  Biso   1.000  H
  H626     1.0000 0.98280  0.96970  0.99750  Biso   1.000  H
  H627     1.0000 0.98280  0.78030  0.75250  Biso   1.000  H
  H628     1.0000 0.76720  0.96970  0.75250  Biso   1.000  H
  H629     1.0000 0.76720  0.28030  0.49750  Biso   1.000  H
  H630     1.0000 0.98280  0.46970  0.49750  Biso   1.000  H
  H631     1.0000 0.98280  0.28030  0.25250  Biso   1.000  H
  H632     1.0000 0.76720  0.46970  0.25250  Biso   1.000  H
  H633     1.0000 0.26720  0.78030  0.49750  Biso   1.000  H
  H634     1.0000 0.48280  0.96970  0.49750  Biso   1.000  H
  H635     1.0000 0.48280  0.78030  0.25250  Biso   1.000  H
  H636     1.0000 0.26720  0.96970  0.25250  Biso   1.000  H
  H637     1.0000 0.26720  0.28030  0.99750  Biso   1.000  H
  H638     1.0000 0.48280  0.46970  0.99750  Biso   1.000  H
  H639     1.0000 0.48280  0.28030  0.75250  Biso   1.000  H
  H640     1.0000 0.26720  0.46970  0.75250  Biso   1.000  H
  O65      1.0000 0.07680  0.40610  0.98660  Biso   1.000  O
  O66      1.0000 0.67320  0.34390  0.98660  Biso   1.000  O
  O67      1.0000 0.67320  0.40610  0.76340  Biso   1.000  O
  O68      1.0000 0.07680  0.34390  0.76340  Biso   1.000  O
  O69      1.0000 0.07680  0.90610  0.48660  Biso   1.000  O
  O70      1.0000 0.67320  0.84390  0.48660  Biso   1.000  O
  O71      1.0000 0.67320  0.90610  0.26340  Biso   1.000  O
  O72      1.0000 0.07680  0.84390  0.26340  Biso   1.000  O
  O73      1.0000 0.57680  0.40610  0.48660  Biso   1.000  O
  O74      1.0000 0.17320  0.34390  0.48660  Biso   1.000  O
  O75      1.0000 0.17320  0.40610  0.26340  Biso   1.000  O
  O76      1.0000 0.57680  0.34390  0.26340  Biso   1.000  O
  O77      1.0000 0.57680  0.90610  0.98660  Biso   1.000  O
  O78      1.0000 0.17320  0.84390  0.98660  Biso   1.000  O
  O79      1.0000 0.17320  0.90610  0.76340  Biso   1.000  O
  O80      1.0000 0.57680  0.84390  0.76340  Biso   1.000  O
  O81      1.0000 0.92320  0.59390  0.01340  Biso   1.000  O
  O82      1.0000 0.82680  0.15610  0.01340  Biso   1.000  O
  O83      1.0000 0.82680  0.59390  0.73660  Biso   1.000  O
  O84      1.0000 0.92320  0.15610  0.73660  Biso   1.000  O
  O85      1.0000 0.92320  0.09390  0.51340  Biso   1.000  O
  O86      1.0000 0.82680  0.65610  0.51340  Biso   1.000  O
  O87      1.0000 0.82680  0.09390  0.23660  Biso   1.000  O
  O88      1.0000 0.92320  0.65610  0.23660  Biso   1.000  O
  O89      1.0000 0.42320  0.59390  0.51340  Biso   1.000  O
  O90      1.0000 0.32680  0.15610  0.51340  Biso   1.000  O
  O91      1.0000 0.32680  0.59390  0.23660  Biso   1.000  O
  O92      1.0000 0.42320  0.15610  0.23660  Biso   1.000  O
  O93      1.0000 0.42320  0.09390  0.01340  Biso   1.000  O
  O94      1.0000 0.32680  0.65610  0.01340  Biso   1.000  O
  O95      1.0000 0.32680  0.09390  0.73660  Biso   1.000  O
  O96      1.0000 0.42320  0.65610  0.73660  Biso   1.000  O
  N321     1.0000 0.01530  0.40580  0.94070  Biso   1.000  N
  N322     1.0000 0.73470  0.34420  0.94070  Biso   1.000  N
  N323     1.0000 0.73470  0.40580  0.80930  Biso   1.000  N
  N324     1.0000 0.01530  0.34420  0.80930  Biso   1.000  N
  N325     1.0000 0.01530  0.90580  0.44070  Biso   1.000  N
  N326     1.0000 0.73470  0.84420  0.44070  Biso   1.000  N
  N327     1.0000 0.73470  0.90580  0.30930  Biso   1.000  N
  N328     1.0000 0.01530  0.84420  0.30930  Biso   1.000  N
  N329     1.0000 0.51530  0.40580  0.44070  Biso   1.000  N
  N330     1.0000 0.23470  0.34420  0.44070  Biso   1.000  N
  N331     1.0000 0.23470  0.40580  0.30930  Biso   1.000  N
  N332     1.0000 0.51530  0.34420  0.30930  Biso   1.000  N
  N333     1.0000 0.51530  0.90580  0.94070  Biso   1.000  N
  N334     1.0000 0.23470  0.84420  0.94070  Biso   1.000  N
  N335     1.0000 0.23470  0.90580  0.80930  Biso   1.000  N
  N336     1.0000 0.51530  0.84420  0.80930  Biso   1.000  N
  N337     1.0000 0.98470  0.59420  0.05930  Biso   1.000  N
  N338     1.0000 0.76530  0.15580  0.05930  Biso   1.000  N
  N339     1.0000 0.76530  0.59420  0.69070  Biso   1.000  N
  N340     1.0000 0.98470  0.15580  0.69070  Biso   1.000  N
  N341     1.0000 0.98470  0.09420  0.55930  Biso   1.000  N
  N342     1.0000 0.76530  0.65580  0.55930  Biso   1.000  N
  N343     1.0000 0.76530  0.09420  0.19070  Biso   1.000  N
  N344     1.0000 0.98470  0.65580  0.19070  Biso   1.000  N
  N345     1.0000 0.48470  0.59420  0.55930  Biso   1.000  N
  N346     1.0000 0.26530  0.15580  0.55930  Biso   1.000  N
  N347     1.0000 0.26530  0.59420  0.19070  Biso   1.000  N
  N348     1.0000 0.48470  0.15580  0.19070  Biso   1.000  N
  N349     1.0000 0.48470  0.09420  0.05930  Biso   1.000  N
  N350     1.0000 0.26530  0.65580  0.05930  Biso   1.000  N
  N351     1.0000 0.26530  0.09420  0.69070  Biso   1.000  N
  N352     1.0000 0.48470  0.65580  0.69070  Biso   1.000  N
  C417     1.0000 0.04990  0.38430  0.96390  Biso   1.000  C
  C418     1.0000 0.70010  0.36570  0.96390  Biso   1.000  C
  C419     1.0000 0.70010  0.38430  0.78610  Biso   1.000  C
  C420     1.0000 0.04990  0.36570  0.78610  Biso   1.000  C
  C421     1.0000 0.04990  0.88430  0.46390  Biso   1.000  C
  C422     1.0000 0.70010  0.86570  0.46390  Biso   1.000  C
  C423     1.0000 0.70010  0.88430  0.28610  Biso   1.000  C
  C424     1.0000 0.04990  0.86570  0.28610  Biso   1.000  C
  C425     1.0000 0.54990  0.38430  0.46390  Biso   1.000  C
  C426     1.0000 0.20010  0.36570  0.46390  Biso   1.000  C
  C427     1.0000 0.20010  0.38430  0.28610  Biso   1.000  C
  C428     1.0000 0.54990  0.36570  0.28610  Biso   1.000  C
  C429     1.0000 0.54990  0.88430  0.96390  Biso   1.000  C
  C430     1.0000 0.20010  0.86570  0.96390  Biso   1.000  C
  C431     1.0000 0.20010  0.88430  0.78610  Biso   1.000  C
  C432     1.0000 0.54990  0.86570  0.78610  Biso   1.000  C
  C433     1.0000 0.95010  0.61570  0.03610  Biso   1.000  C
  C434     1.0000 0.79990  0.13430  0.03610  Biso   1.000  C
  C435     1.0000 0.79990  0.61570  0.71390  Biso   1.000  C
  C436     1.0000 0.95010  0.13430  0.71390  Biso   1.000  C
  C437     1.0000 0.95010  0.11570  0.53610  Biso   1.000  C
  C438     1.0000 0.79990  0.63430  0.53610  Biso   1.000  C
  C439     1.0000 0.79990  0.11570  0.21390  Biso   1.000  C
  C440     1.0000 0.95010  0.63430  0.21390  Biso   1.000  C
  C441     1.0000 0.45010  0.61570  0.53610  Biso   1.000  C
  C442     1.0000 0.29990  0.13430  0.53610  Biso   1.000  C
  C443     1.0000 0.29990  0.61570  0.21390  Biso   1.000  C
  C444     1.0000 0.45010  0.13430  0.21390  Biso   1.000  C
  C445     1.0000 0.45010  0.11570  0.03610  Biso   1.000  C
  C446     1.0000 0.29990  0.63430  0.03610  Biso   1.000  C
  C447     1.0000 0.29990  0.11570  0.71390  Biso   1.000  C
  C448     1.0000 0.45010  0.63430  0.71390  Biso   1.000  C
  H641     1.0000 0.05440  0.34990  0.96310  Biso   1.000  H
  H642     1.0000 0.69560  0.40010  0.96310  Biso   1.000  H
  H643     1.0000 0.69560  0.34990  0.78690  Biso   1.000  H
  H644     1.0000 0.05440  0.40010  0.78690  Biso   1.000  H
  H645     1.0000 0.05440  0.84990  0.46310  Biso   1.000  H
  H646     1.0000 0.69560  0.90010  0.46310  Biso   1.000  H
  H647     1.0000 0.69560  0.84990  0.28690  Biso   1.000  H
  H648     1.0000 0.05440  0.90010  0.28690  Biso   1.000  H
  H649     1.0000 0.55440  0.34990  0.46310  Biso   1.000  H
  H650     1.0000 0.19560  0.40010  0.46310  Biso   1.000  H
  H651     1.0000 0.19560  0.34990  0.28690  Biso   1.000  H
  H652     1.0000 0.55440  0.40010  0.28690  Biso   1.000  H
  H653     1.0000 0.55440  0.84990  0.96310  Biso   1.000  H
  H654     1.0000 0.19560  0.90010  0.96310  Biso   1.000  H
  H655     1.0000 0.19560  0.84990  0.78690  Biso   1.000  H
  H656     1.0000 0.55440  0.90010  0.78690  Biso   1.000  H
  H657     1.0000 0.94560  0.65010  0.03690  Biso   1.000  H
  H658     1.0000 0.80440  0.09990  0.03690  Biso   1.000  H
  H659     1.0000 0.80440  0.65010  0.71310  Biso   1.000  H
  H660     1.0000 0.94560  0.09990  0.71310  Biso   1.000  H
  H661     1.0000 0.94560  0.15010  0.53690  Biso   1.000  H
  H662     1.0000 0.80440  0.59990  0.53690  Biso   1.000  H
  H663     1.0000 0.80440  0.15010  0.21310  Biso   1.000  H
  H664     1.0000 0.94560  0.59990  0.21310  Biso   1.000  H
  H665     1.0000 0.44560  0.65010  0.53690  Biso   1.000  H
  H666     1.0000 0.30440  0.09990  0.53690  Biso   1.000  H
  H667     1.0000 0.30440  0.65010  0.21310  Biso   1.000  H
  H668     1.0000 0.44560  0.09990  0.21310  Biso   1.000  H
  H669     1.0000 0.44560  0.15010  0.03690  Biso   1.000  H
  H670     1.0000 0.30440  0.59990  0.03690  Biso   1.000  H
  H671     1.0000 0.30440  0.15010  0.71310  Biso   1.000  H
  H672     1.0000 0.44560  0.59990  0.71310  Biso   1.000  H
  C449     1.0000 0.98610  0.37760  0.91410  Biso   1.000  C
  C450     1.0000 0.76390  0.37240  0.91410  Biso   1.000  C
  C451     1.0000 0.76390  0.37760  0.83590  Biso   1.000  C
  C452     1.0000 0.98610  0.37240  0.83590  Biso   1.000  C
  C453     1.0000 0.98610  0.87760  0.41410  Biso   1.000  C
  C454     1.0000 0.76390  0.87240  0.41410  Biso   1.000  C
  C455     1.0000 0.76390  0.87760  0.33590  Biso   1.000  C
  C456     1.0000 0.98610  0.87240  0.33590  Biso   1.000  C
  C457     1.0000 0.48610  0.37760  0.41410  Biso   1.000  C
  C458     1.0000 0.26390  0.37240  0.41410  Biso   1.000  C
  C459     1.0000 0.26390  0.37760  0.33590  Biso   1.000  C
  C460     1.0000 0.48610  0.37240  0.33590  Biso   1.000  C
  C461     1.0000 0.48610  0.87760  0.91410  Biso   1.000  C
  C462     1.0000 0.26390  0.87240  0.91410  Biso   1.000  C
  C463     1.0000 0.26390  0.87760  0.83590  Biso   1.000  C
  C464     1.0000 0.48610  0.87240  0.83590  Biso   1.000  C
  C465     1.0000 0.01390  0.62240  0.08590  Biso   1.000  C
  C466     1.0000 0.73610  0.12760  0.08590  Biso   1.000  C
  C467     1.0000 0.73610  0.62240  0.66410  Biso   1.000  C
  C468     1.0000 0.01390  0.12760  0.66410  Biso   1.000  C
  C469     1.0000 0.01390  0.12240  0.58590  Biso   1.000  C
  C470     1.0000 0.73610  0.62760  0.58590  Biso   1.000  C
  C471     1.0000 0.73610  0.12240  0.16410  Biso   1.000  C
  C472     1.0000 0.01390  0.62760  0.16410  Biso   1.000  C
  C473     1.0000 0.51390  0.62240  0.58590  Biso   1.000  C
  C474     1.0000 0.23610  0.12760  0.58590  Biso   1.000  C
  C475     1.0000 0.23610  0.62240  0.16410  Biso   1.000  C
  C476     1.0000 0.51390  0.12760  0.16410  Biso   1.000  C
  C477     1.0000 0.51390  0.12240  0.08590  Biso   1.000  C
  C478     1.0000 0.23610  0.62760  0.08590  Biso   1.000  C
  C479     1.0000 0.23610  0.12240  0.66410  Biso   1.000  C
  C480     1.0000 0.51390  0.62760  0.66410  Biso   1.000  C
  H673     1.0000 0.01960  0.35390  0.90640  Biso   1.000  H
  H674     1.0000 0.73040  0.39610  0.90640  Biso   1.000  H
  H675     1.0000 0.73040  0.35390  0.84360  Biso   1.000  H
  H676     1.0000 0.01960  0.39610  0.84360  Biso   1.000  H
  H677     1.0000 0.01960  0.85390  0.40640  Biso   1.000  H
  H678     1.0000 0.73040  0.89610  0.40640  Biso   1.000  H
  H679     1.0000 0.73040  0.85390  0.34360  Biso   1.000  H
  H680     1.0000 0.01960  0.89610  0.34360  Biso   1.000  H
  H681     1.0000 0.51960  0.35390  0.40640  Biso   1.000  H
  H682     1.0000 0.23040  0.39610  0.40640  Biso   1.000  H
  H683     1.0000 0.23040  0.35390  0.34360  Biso   1.000  H
  H684     1.0000 0.51960  0.39610  0.34360  Biso   1.000  H
  H685     1.0000 0.51960  0.85390  0.90640  Biso   1.000  H
  H686     1.0000 0.23040  0.89610  0.90640  Biso   1.000  H
  H687     1.0000 0.23040  0.85390  0.84360  Biso   1.000  H
  H688     1.0000 0.51960  0.89610  0.84360  Biso   1.000  H
  H689     1.0000 0.98040  0.64610  0.09360  Biso   1.000  H
  H690     1.0000 0.76960  0.10390  0.09360  Biso   1.000  H
  H691     1.0000 0.76960  0.64610  0.65640  Biso   1.000  H
  H692     1.0000 0.98040  0.10390  0.65640  Biso   1.000  H
  H693     1.0000 0.98040  0.14610  0.59360  Biso   1.000  H
  H694     1.0000 0.76960  0.60390  0.59360  Biso   1.000  H
  H695     1.0000 0.76960  0.14610  0.15640  Biso   1.000  H
  H696     1.0000 0.98040  0.60390  0.15640  Biso   1.000  H
  H697     1.0000 0.48040  0.64610  0.59360  Biso   1.000  H
  H698     1.0000 0.26960  0.10390  0.59360  Biso   1.000  H
  H699     1.0000 0.26960  0.64610  0.15640  Biso   1.000  H
  H700     1.0000 0.48040  0.10390  0.15640  Biso   1.000  H
  H701     1.0000 0.48040  0.14610  0.09360  Biso   1.000  H
  H702     1.0000 0.26960  0.60390  0.09360  Biso   1.000  H
  H703     1.0000 0.26960  0.14610  0.65640  Biso   1.000  H
  H704     1.0000 0.48040  0.60390  0.65640  Biso   1.000  H
  H705     1.0000 0.97390  0.39970  0.89640  Biso   1.000  H
  H706     1.0000 0.77610  0.35030  0.89640  Biso   1.000  H
  H707     1.0000 0.77610  0.39970  0.85360  Biso   1.000  H
  H708     1.0000 0.97390  0.35030  0.85360  Biso   1.000  H
  H709     1.0000 0.97390  0.89970  0.39640  Biso   1.000  H
  H710     1.0000 0.77610  0.85030  0.39640  Biso   1.000  H
  H711     1.0000 0.77610  0.89970  0.35360  Biso   1.000  H
  H712     1.0000 0.97390  0.85030  0.35360  Biso   1.000  H
  H713     1.0000 0.47390  0.39970  0.39640  Biso   1.000  H
  H714     1.0000 0.27610  0.35030  0.39640  Biso   1.000  H
  H715     1.0000 0.27610  0.39970  0.35360  Biso   1.000  H
  H716     1.0000 0.47390  0.35030  0.35360  Biso   1.000  H
  H717     1.0000 0.47390  0.89970  0.89640  Biso   1.000  H
  H718     1.0000 0.27610  0.85030  0.89640  Biso   1.000  H
  H719     1.0000 0.27610  0.89970  0.85360  Biso   1.000  H
  H720     1.0000 0.47390  0.85030  0.85360  Biso   1.000  H
  H721     1.0000 0.02610  0.60030  0.10360  Biso   1.000  H
  H722     1.0000 0.72390  0.14970  0.10360  Biso   1.000  H
  H723     1.0000 0.72390  0.60030  0.64640  Biso   1.000  H
  H724     1.0000 0.02610  0.14970  0.64640  Biso   1.000  H
  H725     1.0000 0.02610  0.10030  0.60360  Biso   1.000  H
  H726     1.0000 0.72390  0.64970  0.60360  Biso   1.000  H
  H727     1.0000 0.72390  0.10030  0.14640  Biso   1.000  H
  H728     1.0000 0.02610  0.64970  0.14640  Biso   1.000  H
  H729     1.0000 0.52610  0.60030  0.60360  Biso   1.000  H
  H730     1.0000 0.22390  0.14970  0.60360  Biso   1.000  H
  H731     1.0000 0.22390  0.60030  0.14640  Biso   1.000  H
  H732     1.0000 0.52610  0.14970  0.14640  Biso   1.000  H
  H733     1.0000 0.52610  0.10030  0.10360  Biso   1.000  H
  H734     1.0000 0.22390  0.64970  0.10360  Biso   1.000  H
  H735     1.0000 0.22390  0.10030  0.64640  Biso   1.000  H
  H736     1.0000 0.52610  0.64970  0.64640  Biso   1.000  H
  H737     1.0000 0.94550  0.36050  0.92160  Biso   1.000  H
  H738     1.0000 0.80450  0.38950  0.92160  Biso   1.000  H
  H739     1.0000 0.80450  0.36050  0.82840  Biso   1.000  H
  H740     1.0000 0.94550  0.38950  0.82840  Biso   1.000  H
  H741     1.0000 0.94550  0.86050  0.42160  Biso   1.000  H
  H742     1.0000 0.80450  0.88950  0.42160  Biso   1.000  H
  H743     1.0000 0.80450  0.86050  0.32840  Biso   1.000  H
  H744     1.0000 0.94550  0.88950  0.32840  Biso   1.000  H
  H745     1.0000 0.44550  0.36050  0.42160  Biso   1.000  H
  H746     1.0000 0.30450  0.38950  0.42160  Biso   1.000  H
  H747     1.0000 0.30450  0.36050  0.32840  Biso   1.000  H
  H748     1.0000 0.44550  0.38950  0.32840  Biso   1.000  H
  H749     1.0000 0.44550  0.86050  0.92160  Biso   1.000  H
  H750     1.0000 0.30450  0.88950  0.92160  Biso   1.000  H
  H751     1.0000 0.30450  0.86050  0.82840  Biso   1.000  H
  H752     1.0000 0.44550  0.88950  0.82840  Biso   1.000  H
  H753     1.0000 0.05450  0.63950  0.07840  Biso   1.000  H
  H754     1.0000 0.69550  0.11050  0.07840  Biso   1.000  H
  H755     1.0000 0.69550  0.63950  0.67160  Biso   1.000  H
  H756     1.0000 0.05450  0.11050  0.67160  Biso   1.000  H
  H757     1.0000 0.05450  0.13950  0.57840  Biso   1.000  H
  H758     1.0000 0.69550  0.61050  0.57840  Biso   1.000  H
  H759     1.0000 0.69550  0.13950  0.17160  Biso   1.000  H
  H760     1.0000 0.05450  0.61050  0.17160  Biso   1.000  H
  H761     1.0000 0.55450  0.63950  0.57840  Biso   1.000  H
  H762     1.0000 0.19550  0.11050  0.57840  Biso   1.000  H
  H763     1.0000 0.19550  0.63950  0.17160  Biso   1.000  H
  H764     1.0000 0.55450  0.11050  0.17160  Biso   1.000  H
  H765     1.0000 0.55450  0.13950  0.07840  Biso   1.000  H
  H766     1.0000 0.19550  0.61050  0.07840  Biso   1.000  H
  H767     1.0000 0.19550  0.13950  0.67160  Biso   1.000  H
  H768     1.0000 0.55450  0.61050  0.67160  Biso   1.000  H
  C481     1.0000 0.00570  0.45900  0.94160  Biso   1.000  C
  C482     1.0000 0.74430  0.29100  0.94160  Biso   1.000  C
  C483     1.0000 0.74430  0.45900  0.80840  Biso   1.000  C
  C484     1.0000 0.00570  0.29100  0.80840  Biso   1.000  C
  C485     1.0000 0.00570  0.95900  0.44160  Biso   1.000  C
  C486     1.0000 0.74430  0.79100  0.44160  Biso   1.000  C
  C487     1.0000 0.74430  0.95900  0.30840  Biso   1.000  C
  C488     1.0000 0.00570  0.79100  0.30840  Biso   1.000  C
  C489     1.0000 0.50570  0.45900  0.44160  Biso   1.000  C
  C490     1.0000 0.24430  0.29100  0.44160  Biso   1.000  C
  C491     1.0000 0.24430  0.45900  0.30840  Biso   1.000  C
  C492     1.0000 0.50570  0.29100  0.30840  Biso   1.000  C
  C493     1.0000 0.50570  0.95900  0.94160  Biso   1.000  C
  C494     1.0000 0.24430  0.79100  0.94160  Biso   1.000  C
  C495     1.0000 0.24430  0.95900  0.80840  Biso   1.000  C
  C496     1.0000 0.50570  0.79100  0.80840  Biso   1.000  C
  C497     1.0000 0.99430  0.54100  0.05840  Biso   1.000  C
  C498     1.0000 0.75570  0.20900  0.05840  Biso   1.000  C
  C499     1.0000 0.75570  0.54100  0.69160  Biso   1.000  C
  C500     1.0000 0.99430  0.20900  0.69160  Biso   1.000  C
  C501     1.0000 0.99430  0.04100  0.55840  Biso   1.000  C
  C502     1.0000 0.75570  0.70900  0.55840  Biso   1.000  C
  C503     1.0000 0.75570  0.04100  0.19160  Biso   1.000  C
  C504     1.0000 0.99430  0.70900  0.19160  Biso   1.000  C
  C505     1.0000 0.49430  0.54100  0.55840  Biso   1.000  C
  C506     1.0000 0.25570  0.20900  0.55840  Biso   1.000  C
  C507     1.0000 0.25570  0.54100  0.19160  Biso   1.000  C
  C508     1.0000 0.49430  0.20900  0.19160  Biso   1.000  C
  C509     1.0000 0.49430  0.04100  0.05840  Biso   1.000  C
  C510     1.0000 0.25570  0.70900  0.05840  Biso   1.000  C
  C511     1.0000 0.25570  0.04100  0.69160  Biso   1.000  C
  C512     1.0000 0.49430  0.70900  0.69160  Biso   1.000  C
  H769     1.0000 0.96900  0.46700  0.95660  Biso   1.000  H
  H770     1.0000 0.78100  0.28300  0.95660  Biso   1.000  H
  H771     1.0000 0.78100  0.46700  0.79340  Biso   1.000  H
  H772     1.0000 0.96900  0.28300  0.79340  Biso   1.000  H
  H773     1.0000 0.96900  0.96700  0.45660  Biso   1.000  H
  H774     1.0000 0.78100  0.78300  0.45660  Biso   1.000  H
  H775     1.0000 0.78100  0.96700  0.29340  Biso   1.000  H
  H776     1.0000 0.96900  0.78300  0.29340  Biso   1.000  H
  H777     1.0000 0.46900  0.46700  0.45660  Biso   1.000  H
  H778     1.0000 0.28100  0.28300  0.45660  Biso   1.000  H
  H779     1.0000 0.28100  0.46700  0.29340  Biso   1.000  H
  H780     1.0000 0.46900  0.28300  0.29340  Biso   1.000  H
  H781     1.0000 0.46900  0.96700  0.95660  Biso   1.000  H
  H782     1.0000 0.28100  0.78300  0.95660  Biso   1.000  H
  H783     1.0000 0.28100  0.96700  0.79340  Biso   1.000  H
  H784     1.0000 0.46900  0.78300  0.79340  Biso   1.000  H
  H785     1.0000 0.03100  0.53300  0.04340  Biso   1.000  H
  H786     1.0000 0.71900  0.21700  0.04340  Biso   1.000  H
  H787     1.0000 0.71900  0.53300  0.70660  Biso   1.000  H
  H788     1.0000 0.03100  0.21700  0.70660  Biso   1.000  H
  H789     1.0000 0.03100  0.03300  0.54340  Biso   1.000  H
  H790     1.0000 0.71900  0.71700  0.54340  Biso   1.000  H
  H791     1.0000 0.71900  0.03300  0.20660  Biso   1.000  H
  H792     1.0000 0.03100  0.71700  0.20660  Biso   1.000  H
  H793     1.0000 0.53100  0.53300  0.54340  Biso   1.000  H
  H794     1.0000 0.21900  0.21700  0.54340  Biso   1.000  H
  H795     1.0000 0.21900  0.53300  0.20660  Biso   1.000  H
  H796     1.0000 0.53100  0.21700  0.20660  Biso   1.000  H
  H797     1.0000 0.53100  0.03300  0.04340  Biso   1.000  H
  H798     1.0000 0.21900  0.71700  0.04340  Biso   1.000  H
  H799     1.0000 0.21900  0.03300  0.70660  Biso   1.000  H
  H800     1.0000 0.53100  0.71700  0.70660  Biso   1.000  H
  H801     1.0000 0.99380  0.47060  0.92000  Biso   1.000  H
  H802     1.0000 0.75620  0.27940  0.92000  Biso   1.000  H
  H803     1.0000 0.75620  0.47060  0.83000  Biso   1.000  H
  H804     1.0000 0.99380  0.27940  0.83000  Biso   1.000  H
  H805     1.0000 0.99380  0.97060  0.42000  Biso   1.000  H
  H806     1.0000 0.75620  0.77940  0.42000  Biso   1.000  H
  H807     1.0000 0.75620  0.97060  0.33000  Biso   1.000  H
  H808     1.0000 0.99380  0.77940  0.33000  Biso   1.000  H
  H809     1.0000 0.49380  0.47060  0.42000  Biso   1.000  H
  H810     1.0000 0.25620  0.27940  0.42000  Biso   1.000  H
  H811     1.0000 0.25620  0.47060  0.33000  Biso   1.000  H
  H812     1.0000 0.49380  0.27940  0.33000  Biso   1.000  H
  H813     1.0000 0.49380  0.97060  0.92000  Biso   1.000  H
  H814     1.0000 0.25620  0.77940  0.92000  Biso   1.000  H
  H815     1.0000 0.25620  0.97060  0.83000  Biso   1.000  H
  H816     1.0000 0.49380  0.77940  0.83000  Biso   1.000  H
  H817     1.0000 0.00620  0.52940  0.08000  Biso   1.000  H
  H818     1.0000 0.74380  0.22060  0.08000  Biso   1.000  H
  H819     1.0000 0.74380  0.52940  0.67000  Biso   1.000  H
  H820     1.0000 0.00620  0.22060  0.67000  Biso   1.000  H
  H821     1.0000 0.00620  0.02940  0.58000  Biso   1.000  H
  H822     1.0000 0.74380  0.72060  0.58000  Biso   1.000  H
  H823     1.0000 0.74380  0.02940  0.17000  Biso   1.000  H
  H824     1.0000 0.00620  0.72060  0.17000  Biso   1.000  H
  H825     1.0000 0.50620  0.52940  0.58000  Biso   1.000  H
  H826     1.0000 0.24380  0.22060  0.58000  Biso   1.000  H
  H827     1.0000 0.24380  0.52940  0.17000  Biso   1.000  H
  H828     1.0000 0.50620  0.22060  0.17000  Biso   1.000  H
  H829     1.0000 0.50620  0.02940  0.08000  Biso   1.000  H
  H830     1.0000 0.24380  0.72060  0.08000  Biso   1.000  H
  H831     1.0000 0.24380  0.02940  0.67000  Biso   1.000  H
  H832     1.0000 0.50620  0.72060  0.67000  Biso   1.000  H
  H833     1.0000 0.04780  0.47460  0.94870  Biso   1.000  H
  H834     1.0000 0.70220  0.27540  0.94870  Biso   1.000  H
  H835     1.0000 0.70220  0.47460  0.80130  Biso   1.000  H
  H836     1.0000 0.04780  0.27540  0.80130  Biso   1.000  H
  H837     1.0000 0.04780  0.97460  0.44870  Biso   1.000  H
  H838     1.0000 0.70220  0.77540  0.44870  Biso   1.000  H
  H839     1.0000 0.70220  0.97460  0.30130  Biso   1.000  H
  H840     1.0000 0.04780  0.77540  0.30130  Biso   1.000  H
  H841     1.0000 0.54780  0.47460  0.44870  Biso   1.000  H
  H842     1.0000 0.20220  0.27540  0.44870  Biso   1.000  H
  H843     1.0000 0.20220  0.47460  0.30130  Biso   1.000  H
  H844     1.0000 0.54780  0.27540  0.30130  Biso   1.000  H
  H845     1.0000 0.54780  0.97460  0.94870  Biso   1.000  H
  H846     1.0000 0.20220  0.77540  0.94870  Biso   1.000  H
  H847     1.0000 0.20220  0.97460  0.80130  Biso   1.000  H
  H848     1.0000 0.54780  0.77540  0.80130  Biso   1.000  H
  H849     1.0000 0.95220  0.52540  0.05130  Biso   1.000  H
  H850     1.0000 0.79780  0.22460  0.05130  Biso   1.000  H
  H851     1.0000 0.79780  0.52540  0.69870  Biso   1.000  H
  H852     1.0000 0.95220  0.22460  0.69870  Biso   1.000  H
  H853     1.0000 0.95220  0.02540  0.55130  Biso   1.000  H
  H854     1.0000 0.79780  0.72460  0.55130  Biso   1.000  H
  H855     1.0000 0.79780  0.02540  0.19870  Biso   1.000  H
  H856     1.0000 0.95220  0.72460  0.19870  Biso   1.000  H
  H857     1.0000 0.45220  0.52540  0.55130  Biso   1.000  H
  H858     1.0000 0.29780  0.22460  0.55130  Biso   1.000  H
  H859     1.0000 0.29780  0.52540  0.19870  Biso   1.000  H
  H860     1.0000 0.45220  0.22460  0.19870  Biso   1.000  H
  H861     1.0000 0.45220  0.02540  0.05130  Biso   1.000  H
  H862     1.0000 0.29780  0.72460  0.05130  Biso   1.000  H
  H863     1.0000 0.29780  0.02540  0.69870  Biso   1.000  H
  H864     1.0000 0.45220  0.72460  0.69870  Biso   1.000  H
  O97      1.0000 0.09270  0.38760  0.97810  Biso   1.000  O
  O98      1.0000 0.65730  0.36240  0.97810  Biso   1.000  O
  O99      1.0000 0.65730  0.38760  0.77190  Biso   1.000  O
  O100     1.0000 0.09270  0.36240  0.77190  Biso   1.000  O
  O101     1.0000 0.09270  0.88760  0.47810  Biso   1.000  O
  O102     1.0000 0.65730  0.86240  0.47810  Biso   1.000  O
  O103     1.0000 0.65730  0.88760  0.27190  Biso   1.000  O
  O104     1.0000 0.09270  0.86240  0.27190  Biso   1.000  O
  O105     1.0000 0.59270  0.38760  0.47810  Biso   1.000  O
  O106     1.0000 0.15730  0.36240  0.47810  Biso   1.000  O
  O107     1.0000 0.15730  0.38760  0.27190  Biso   1.000  O
  O108     1.0000 0.59270  0.36240  0.27190  Biso   1.000  O
  O109     1.0000 0.59270  0.88760  0.97810  Biso   1.000  O
  O110     1.0000 0.15730  0.86240  0.97810  Biso   1.000  O
  O111     1.0000 0.15730  0.88760  0.77190  Biso   1.000  O
  O112     1.0000 0.59270  0.86240  0.77190  Biso   1.000  O
  O113     1.0000 0.90730  0.61240  0.02190  Biso   1.000  O
  O114     1.0000 0.84270  0.13760  0.02190  Biso   1.000  O
  O115     1.0000 0.84270  0.61240  0.72810  Biso   1.000  O
  O116     1.0000 0.90730  0.13760  0.72810  Biso   1.000  O
  O117     1.0000 0.90730  0.11240  0.52190  Biso   1.000  O
  O118     1.0000 0.84270  0.63760  0.52190  Biso   1.000  O
  O119     1.0000 0.84270  0.11240  0.22810  Biso   1.000  O
  O120     1.0000 0.90730  0.63760  0.22810  Biso   1.000  O
  O121     1.0000 0.40730  0.61240  0.52190  Biso   1.000  O
  O122     1.0000 0.34270  0.13760  0.52190  Biso   1.000  O
  O123     1.0000 0.34270  0.61240  0.22810  Biso   1.000  O
  O124     1.0000 0.40730  0.13760  0.22810  Biso   1.000  O
  O125     1.0000 0.40730  0.11240  0.02190  Biso   1.000  O
  O126     1.0000 0.34270  0.63760  0.02190  Biso   1.000  O
  O127     1.0000 0.34270  0.11240  0.72810  Biso   1.000  O
  O128     1.0000 0.40730  0.63760  0.72810  Biso   1.000  O
  N353     1.0000 0.07110  0.43750  0.93570  Biso   1.000  N
  N354     1.0000 0.67890  0.31250  0.93570  Biso   1.000  N
  N355     1.0000 0.67890  0.43750  0.81430  Biso   1.000  N
  N356     1.0000 0.07110  0.31250  0.81430  Biso   1.000  N
  N357     1.0000 0.07110  0.93750  0.43570  Biso   1.000  N
  N358     1.0000 0.67890  0.81250  0.43570  Biso   1.000  N
  N359     1.0000 0.67890  0.93750  0.31430  Biso   1.000  N
  N360     1.0000 0.07110  0.81250  0.31430  Biso   1.000  N
  N361     1.0000 0.57110  0.43750  0.43570  Biso   1.000  N
  N362     1.0000 0.17890  0.31250  0.43570  Biso   1.000  N
  N363     1.0000 0.17890  0.43750  0.31430  Biso   1.000  N
  N364     1.0000 0.57110  0.31250  0.31430  Biso   1.000  N
  N365     1.0000 0.57110  0.93750  0.93570  Biso   1.000  N
  N366     1.0000 0.17890  0.81250  0.93570  Biso   1.000  N
  N367     1.0000 0.17890  0.93750  0.81430  Biso   1.000  N
  N368     1.0000 0.57110  0.81250  0.81430  Biso   1.000  N
  N369     1.0000 0.92890  0.56250  0.06430  Biso   1.000  N
  N370     1.0000 0.82110  0.18750  0.06430  Biso   1.000  N
  N371     1.0000 0.82110  0.56250  0.68570  Biso   1.000  N
  N372     1.0000 0.92890  0.18750  0.68570  Biso   1.000  N
  N373     1.0000 0.92890  0.06250  0.56430  Biso   1.000  N
  N374     1.0000 0.82110  0.68750  0.56430  Biso   1.000  N
  N375     1.0000 0.82110  0.06250  0.18570  Biso   1.000  N
  N376     1.0000 0.92890  0.68750  0.18570  Biso   1.000  N
  N377     1.0000 0.42890  0.56250  0.56430  Biso   1.000  N
  N378     1.0000 0.32110  0.18750  0.56430  Biso   1.000  N
  N379     1.0000 0.32110  0.56250  0.18570  Biso   1.000  N
  N380     1.0000 0.42890  0.18750  0.18570  Biso   1.000  N
  N381     1.0000 0.42890  0.06250  0.06430  Biso   1.000  N
  N382     1.0000 0.32110  0.68750  0.06430  Biso   1.000  N
  N383     1.0000 0.32110  0.06250  0.68570  Biso   1.000  N
  N384     1.0000 0.42890  0.68750  0.68570  Biso   1.000  N
  C513     1.0000 0.10490  0.41940  0.95910  Biso   1.000  C
  C514     1.0000 0.64510  0.33060  0.95910  Biso   1.000  C
  C515     1.0000 0.64510  0.41940  0.79090  Biso   1.000  C
  C516     1.0000 0.10490  0.33060  0.79090  Biso   1.000  C
  C517     1.0000 0.10490  0.91940  0.45910  Biso   1.000  C
  C518     1.0000 0.64510  0.83060  0.45910  Biso   1.000  C
  C519     1.0000 0.64510  0.91940  0.29090  Biso   1.000  C
  C520     1.0000 0.10490  0.83060  0.29090  Biso   1.000  C
  C521     1.0000 0.60490  0.41940  0.45910  Biso   1.000  C
  C522     1.0000 0.14510  0.33060  0.45910  Biso   1.000  C
  C523     1.0000 0.14510  0.41940  0.29090  Biso   1.000  C
  C524     1.0000 0.60490  0.33060  0.29090  Biso   1.000  C
  C525     1.0000 0.60490  0.91940  0.95910  Biso   1.000  C
  C526     1.0000 0.14510  0.83060  0.95910  Biso   1.000  C
  C527     1.0000 0.14510  0.91940  0.79090  Biso   1.000  C
  C528     1.0000 0.60490  0.83060  0.79090  Biso   1.000  C
  C529     1.0000 0.89510  0.58060  0.04090  Biso   1.000  C
  C530     1.0000 0.85490  0.16940  0.04090  Biso   1.000  C
  C531     1.0000 0.85490  0.58060  0.70910  Biso   1.000  C
  C532     1.0000 0.89510  0.16940  0.70910  Biso   1.000  C
  C533     1.0000 0.89510  0.08060  0.54090  Biso   1.000  C
  C534     1.0000 0.85490  0.66940  0.54090  Biso   1.000  C
  C535     1.0000 0.85490  0.08060  0.20910  Biso   1.000  C
  C536     1.0000 0.89510  0.66940  0.20910  Biso   1.000  C
  C537     1.0000 0.39510  0.58060  0.54090  Biso   1.000  C
  C538     1.0000 0.35490  0.16940  0.54090  Biso   1.000  C
  C539     1.0000 0.35490  0.58060  0.20910  Biso   1.000  C
  C540     1.0000 0.39510  0.16940  0.20910  Biso   1.000  C
  C541     1.0000 0.39510  0.08060  0.04090  Biso   1.000  C
  C542     1.0000 0.35490  0.66940  0.04090  Biso   1.000  C
  C543     1.0000 0.35490  0.08060  0.70910  Biso   1.000  C
  C544     1.0000 0.39510  0.66940  0.70910  Biso   1.000  C
  H865     1.0000 0.14820  0.43390  0.96200  Biso   1.000  H
  H866     1.0000 0.60180  0.31610  0.96200  Biso   1.000  H
  H867     1.0000 0.60180  0.43390  0.78800  Biso   1.000  H
  H868     1.0000 0.14820  0.31610  0.78800  Biso   1.000  H
  H869     1.0000 0.14820  0.93390  0.46200  Biso   1.000  H
  H870     1.0000 0.60180  0.81610  0.46200  Biso   1.000  H
  H871     1.0000 0.60180  0.93390  0.28800  Biso   1.000  H
  H872     1.0000 0.14820  0.81610  0.28800  Biso   1.000  H
  H873     1.0000 0.64820  0.43390  0.46200  Biso   1.000  H
  H874     1.0000 0.10180  0.31610  0.46200  Biso   1.000  H
  H875     1.0000 0.10180  0.43390  0.28800  Biso   1.000  H
  H876     1.0000 0.64820  0.31610  0.28800  Biso   1.000  H
  H877     1.0000 0.64820  0.93390  0.96200  Biso   1.000  H
  H878     1.0000 0.10180  0.81610  0.96200  Biso   1.000  H
  H879     1.0000 0.10180  0.93390  0.78800  Biso   1.000  H
  H880     1.0000 0.64820  0.81610  0.78800  Biso   1.000  H
  H881     1.0000 0.85180  0.56610  0.03800  Biso   1.000  H
  H882     1.0000 0.89820  0.18390  0.03800  Biso   1.000  H
  H883     1.0000 0.89820  0.56610  0.71200  Biso   1.000  H
  H884     1.0000 0.85180  0.18390  0.71200  Biso   1.000  H
  H885     1.0000 0.85180  0.06610  0.53800  Biso   1.000  H
  H886     1.0000 0.89820  0.68390  0.53800  Biso   1.000  H
  H887     1.0000 0.89820  0.06610  0.21200  Biso   1.000  H
  H888     1.0000 0.85180  0.68390  0.21200  Biso   1.000  H
  H889     1.0000 0.35180  0.56610  0.53800  Biso   1.000  H
  H890     1.0000 0.39820  0.18390  0.53800  Biso   1.000  H
  H891     1.0000 0.39820  0.56610  0.21200  Biso   1.000  H
  H892     1.0000 0.35180  0.18390  0.21200  Biso   1.000  H
  H893     1.0000 0.35180  0.06610  0.03800  Biso   1.000  H
  H894     1.0000 0.39820  0.68390  0.03800  Biso   1.000  H
  H895     1.0000 0.39820  0.06610  0.71200  Biso   1.000  H
  H896     1.0000 0.35180  0.68390  0.71200  Biso   1.000  H
  C545     1.0000 0.10350  0.44930  0.90480  Biso   1.000  C
  C546     1.0000 0.64650  0.30070  0.90480  Biso   1.000  C
  C547     1.0000 0.64650  0.44930  0.84520  Biso   1.000  C
  C548     1.0000 0.10350  0.30070  0.84520  Biso   1.000  C
  C549     1.0000 0.10350  0.94930  0.40480  Biso   1.000  C
  C550     1.0000 0.64650  0.80070  0.40480  Biso   1.000  C
  C551     1.0000 0.64650  0.94930  0.34520  Biso   1.000  C
  C552     1.0000 0.10350  0.80070  0.34520  Biso   1.000  C
  C553     1.0000 0.60350  0.44930  0.40480  Biso   1.000  C
  C554     1.0000 0.14650  0.30070  0.40480  Biso   1.000  C
  C555     1.0000 0.14650  0.44930  0.34520  Biso   1.000  C
  C556     1.0000 0.60350  0.30070  0.34520  Biso   1.000  C
  C557     1.0000 0.60350  0.94930  0.90480  Biso   1.000  C
  C558     1.0000 0.14650  0.80070  0.90480  Biso   1.000  C
  C559     1.0000 0.14650  0.94930  0.84520  Biso   1.000  C
  C560     1.0000 0.60350  0.80070  0.84520  Biso   1.000  C
  C561     1.0000 0.89650  0.55070  0.09520  Biso   1.000  C
  C562     1.0000 0.85350  0.19930  0.09520  Biso   1.000  C
  C563     1.0000 0.85350  0.55070  0.65480  Biso   1.000  C
  C564     1.0000 0.89650  0.19930  0.65480  Biso   1.000  C
  C565     1.0000 0.89650  0.05070  0.59520  Biso   1.000  C
  C566     1.0000 0.85350  0.69930  0.59520  Biso   1.000  C
  C567     1.0000 0.85350  0.05070  0.15480  Biso   1.000  C
  C568     1.0000 0.89650  0.69930  0.15480  Biso   1.000  C
  C569     1.0000 0.39650  0.55070  0.59520  Biso   1.000  C
  C570     1.0000 0.35350  0.19930  0.59520  Biso   1.000  C
  C571     1.0000 0.35350  0.55070  0.15480  Biso   1.000  C
  C572     1.0000 0.39650  0.19930  0.15480  Biso   1.000  C
  C573     1.0000 0.39650  0.05070  0.09520  Biso   1.000  C
  C574     1.0000 0.35350  0.69930  0.09520  Biso   1.000  C
  C575     1.0000 0.35350  0.05070  0.65480  Biso   1.000  C
  C576     1.0000 0.39650  0.69930  0.65480  Biso   1.000  C
  H897     1.0000 0.15300  0.44880  0.90730  Biso   1.000  H
  H898     1.0000 0.59700  0.30120  0.90730  Biso   1.000  H
  H899     1.0000 0.59700  0.44880  0.84270  Biso   1.000  H
  H900     1.0000 0.15300  0.30120  0.84270  Biso   1.000  H
  H901     1.0000 0.15300  0.94880  0.40730  Biso   1.000  H
  H902     1.0000 0.59700  0.80120  0.40730  Biso   1.000  H
  H903     1.0000 0.59700  0.94880  0.34270  Biso   1.000  H
  H904     1.0000 0.15300  0.80120  0.34270  Biso   1.000  H
  H905     1.0000 0.65300  0.44880  0.40730  Biso   1.000  H
  H906     1.0000 0.09700  0.30120  0.40730  Biso   1.000  H
  H907     1.0000 0.09700  0.44880  0.34270  Biso   1.000  H
  H908     1.0000 0.65300  0.30120  0.34270  Biso   1.000  H
  H909     1.0000 0.65300  0.94880  0.90730  Biso   1.000  H
  H910     1.0000 0.09700  0.80120  0.90730  Biso   1.000  H
  H911     1.0000 0.09700  0.94880  0.84270  Biso   1.000  H
  H912     1.0000 0.65300  0.80120  0.84270  Biso   1.000  H
  H913     1.0000 0.84700  0.55120  0.09270  Biso   1.000  H
  H914     1.0000 0.90300  0.19880  0.09270  Biso   1.000  H
  H915     1.0000 0.90300  0.55120  0.65730  Biso   1.000  H
  H916     1.0000 0.84700  0.19880  0.65730  Biso   1.000  H
  H917     1.0000 0.84700  0.05120  0.59270  Biso   1.000  H
  H918     1.0000 0.90300  0.69880  0.59270  Biso   1.000  H
  H919     1.0000 0.90300  0.05120  0.15730  Biso   1.000  H
  H920     1.0000 0.84700  0.69880  0.15730  Biso   1.000  H
  H921     1.0000 0.34700  0.55120  0.59270  Biso   1.000  H
  H922     1.0000 0.40300  0.19880  0.59270  Biso   1.000  H
  H923     1.0000 0.40300  0.55120  0.15730  Biso   1.000  H
  H924     1.0000 0.34700  0.19880  0.15730  Biso   1.000  H
  H925     1.0000 0.34700  0.05120  0.09270  Biso   1.000  H
  H926     1.0000 0.40300  0.69880  0.09270  Biso   1.000  H
  H927     1.0000 0.40300  0.05120  0.65730  Biso   1.000  H
  H928     1.0000 0.34700  0.69880  0.65730  Biso   1.000  H
  H929     1.0000 0.08910  0.48180  0.89780  Biso   1.000  H
  H930     1.0000 0.66090  0.26820  0.89780  Biso   1.000  H
  H931     1.0000 0.66090  0.48180  0.85220  Biso   1.000  H
  H932     1.0000 0.08910  0.26820  0.85220  Biso   1.000  H
  H933     1.0000 0.08910  0.98180  0.39780  Biso   1.000  H
  H934     1.0000 0.66090  0.76820  0.39780  Biso   1.000  H
  H935     1.0000 0.66090  0.98180  0.35220  Biso   1.000  H
  H936     1.0000 0.08910  0.76820  0.35220  Biso   1.000  H
  H937     1.0000 0.58910  0.48180  0.39780  Biso   1.000  H
  H938     1.0000 0.16090  0.26820  0.39780  Biso   1.000  H
  H939     1.0000 0.16090  0.48180  0.35220  Biso   1.000  H
  H940     1.0000 0.58910  0.26820  0.35220  Biso   1.000  H
  H941     1.0000 0.58910  0.98180  0.89780  Biso   1.000  H
  H942     1.0000 0.16090  0.76820  0.89780  Biso   1.000  H
  H943     1.0000 0.16090  0.98180  0.85220  Biso   1.000  H
  H944     1.0000 0.58910  0.76820  0.85220  Biso   1.000  H
  H945     1.0000 0.91090  0.51820  0.10220  Biso   1.000  H
  H946     1.0000 0.83910  0.23180  0.10220  Biso   1.000  H
  H947     1.0000 0.83910  0.51820  0.64780  Biso   1.000  H
  H948     1.0000 0.91090  0.23180  0.64780  Biso   1.000  H
  H949     1.0000 0.91090  0.01820  0.60220  Biso   1.000  H
  H950     1.0000 0.83910  0.73180  0.60220  Biso   1.000  H
  H951     1.0000 0.83910  0.01820  0.14780  Biso   1.000  H
  H952     1.0000 0.91090  0.73180  0.14780  Biso   1.000  H
  H953     1.0000 0.41090  0.51820  0.60220  Biso   1.000  H
  H954     1.0000 0.33910  0.23180  0.60220  Biso   1.000  H
  H955     1.0000 0.33910  0.51820  0.14780  Biso   1.000  H
  H956     1.0000 0.41090  0.23180  0.14780  Biso   1.000  H
  H957     1.0000 0.41090  0.01820  0.10220  Biso   1.000  H
  H958     1.0000 0.33910  0.73180  0.10220  Biso   1.000  H
  H959     1.0000 0.33910  0.01820  0.64780  Biso   1.000  H
  H960     1.0000 0.41090  0.73180  0.64780  Biso   1.000  H
  H961     1.0000 0.09000  0.42520  0.88850  Biso   1.000  H
  H962     1.0000 0.66000  0.32480  0.88850  Biso   1.000  H
  H963     1.0000 0.66000  0.42520  0.86150  Biso   1.000  H
  H964     1.0000 0.09000  0.32480  0.86150  Biso   1.000  H
  H965     1.0000 0.09000  0.92520  0.38850  Biso   1.000  H
  H966     1.0000 0.66000  0.82480  0.38850  Biso   1.000  H
  H967     1.0000 0.66000  0.92520  0.36150  Biso   1.000  H
  H968     1.0000 0.09000  0.82480  0.36150  Biso   1.000  H
  H969     1.0000 0.59000  0.42520  0.38850  Biso   1.000  H
  H970     1.0000 0.16000  0.32480  0.38850  Biso   1.000  H
  H971     1.0000 0.16000  0.42520  0.36150  Biso   1.000  H
  H972     1.0000 0.59000  0.32480  0.36150  Biso   1.000  H
  H973     1.0000 0.59000  0.92520  0.88850  Biso   1.000  H
  H974     1.0000 0.16000  0.82480  0.88850  Biso   1.000  H
  H975     1.0000 0.16000  0.92520  0.86150  Biso   1.000  H
  H976     1.0000 0.59000  0.82480  0.86150  Biso   1.000  H
  H977     1.0000 0.91000  0.57480  0.11150  Biso   1.000  H
  H978     1.0000 0.84000  0.17520  0.11150  Biso   1.000  H
  H979     1.0000 0.84000  0.57480  0.63850  Biso   1.000  H
  H980     1.0000 0.91000  0.17520  0.63850  Biso   1.000  H
  H981     1.0000 0.91000  0.07480  0.61150  Biso   1.000  H
  H982     1.0000 0.84000  0.67520  0.61150  Biso   1.000  H
  H983     1.0000 0.84000  0.07480  0.13850  Biso   1.000  H
  H984     1.0000 0.91000  0.67520  0.13850  Biso   1.000  H
  H985     1.0000 0.41000  0.57480  0.61150  Biso   1.000  H
  H986     1.0000 0.34000  0.17520  0.61150  Biso   1.000  H
  H987     1.0000 0.34000  0.57480  0.13850  Biso   1.000  H
  H988     1.0000 0.41000  0.17520  0.13850  Biso   1.000  H
  H989     1.0000 0.41000  0.07480  0.11150  Biso   1.000  H
  H990     1.0000 0.34000  0.67520  0.11150  Biso   1.000  H
  H991     1.0000 0.34000  0.07480  0.63850  Biso   1.000  H
  H992     1.0000 0.41000  0.67520  0.63850  Biso   1.000  H
  C577     1.0000 0.99870  0.44830  0.93680  Biso   1.000  C
  C578     1.0000 0.75130  0.30170  0.93680  Biso   1.000  C
  C579     1.0000 0.75130  0.44830  0.81320  Biso   1.000  C
  C580     1.0000 0.99870  0.30170  0.81320  Biso   1.000  C
  C581     1.0000 0.99870  0.94830  0.43680  Biso   1.000  C
  C582     1.0000 0.75130  0.80170  0.43680  Biso   1.000  C
  C583     1.0000 0.75130  0.94830  0.31320  Biso   1.000  C
  C584     1.0000 0.99870  0.80170  0.31320  Biso   1.000  C
  C585     1.0000 0.49870  0.44830  0.43680  Biso   1.000  C
  C586     1.0000 0.25130  0.30170  0.43680  Biso   1.000  C
  C587     1.0000 0.25130  0.44830  0.31320  Biso   1.000  C
  C588     1.0000 0.49870  0.30170  0.31320  Biso   1.000  C
  C589     1.0000 0.49870  0.94830  0.93680  Biso   1.000  C
  C590     1.0000 0.25130  0.80170  0.93680  Biso   1.000  C
  C591     1.0000 0.25130  0.94830  0.81320  Biso   1.000  C
  C592     1.0000 0.49870  0.80170  0.81320  Biso   1.000  C
  C593     1.0000 0.00130  0.55170  0.06320  Biso   1.000  C
  C594     1.0000 0.74870  0.19830  0.06320  Biso   1.000  C
  C595     1.0000 0.74870  0.55170  0.68680  Biso   1.000  C
  C596     1.0000 0.00130  0.19830  0.68680  Biso   1.000  C
  C597     1.0000 0.00130  0.05170  0.56320  Biso   1.000  C
  C598     1.0000 0.74870  0.69830  0.56320  Biso   1.000  C
  C599     1.0000 0.74870  0.05170  0.18680  Biso   1.000  C
  C600     1.0000 0.00130  0.69830  0.18680  Biso   1.000  C
  C601     1.0000 0.50130  0.55170  0.56320  Biso   1.000  C
  C602     1.0000 0.24870  0.19830  0.56320  Biso   1.000  C
  C603     1.0000 0.24870  0.55170  0.18680  Biso   1.000  C
  C604     1.0000 0.50130  0.19830  0.18680  Biso   1.000  C
  C605     1.0000 0.50130  0.05170  0.06320  Biso   1.000  C
  C606     1.0000 0.24870  0.69830  0.06320  Biso   1.000  C
  C607     1.0000 0.24870  0.05170  0.68680  Biso   1.000  C
  C608     1.0000 0.50130  0.69830  0.68680  Biso   1.000  C
  H993     1.0000 0.97280  0.41790  0.93520  Biso   1.000  H
  H994     1.0000 0.77720  0.33210  0.93520  Biso   1.000  H
  H995     1.0000 0.77720  0.41790  0.81480  Biso   1.000  H
  H996     1.0000 0.97280  0.33210  0.81480  Biso   1.000  H
  H997     1.0000 0.97280  0.91790  0.43520  Biso   1.000  H
  H998     1.0000 0.77720  0.83210  0.43520  Biso   1.000  H
  H999     1.0000 0.77720  0.91790  0.31480  Biso   1.000  H
  H1000    1.0000 0.97280  0.83210  0.31480  Biso   1.000  H
  H1001    1.0000 0.47280  0.41790  0.43520  Biso   1.000  H
  H1002    1.0000 0.27720  0.33210  0.43520  Biso   1.000  H
  H1003    1.0000 0.27720  0.41790  0.31480  Biso   1.000  H
  H1004    1.0000 0.47280  0.33210  0.31480  Biso   1.000  H
  H1005    1.0000 0.47280  0.91790  0.93520  Biso   1.000  H
  H1006    1.0000 0.27720  0.83210  0.93520  Biso   1.000  H
  H1007    1.0000 0.27720  0.91790  0.81480  Biso   1.000  H
  H1008    1.0000 0.47280  0.83210  0.81480  Biso   1.000  H
  H1009    1.0000 0.02720  0.58210  0.06480  Biso   1.000  H
  H1010    1.0000 0.72280  0.16790  0.06480  Biso   1.000  H
  H1011    1.0000 0.72280  0.58210  0.68520  Biso   1.000  H
  H1012    1.0000 0.02720  0.16790  0.68520  Biso   1.000  H
  H1013    1.0000 0.02720  0.08210  0.56480  Biso   1.000  H
  H1014    1.0000 0.72280  0.66790  0.56480  Biso   1.000  H
  H1015    1.0000 0.72280  0.08210  0.18520  Biso   1.000  H
  H1016    1.0000 0.02720  0.66790  0.18520  Biso   1.000  H
  H1017    1.0000 0.52720  0.58210  0.56480  Biso   1.000  H
  H1018    1.0000 0.22280  0.16790  0.56480  Biso   1.000  H
  H1019    1.0000 0.22280  0.58210  0.18520  Biso   1.000  H
  H1020    1.0000 0.52720  0.16790  0.18520  Biso   1.000  H
  H1021    1.0000 0.52720  0.08210  0.06480  Biso   1.000  H
  H1022    1.0000 0.22280  0.66790  0.06480  Biso   1.000  H
  H1023    1.0000 0.22280  0.08210  0.68520  Biso   1.000  H
  H1024    1.0000 0.52720  0.66790  0.68520  Biso   1.000  H
  H1025    1.0000 0.98680  0.46960  0.91870  Biso   1.000  H
  H1026    1.0000 0.76320  0.28040  0.91870  Biso   1.000  H
  H1027    1.0000 0.76320  0.46960  0.83130  Biso   1.000  H
  H1028    1.0000 0.98680  0.28040  0.83130  Biso   1.000  H
  H1029    1.0000 0.98680  0.96960  0.41870  Biso   1.000  H
  H1030    1.0000 0.76320  0.78040  0.41870  Biso   1.000  H
  H1031    1.0000 0.76320  0.96960  0.33130  Biso   1.000  H
  H1032    1.0000 0.98680  0.78040  0.33130  Biso   1.000  H
  H1033    1.0000 0.48680  0.46960  0.41870  Biso   1.000  H
  H1034    1.0000 0.26320  0.28040  0.41870  Biso   1.000  H
  H1035    1.0000 0.26320  0.46960  0.33130  Biso   1.000  H
  H1036    1.0000 0.48680  0.28040  0.33130  Biso   1.000  H
  H1037    1.0000 0.48680  0.96960  0.91870  Biso   1.000  H
  H1038    1.0000 0.26320  0.78040  0.91870  Biso   1.000  H
  H1039    1.0000 0.26320  0.96960  0.83130  Biso   1.000  H
  H1040    1.0000 0.48680  0.78040  0.83130  Biso   1.000  H
  H1041    1.0000 0.01320  0.53040  0.08130  Biso   1.000  H
  H1042    1.0000 0.73680  0.21960  0.08130  Biso   1.000  H
  H1043    1.0000 0.73680  0.53040  0.66870  Biso   1.000  H
  H1044    1.0000 0.01320  0.21960  0.66870  Biso   1.000  H
  H1045    1.0000 0.01320  0.03040  0.58130  Biso   1.000  H
  H1046    1.0000 0.73680  0.71960  0.58130  Biso   1.000  H
  H1047    1.0000 0.73680  0.03040  0.16870  Biso   1.000  H
  H1048    1.0000 0.01320  0.71960  0.16870  Biso   1.000  H
  H1049    1.0000 0.51320  0.53040  0.58130  Biso   1.000  H
  H1050    1.0000 0.23680  0.21960  0.58130  Biso   1.000  H
  H1051    1.0000 0.23680  0.53040  0.16870  Biso   1.000  H
  H1052    1.0000 0.51320  0.21960  0.16870  Biso   1.000  H
  H1053    1.0000 0.51320  0.03040  0.08130  Biso   1.000  H
  H1054    1.0000 0.23680  0.71960  0.08130  Biso   1.000  H
  H1055    1.0000 0.23680  0.03040  0.66870  Biso   1.000  H
  H1056    1.0000 0.51320  0.71960  0.66870  Biso   1.000  H
  H1057    1.0000 0.98780  0.46470  0.95710  Biso   1.000  H
  H1058    1.0000 0.76220  0.28530  0.95710  Biso   1.000  H
  H1059    1.0000 0.76220  0.46470  0.79290  Biso   1.000  H
  H1060    1.0000 0.98780  0.28530  0.79290  Biso   1.000  H
  H1061    1.0000 0.98780  0.96470  0.45710  Biso   1.000  H
  H1062    1.0000 0.76220  0.78530  0.45710  Biso   1.000  H
  H1063    1.0000 0.76220  0.96470  0.29290  Biso   1.000  H
  H1064    1.0000 0.98780  0.78530  0.29290  Biso   1.000  H
  H1065    1.0000 0.48780  0.46470  0.45710  Biso   1.000  H
  H1066    1.0000 0.26220  0.28530  0.45710  Biso   1.000  H
  H1067    1.0000 0.26220  0.46470  0.29290  Biso   1.000  H
  H1068    1.0000 0.48780  0.28530  0.29290  Biso   1.000  H
  H1069    1.0000 0.48780  0.96470  0.95710  Biso   1.000  H
  H1070    1.0000 0.26220  0.78530  0.95710  Biso   1.000  H
  H1071    1.0000 0.26220  0.96470  0.79290  Biso   1.000  H
  H1072    1.0000 0.48780  0.78530  0.79290  Biso   1.000  H
  H1073    1.0000 0.01220  0.53530  0.04290  Biso   1.000  H
  H1074    1.0000 0.73780  0.21470  0.04290  Biso   1.000  H
  H1075    1.0000 0.73780  0.53530  0.70710  Biso   1.000  H
  H1076    1.0000 0.01220  0.21470  0.70710  Biso   1.000  H
  H1077    1.0000 0.01220  0.03530  0.54290  Biso   1.000  H
  H1078    1.0000 0.73780  0.71470  0.54290  Biso   1.000  H
  H1079    1.0000 0.73780  0.03530  0.20710  Biso   1.000  H
  H1080    1.0000 0.01220  0.71470  0.20710  Biso   1.000  H
  H1081    1.0000 0.51220  0.53530  0.54290  Biso   1.000  H
  H1082    1.0000 0.23780  0.21470  0.54290  Biso   1.000  H
  H1083    1.0000 0.23780  0.53530  0.20710  Biso   1.000  H
  H1084    1.0000 0.51220  0.21470  0.20710  Biso   1.000  H
  H1085    1.0000 0.51220  0.03530  0.04290  Biso   1.000  H
  H1086    1.0000 0.23780  0.71470  0.04290  Biso   1.000  H
  H1087    1.0000 0.23780  0.03530  0.70710  Biso   1.000  H
  H1088    1.0000 0.51220  0.71470  0.70710  Biso   1.000  H
  Cl49     1.0000 0.13550  0.31140  0.01440  Biso   1.000  Cl
  Cl50     1.0000 0.61450  0.43860  0.01440  Biso   1.000  Cl
  Cl51     1.0000 0.61450  0.31140  0.73560  Biso   1.000  Cl
  Cl52     1.0000 0.13550  0.43860  0.73560  Biso   1.000  Cl
  Cl53     1.0000 0.13550  0.81140  0.51440  Biso   1.000  Cl
  Cl54     1.0000 0.61450  0.93860  0.51440  Biso   1.000  Cl
  Cl55     1.0000 0.61450  0.81140  0.23560  Biso   1.000  Cl
  Cl56     1.0000 0.13550  0.93860  0.23560  Biso   1.000  Cl
  Cl57     1.0000 0.63550  0.31140  0.51440  Biso   1.000  Cl
  Cl58     1.0000 0.11450  0.43860  0.51440  Biso   1.000  Cl
  Cl59     1.0000 0.11450  0.31140  0.23560  Biso   1.000  Cl
  Cl60     1.0000 0.63550  0.43860  0.23560  Biso   1.000  Cl
  Cl61     1.0000 0.63550  0.81140  0.01440  Biso   1.000  Cl
  Cl62     1.0000 0.11450  0.93860  0.01440  Biso   1.000  Cl
  Cl63     1.0000 0.11450  0.81140  0.73560  Biso   1.000  Cl
  Cl64     1.0000 0.63550  0.93860  0.73560  Biso   1.000  Cl
  Cl65     1.0000 0.86450  0.68860  0.98560  Biso   1.000  Cl
  Cl66     1.0000 0.88550  0.06140  0.98560  Biso   1.000  Cl
  Cl67     1.0000 0.88550  0.68860  0.76440  Biso   1.000  Cl
  Cl68     1.0000 0.86450  0.06140  0.76440  Biso   1.000  Cl
  Cl69     1.0000 0.86450  0.18860  0.48560  Biso   1.000  Cl
  Cl70     1.0000 0.88550  0.56140  0.48560  Biso   1.000  Cl
  Cl71     1.0000 0.88550  0.18860  0.26440  Biso   1.000  Cl
  Cl72     1.0000 0.86450  0.56140  0.26440  Biso   1.000  Cl
  Cl73     1.0000 0.36450  0.68860  0.48560  Biso   1.000  Cl
  Cl74     1.0000 0.38550  0.06140  0.48560  Biso   1.000  Cl
  Cl75     1.0000 0.38550  0.68860  0.26440  Biso   1.000  Cl
  Cl76     1.0000 0.36450  0.06140  0.26440  Biso   1.000  Cl
  Cl77     1.0000 0.36450  0.18860  0.98560  Biso   1.000  Cl
  Cl78     1.0000 0.38550  0.56140  0.98560  Biso   1.000  Cl
  Cl79     1.0000 0.38550  0.18860  0.76440  Biso   1.000  Cl
  Cl80     1.0000 0.36450  0.56140  0.76440  Biso   1.000  Cl
