data_image0
_cell_length_a       30.925
_cell_length_b       13.245
_cell_length_c       19.2577
_cell_angle_alpha    90
_cell_angle_beta     106.047
_cell_angle_gamma    90

_symmetry_space_group_name_H-M    "P 1"
_symmetry_int_tables_number       1

loop_
  _symmetry_equiv_pos_as_xyz
  'x, y, z'

loop_
  _atom_site_label
  _atom_site_occupancy
  _atom_site_fract_x
  _atom_site_fract_y
  _atom_site_fract_z
  _atom_site_thermal_displace_type
  _atom_site_B_iso_or_equiv
  _atom_site_type_symbol
  Cu1      1.0000 0.81276  0.47256  0.73293  Biso   1.000  Cu
  Cu2      1.0000 0.18724  0.47256  0.76707  Biso   1.000  Cu
  Cu3      1.0000 0.31276  0.97256  0.73293  Biso   1.000  Cu
  Cu4      1.0000 0.68725  0.97256  0.76707  Biso   1.000  Cu
  Cu5      1.0000 0.18725  0.52744  0.26707  Biso   1.000  Cu
  Cu6      1.0000 0.81276  0.52744  0.23293  Biso   1.000  Cu
  Cu7      1.0000 0.68725  0.02744  0.26707  Biso   1.000  Cu
  Cu8      1.0000 0.31276  0.02744  0.23293  Biso   1.000  Cu
  O1       1.0000 0.82555  0.33480  0.67150  Biso   1.000  O
  O2       1.0000 0.17445  0.33480  0.82850  Biso   1.000  O
  O3       1.0000 0.32555  0.83480  0.67150  Biso   1.000  O
  O4       1.0000 0.67445  0.83480  0.82850  Biso   1.000  O
  O5       1.0000 0.17445  0.66520  0.32850  Biso   1.000  O
  O6       1.0000 0.82555  0.66520  0.17150  Biso   1.000  O
  O7       1.0000 0.67445  0.16520  0.32850  Biso   1.000  O
  O8       1.0000 0.32555  0.16520  0.17150  Biso   1.000  O
  N1       1.0000 0.79324  0.40130  0.81110  Biso   1.000  N
  N2       1.0000 0.20676  0.40130  0.68890  Biso   1.000  N
  N3       1.0000 0.29324  0.90130  0.81110  Biso   1.000  N
  N4       1.0000 0.70676  0.90130  0.68890  Biso   1.000  N
  N5       1.0000 0.20676  0.59870  0.18890  Biso   1.000  N
  N6       1.0000 0.79324  0.59870  0.31110  Biso   1.000  N
  N7       1.0000 0.70676  0.09870  0.18890  Biso   1.000  N
  N8       1.0000 0.29324  0.09870  0.31110  Biso   1.000  N
  N9       1.0000 0.87571  0.47270  0.79830  Biso   1.000  N
  N10      1.0000 0.12429  0.47270  0.70170  Biso   1.000  N
  N11      1.0000 0.37571  0.97270  0.79830  Biso   1.000  N
  N12      1.0000 0.62429  0.97270  0.70170  Biso   1.000  N
  N13      1.0000 0.12429  0.52730  0.20170  Biso   1.000  N
  N14      1.0000 0.87571  0.52730  0.29830  Biso   1.000  N
  N15      1.0000 0.62429  0.02730  0.20170  Biso   1.000  N
  N16      1.0000 0.37571  0.02730  0.29830  Biso   1.000  N
  O9       1.0000 0.75210  0.48800  0.68830  Biso   1.000  O
  O10      1.0000 0.24790  0.48800  0.81170  Biso   1.000  O
  O11      1.0000 0.25210  0.98800  0.68830  Biso   1.000  O
  O12      1.0000 0.74790  0.98800  0.81170  Biso   1.000  O
  O13      1.0000 0.24790  0.51200  0.31170  Biso   1.000  O
  O14      1.0000 0.75210  0.51200  0.18830  Biso   1.000  O
  O15      1.0000 0.74790  0.01200  0.31170  Biso   1.000  O
  O16      1.0000 0.25210  0.01200  0.18830  Biso   1.000  O
  O17      1.0000 0.82885  0.57960  0.67670  Biso   1.000  O
  O18      1.0000 0.17115  0.57960  0.82330  Biso   1.000  O
  O19      1.0000 0.32885  0.07960  0.67670  Biso   1.000  O
  O20      1.0000 0.67115  0.07960  0.82330  Biso   1.000  O
  O21      1.0000 0.17115  0.42040  0.32330  Biso   1.000  O
  O22      1.0000 0.82885  0.42040  0.17670  Biso   1.000  O
  O23      1.0000 0.67115  0.92040  0.32330  Biso   1.000  O
  O24      1.0000 0.32885  0.92040  0.17670  Biso   1.000  O
  C1       1.0000 0.77060  0.31300  0.79760  Biso   1.000  C
  C2       1.0000 0.22940  0.31300  0.70240  Biso   1.000  C
  C3       1.0000 0.27060  0.81300  0.79760  Biso   1.000  C
  C4       1.0000 0.72940  0.81300  0.70240  Biso   1.000  C
  C5       1.0000 0.22940  0.68700  0.20240  Biso   1.000  C
  C6       1.0000 0.77060  0.68700  0.29760  Biso   1.000  C
  C7       1.0000 0.72940  0.18700  0.20240  Biso   1.000  C
  C8       1.0000 0.27060  0.18700  0.29760  Biso   1.000  C
  C9       1.0000 0.79970  0.44290  0.87510  Biso   1.000  C
  C10      1.0000 0.20030  0.44290  0.62490  Biso   1.000  C
  C11      1.0000 0.29970  0.94290  0.87510  Biso   1.000  C
  C12      1.0000 0.70030  0.94290  0.62490  Biso   1.000  C
  C13      1.0000 0.20030  0.55710  0.12490  Biso   1.000  C
  C14      1.0000 0.79970  0.55710  0.37510  Biso   1.000  C
  C15      1.0000 0.70030  0.05710  0.12490  Biso   1.000  C
  C16      1.0000 0.29970  0.05710  0.37510  Biso   1.000  C
  C17      1.0000 0.89845  0.38780  0.81890  Biso   1.000  C
  C18      1.0000 0.10155  0.38780  0.68110  Biso   1.000  C
  C19      1.0000 0.39845  0.88780  0.81890  Biso   1.000  C
  C20      1.0000 0.60155  0.88780  0.68110  Biso   1.000  C
  C21      1.0000 0.10155  0.61220  0.18110  Biso   1.000  C
  C22      1.0000 0.89845  0.61220  0.31890  Biso   1.000  C
  C23      1.0000 0.60155  0.11220  0.18110  Biso   1.000  C
  C24      1.0000 0.39845  0.11220  0.31890  Biso   1.000  C
  C25      1.0000 0.89200  0.55800  0.83250  Biso   1.000  C
  C26      1.0000 0.10800  0.55800  0.66750  Biso   1.000  C
  C27      1.0000 0.39200  0.05800  0.83250  Biso   1.000  C
  C28      1.0000 0.60800  0.05800  0.66750  Biso   1.000  C
  C29      1.0000 0.10800  0.44200  0.16750  Biso   1.000  C
  C30      1.0000 0.89200  0.44200  0.33250  Biso   1.000  C
  C31      1.0000 0.60800  0.94200  0.16750  Biso   1.000  C
  C32      1.0000 0.39200  0.94200  0.33250  Biso   1.000  C
  C33      1.0000 0.73010  0.48350  0.62570  Biso   1.000  C
  C34      1.0000 0.26990  0.48350  0.87430  Biso   1.000  C
  C35      1.0000 0.23010  0.98350  0.62570  Biso   1.000  C
  C36      1.0000 0.76990  0.98350  0.87430  Biso   1.000  C
  C37      1.0000 0.26990  0.51650  0.37430  Biso   1.000  C
  C38      1.0000 0.73010  0.51650  0.12570  Biso   1.000  C
  C39      1.0000 0.76990  0.01650  0.37430  Biso   1.000  C
  C40      1.0000 0.23010  0.01650  0.12570  Biso   1.000  C
  H1       1.0000 0.76420  0.28410  0.75080  Biso   1.000  H
  H2       1.0000 0.23580  0.28410  0.74920  Biso   1.000  H
  H3       1.0000 0.26420  0.78410  0.75080  Biso   1.000  H
  H4       1.0000 0.73580  0.78410  0.74920  Biso   1.000  H
  H5       1.0000 0.23580  0.71590  0.24920  Biso   1.000  H
  H6       1.0000 0.76420  0.71590  0.25080  Biso   1.000  H
  H7       1.0000 0.73580  0.21590  0.24920  Biso   1.000  H
  H8       1.0000 0.26420  0.21590  0.25080  Biso   1.000  H
  C41      1.0000 0.75650  0.26360  0.85160  Biso   1.000  C
  C42      1.0000 0.24350  0.26360  0.64840  Biso   1.000  C
  C43      1.0000 0.25650  0.76360  0.85160  Biso   1.000  C
  C44      1.0000 0.74350  0.76360  0.64840  Biso   1.000  C
  C45      1.0000 0.24350  0.73640  0.14840  Biso   1.000  C
  C46      1.0000 0.75650  0.73640  0.35160  Biso   1.000  C
  C47      1.0000 0.74350  0.23640  0.14840  Biso   1.000  C
  C48      1.0000 0.25650  0.23640  0.35160  Biso   1.000  C
  C49      1.0000 0.78520  0.39690  0.93050  Biso   1.000  C
  C50      1.0000 0.21480  0.39690  0.56950  Biso   1.000  C
  C51      1.0000 0.28520  0.89690  0.93050  Biso   1.000  C
  C52      1.0000 0.71480  0.89690  0.56950  Biso   1.000  C
  C53      1.0000 0.21480  0.60310  0.06950  Biso   1.000  C
  C54      1.0000 0.78520  0.60310  0.43050  Biso   1.000  C
  C55      1.0000 0.71480  0.10310  0.06950  Biso   1.000  C
  C56      1.0000 0.28520  0.10310  0.43050  Biso   1.000  C
  H9       1.0000 0.81460  0.50620  0.88430  Biso   1.000  H
  H10      1.0000 0.18540  0.50620  0.61570  Biso   1.000  H
  H11      1.0000 0.31460  0.00620  0.88430  Biso   1.000  H
  H12      1.0000 0.68540  0.00620  0.61570  Biso   1.000  H
  H13      1.0000 0.18540  0.49380  0.11570  Biso   1.000  H
  H14      1.0000 0.81460  0.49380  0.38430  Biso   1.000  H
  H15      1.0000 0.68540  0.99380  0.11570  Biso   1.000  H
  H16      1.0000 0.31460  0.99380  0.38430  Biso   1.000  H
  H17      1.0000 0.88770  0.32730  0.79360  Biso   1.000  H
  H18      1.0000 0.11230  0.32730  0.70640  Biso   1.000  H
  H19      1.0000 0.38770  0.82730  0.79360  Biso   1.000  H
  H20      1.0000 0.61230  0.82730  0.70640  Biso   1.000  H
  H21      1.0000 0.11230  0.67270  0.20640  Biso   1.000  H
  H22      1.0000 0.88770  0.67270  0.29360  Biso   1.000  H
  H23      1.0000 0.61230  0.17270  0.20640  Biso   1.000  H
  H24      1.0000 0.38770  0.17270  0.29360  Biso   1.000  H
  C57      1.0000 0.93702  0.38390  0.87550  Biso   1.000  C
  C58      1.0000 0.06298  0.38390  0.62450  Biso   1.000  C
  C59      1.0000 0.43702  0.88390  0.87550  Biso   1.000  C
  C60      1.0000 0.56298  0.88390  0.62450  Biso   1.000  C
  C61      1.0000 0.06298  0.61610  0.12450  Biso   1.000  C
  C62      1.0000 0.93702  0.61610  0.37550  Biso   1.000  C
  C63      1.0000 0.56298  0.11610  0.12450  Biso   1.000  C
  C64      1.0000 0.43702  0.11610  0.37550  Biso   1.000  C
  C65      1.0000 0.93070  0.56060  0.89030  Biso   1.000  C
  C66      1.0000 0.06930  0.56060  0.60970  Biso   1.000  C
  C67      1.0000 0.43070  0.06060  0.89030  Biso   1.000  C
  C68      1.0000 0.56930  0.06060  0.60970  Biso   1.000  C
  C69      1.0000 0.06930  0.43940  0.10970  Biso   1.000  C
  C70      1.0000 0.93070  0.43940  0.39030  Biso   1.000  C
  C71      1.0000 0.56930  0.93940  0.10970  Biso   1.000  C
  C72      1.0000 0.43070  0.93940  0.39030  Biso   1.000  C
  H25      1.0000 0.87660  0.61940  0.81670  Biso   1.000  H
  H26      1.0000 0.12340  0.61940  0.68330  Biso   1.000  H
  H27      1.0000 0.37660  0.11940  0.81670  Biso   1.000  H
  H28      1.0000 0.62340  0.11940  0.68330  Biso   1.000  H
  H29      1.0000 0.12340  0.38060  0.18330  Biso   1.000  H
  H30      1.0000 0.87660  0.38060  0.31670  Biso   1.000  H
  H31      1.0000 0.62340  0.88060  0.18330  Biso   1.000  H
  H32      1.0000 0.37660  0.88060  0.31670  Biso   1.000  H
  O25      1.0000 0.74390  0.46750  0.57290  Biso   1.000  O
  O26      1.0000 0.25610  0.46750  0.92710  Biso   1.000  O
  O27      1.0000 0.24390  0.96750  0.57290  Biso   1.000  O
  O28      1.0000 0.75610  0.96750  0.92710  Biso   1.000  O
  O29      1.0000 0.25610  0.53250  0.42710  Biso   1.000  O
  O30      1.0000 0.74390  0.53250  0.07290  Biso   1.000  O
  O31      1.0000 0.75610  0.03250  0.42710  Biso   1.000  O
  O32      1.0000 0.24390  0.03250  0.07290  Biso   1.000  O
  C73      1.0000 0.68251  0.51630  0.61530  Biso   1.000  C
  C74      1.0000 0.31749  0.51630  0.88470  Biso   1.000  C
  C75      1.0000 0.18251  0.01630  0.61530  Biso   1.000  C
  C76      1.0000 0.81749  0.01630  0.88470  Biso   1.000  C
  C77      1.0000 0.31749  0.48370  0.38470  Biso   1.000  C
  C78      1.0000 0.68251  0.48370  0.11530  Biso   1.000  C
  C79      1.0000 0.81749  0.98370  0.38470  Biso   1.000  C
  C80      1.0000 0.18251  0.98370  0.11530  Biso   1.000  C
  H33      1.0000 0.74150  0.20050  0.84130  Biso   1.000  H
  H34      1.0000 0.25850  0.20050  0.65870  Biso   1.000  H
  H35      1.0000 0.24150  0.70050  0.84130  Biso   1.000  H
  H36      1.0000 0.75850  0.70050  0.65870  Biso   1.000  H
  H37      1.0000 0.25850  0.79950  0.15870  Biso   1.000  H
  H38      1.0000 0.74150  0.79950  0.34130  Biso   1.000  H
  H39      1.0000 0.75850  0.29950  0.15870  Biso   1.000  H
  H40      1.0000 0.24150  0.29950  0.34130  Biso   1.000  H
  C81      1.0000 0.76370  0.30380  0.91810  Biso   1.000  C
  C82      1.0000 0.23630  0.30380  0.58190  Biso   1.000  C
  C83      1.0000 0.26370  0.80380  0.91810  Biso   1.000  C
  C84      1.0000 0.73630  0.80380  0.58190  Biso   1.000  C
  C85      1.0000 0.23630  0.69620  0.08190  Biso   1.000  C
  C86      1.0000 0.76370  0.69620  0.41810  Biso   1.000  C
  C87      1.0000 0.73630  0.19620  0.08190  Biso   1.000  C
  C88      1.0000 0.26370  0.19620  0.41810  Biso   1.000  C
  H41      1.0000 0.79010  0.42920  0.97610  Biso   1.000  H
  H42      1.0000 0.20990  0.42920  0.52390  Biso   1.000  H
  H43      1.0000 0.29010  0.92920  0.97610  Biso   1.000  H
  H44      1.0000 0.70990  0.92920  0.52390  Biso   1.000  H
  H45      1.0000 0.20990  0.57080  0.02390  Biso   1.000  H
  H46      1.0000 0.79010  0.57080  0.47610  Biso   1.000  H
  H47      1.0000 0.70990  0.07080  0.02390  Biso   1.000  H
  H48      1.0000 0.29010  0.07080  0.47610  Biso   1.000  H
  H49      1.0000 0.95230  0.32160  0.88840  Biso   1.000  H
  H50      1.0000 0.04770  0.32160  0.61160  Biso   1.000  H
  H51      1.0000 0.45230  0.82160  0.88840  Biso   1.000  H
  H52      1.0000 0.54770  0.82160  0.61160  Biso   1.000  H
  H53      1.0000 0.04770  0.67840  0.11160  Biso   1.000  H
  H54      1.0000 0.95230  0.67840  0.38840  Biso   1.000  H
  H55      1.0000 0.54770  0.17840  0.11160  Biso   1.000  H
  H56      1.0000 0.45230  0.17840  0.38840  Biso   1.000  H
  C89      1.0000 0.95340  0.47050  0.91340  Biso   1.000  C
  C90      1.0000 0.04660  0.47050  0.58660  Biso   1.000  C
  C91      1.0000 0.45340  0.97050  0.91340  Biso   1.000  C
  C92      1.0000 0.54660  0.97050  0.58660  Biso   1.000  C
  C93      1.0000 0.04660  0.52950  0.08660  Biso   1.000  C
  C94      1.0000 0.95340  0.52950  0.41340  Biso   1.000  C
  C95      1.0000 0.54660  0.02950  0.08660  Biso   1.000  C
  C96      1.0000 0.45340  0.02950  0.41340  Biso   1.000  C
  H57      1.0000 0.94140  0.62250  0.91370  Biso   1.000  H
  H58      1.0000 0.05860  0.62250  0.58630  Biso   1.000  H
  H59      1.0000 0.44140  0.12250  0.91370  Biso   1.000  H
  H60      1.0000 0.55860  0.12250  0.58630  Biso   1.000  H
  H61      1.0000 0.05860  0.37750  0.08630  Biso   1.000  H
  H62      1.0000 0.94140  0.37750  0.41370  Biso   1.000  H
  H63      1.0000 0.55860  0.87750  0.08630  Biso   1.000  H
  H64      1.0000 0.44140  0.87750  0.41370  Biso   1.000  H
  C97      1.0000 0.66539  0.54110  0.67270  Biso   1.000  C
  C98      1.0000 0.33461  0.54110  0.82730  Biso   1.000  C
  C99      1.0000 0.16539  0.04110  0.67270  Biso   1.000  C
  C100     1.0000 0.83461  0.04110  0.82730  Biso   1.000  C
  C101     1.0000 0.33461  0.45890  0.32730  Biso   1.000  C
  C102     1.0000 0.66539  0.45890  0.17270  Biso   1.000  C
  C103     1.0000 0.83461  0.95890  0.32730  Biso   1.000  C
  C104     1.0000 0.16539  0.95890  0.17270  Biso   1.000  C
  C105     1.0000 0.65510  0.52180  0.54480  Biso   1.000  C
  C106     1.0000 0.34490  0.52180  0.95520  Biso   1.000  C
  C107     1.0000 0.15510  0.02180  0.54480  Biso   1.000  C
  C108     1.0000 0.84490  0.02180  0.95520  Biso   1.000  C
  C109     1.0000 0.34490  0.47820  0.45520  Biso   1.000  C
  C110     1.0000 0.65510  0.47820  0.04480  Biso   1.000  C
  C111     1.0000 0.84490  0.97820  0.45520  Biso   1.000  C
  C112     1.0000 0.15510  0.97820  0.04480  Biso   1.000  C
  C113     1.0000 0.74920  0.24250  0.97030  Biso   1.000  C
  C114     1.0000 0.25080  0.24250  0.52970  Biso   1.000  C
  C115     1.0000 0.24920  0.74250  0.97030  Biso   1.000  C
  C116     1.0000 0.75080  0.74250  0.52970  Biso   1.000  C
  C117     1.0000 0.25080  0.75750  0.02970  Biso   1.000  C
  C118     1.0000 0.74920  0.75750  0.47030  Biso   1.000  C
  C119     1.0000 0.75080  0.25750  0.02970  Biso   1.000  C
  C120     1.0000 0.24920  0.25750  0.47030  Biso   1.000  C
  C121     1.0000 0.99280  0.46520  0.97650  Biso   1.000  C
  C122     1.0000 0.00720  0.46520  0.52350  Biso   1.000  C
  C123     1.0000 0.49280  0.96520  0.97650  Biso   1.000  C
  C124     1.0000 0.50720  0.96520  0.52350  Biso   1.000  C
  C125     1.0000 0.00720  0.53480  0.02350  Biso   1.000  C
  C126     1.0000 0.99280  0.53480  0.47650  Biso   1.000  C
  C127     1.0000 0.50720  0.03480  0.02350  Biso   1.000  C
  C128     1.0000 0.49280  0.03480  0.47650  Biso   1.000  C
  C129     1.0000 0.62083  0.57140  0.65950  Biso   1.000  C
  C130     1.0000 0.37917  0.57140  0.84050  Biso   1.000  C
  C131     1.0000 0.12083  0.07140  0.65950  Biso   1.000  C
  C132     1.0000 0.87917  0.07140  0.84050  Biso   1.000  C
  C133     1.0000 0.37917  0.42860  0.34050  Biso   1.000  C
  C134     1.0000 0.62083  0.42860  0.15950  Biso   1.000  C
  C135     1.0000 0.87917  0.92860  0.34050  Biso   1.000  C
  C136     1.0000 0.12083  0.92860  0.15950  Biso   1.000  C
  H65      1.0000 0.68420  0.53730  0.72080  Biso   1.000  H
  H66      1.0000 0.31580  0.53730  0.77920  Biso   1.000  H
  H67      1.0000 0.18420  0.03730  0.72080  Biso   1.000  H
  H68      1.0000 0.81580  0.03730  0.77920  Biso   1.000  H
  H69      1.0000 0.31580  0.46270  0.27920  Biso   1.000  H
  H70      1.0000 0.68420  0.46270  0.22080  Biso   1.000  H
  H71      1.0000 0.81580  0.96270  0.27920  Biso   1.000  H
  H72      1.0000 0.18420  0.96270  0.22080  Biso   1.000  H
  N17      1.0000 0.61050  0.55210  0.53170  Biso   1.000  N
  N18      1.0000 0.38950  0.55210  0.96830  Biso   1.000  N
  N19      1.0000 0.11050  0.05210  0.53170  Biso   1.000  N
  N20      1.0000 0.88950  0.05210  0.96830  Biso   1.000  N
  N21      1.0000 0.38950  0.44790  0.46830  Biso   1.000  N
  N22      1.0000 0.61050  0.44790  0.03170  Biso   1.000  N
  N23      1.0000 0.88950  0.94790  0.46830  Biso   1.000  N
  N24      1.0000 0.11050  0.94790  0.03170  Biso   1.000  N
  H73      1.0000 0.66680  0.50480  0.50560  Biso   1.000  H
  H74      1.0000 0.33320  0.50480  0.99440  Biso   1.000  H
  H75      1.0000 0.16680  0.00480  0.50560  Biso   1.000  H
  H76      1.0000 0.83320  0.00480  0.99440  Biso   1.000  H
  H77      1.0000 0.33320  0.49520  0.49440  Biso   1.000  H
  H78      1.0000 0.66680  0.49520  0.00560  Biso   1.000  H
  H79      1.0000 0.83320  0.99520  0.49440  Biso   1.000  H
  H80      1.0000 0.16680  0.99520  0.00560  Biso   1.000  H
  H81      1.0000 0.73610  0.17960  0.95220  Biso   1.000  H
  H82      1.0000 0.26390  0.17960  0.54780  Biso   1.000  H
  H83      1.0000 0.23610  0.67960  0.95220  Biso   1.000  H
  H84      1.0000 0.76390  0.67960  0.54780  Biso   1.000  H
  H85      1.0000 0.26390  0.82040  0.04780  Biso   1.000  H
  H86      1.0000 0.73610  0.82040  0.45220  Biso   1.000  H
  H87      1.0000 0.76390  0.32040  0.04780  Biso   1.000  H
  H88      1.0000 0.23610  0.32040  0.45220  Biso   1.000  H
  H89      1.0000 0.00950  0.40400  0.98320  Biso   1.000  H
  H90      1.0000 0.99050  0.40400  0.51680  Biso   1.000  H
  H91      1.0000 0.50950  0.90400  0.98320  Biso   1.000  H
  H92      1.0000 0.49050  0.90400  0.51680  Biso   1.000  H
  H93      1.0000 0.99050  0.59600  0.01680  Biso   1.000  H
  H94      1.0000 0.00950  0.59600  0.48320  Biso   1.000  H
  H95      1.0000 0.49050  0.09600  0.01680  Biso   1.000  H
  H96      1.0000 0.50950  0.09600  0.48320  Biso   1.000  H
  C137     1.0000 0.59337  0.57690  0.58900  Biso   1.000  C
  C138     1.0000 0.40663  0.57690  0.91100  Biso   1.000  C
  C139     1.0000 0.09337  0.07690  0.58900  Biso   1.000  C
  C140     1.0000 0.90663  0.07690  0.91100  Biso   1.000  C
  C141     1.0000 0.40663  0.42310  0.41100  Biso   1.000  C
  C142     1.0000 0.59337  0.42310  0.08900  Biso   1.000  C
  C143     1.0000 0.90663  0.92310  0.41100  Biso   1.000  C
  C144     1.0000 0.09337  0.92310  0.08900  Biso   1.000  C
  C145     1.0000 0.60140  0.59710  0.72010  Biso   1.000  C
  C146     1.0000 0.39860  0.59710  0.77990  Biso   1.000  C
  C147     1.0000 0.10140  0.09710  0.72010  Biso   1.000  C
  C148     1.0000 0.89860  0.09710  0.77990  Biso   1.000  C
  C149     1.0000 0.39860  0.40290  0.27990  Biso   1.000  C
  C150     1.0000 0.60140  0.40290  0.22010  Biso   1.000  C
  C151     1.0000 0.89860  0.90290  0.27990  Biso   1.000  C
  C152     1.0000 0.10140  0.90290  0.22010  Biso   1.000  C
  C153     1.0000 0.58860  0.56550  0.47280  Biso   1.000  C
  C154     1.0000 0.41140  0.56550  0.02720  Biso   1.000  C
  C155     1.0000 0.08860  0.06550  0.47280  Biso   1.000  C
  C156     1.0000 0.91140  0.06550  0.02720  Biso   1.000  C
  C157     1.0000 0.41140  0.43450  0.52720  Biso   1.000  C
  C158     1.0000 0.58860  0.43450  0.97280  Biso   1.000  C
  C159     1.0000 0.91140  0.93450  0.52720  Biso   1.000  C
  C160     1.0000 0.08860  0.93450  0.97280  Biso   1.000  C
  H97      1.0000 0.56290  0.59760  0.58010  Biso   1.000  H
  H98      1.0000 0.43710  0.59760  0.91990  Biso   1.000  H
  H99      1.0000 0.06290  0.09760  0.58010  Biso   1.000  H
  H100     1.0000 0.93710  0.09760  0.91990  Biso   1.000  H
  H101     1.0000 0.43710  0.40240  0.41990  Biso   1.000  H
  H102     1.0000 0.56290  0.40240  0.08010  Biso   1.000  H
  H103     1.0000 0.93710  0.90240  0.41990  Biso   1.000  H
  H104     1.0000 0.06290  0.90240  0.08010  Biso   1.000  H
  O33      1.0000 0.56230  0.63200  0.70260  Biso   1.000  O
  O34      1.0000 0.43770  0.63200  0.79740  Biso   1.000  O
  O35      1.0000 0.06230  0.13200  0.70260  Biso   1.000  O
  O36      1.0000 0.93770  0.13200  0.79740  Biso   1.000  O
  O37      1.0000 0.43770  0.36800  0.29740  Biso   1.000  O
  O38      1.0000 0.56230  0.36800  0.20260  Biso   1.000  O
  O39      1.0000 0.93770  0.86800  0.29740  Biso   1.000  O
  O40      1.0000 0.06230  0.86800  0.20260  Biso   1.000  O
  O41      1.0000 0.62490  0.58000  0.78290  Biso   1.000  O
  O42      1.0000 0.37510  0.58000  0.71710  Biso   1.000  O
  O43      1.0000 0.12490  0.08000  0.78290  Biso   1.000  O
  O44      1.0000 0.87510  0.08000  0.71710  Biso   1.000  O
  O45      1.0000 0.37510  0.42000  0.21710  Biso   1.000  O
  O46      1.0000 0.62490  0.42000  0.28290  Biso   1.000  O
  O47      1.0000 0.87510  0.92000  0.21710  Biso   1.000  O
  O48      1.0000 0.12490  0.92000  0.28290  Biso   1.000  O
  C161     1.0000 0.60290  0.66000  0.44420  Biso   1.000  C
  C162     1.0000 0.39710  0.66000  0.05580  Biso   1.000  C
  C163     1.0000 0.10290  0.16000  0.44420  Biso   1.000  C
  C164     1.0000 0.89710  0.16000  0.05580  Biso   1.000  C
  C165     1.0000 0.39710  0.34000  0.55580  Biso   1.000  C
  C166     1.0000 0.60290  0.34000  0.94420  Biso   1.000  C
  C167     1.0000 0.89710  0.84000  0.55580  Biso   1.000  C
  C168     1.0000 0.10290  0.84000  0.94420  Biso   1.000  C
  H105     1.0000 0.55650  0.57050  0.47200  Biso   1.000  H
  H106     1.0000 0.44350  0.57050  0.02800  Biso   1.000  H
  H107     1.0000 0.05650  0.07050  0.47200  Biso   1.000  H
  H108     1.0000 0.94350  0.07050  0.02800  Biso   1.000  H
  H109     1.0000 0.44350  0.42950  0.52800  Biso   1.000  H
  H110     1.0000 0.55650  0.42950  0.97200  Biso   1.000  H
  H111     1.0000 0.94350  0.92950  0.52800  Biso   1.000  H
  H112     1.0000 0.05650  0.92950  0.97200  Biso   1.000  H
  H113     1.0000 0.59190  0.50780  0.44200  Biso   1.000  H
  H114     1.0000 0.40810  0.50780  0.05800  Biso   1.000  H
  H115     1.0000 0.09190  0.00780  0.44200  Biso   1.000  H
  H116     1.0000 0.90810  0.00780  0.05800  Biso   1.000  H
  H117     1.0000 0.40810  0.49220  0.55800  Biso   1.000  H
  H118     1.0000 0.59190  0.49220  0.94200  Biso   1.000  H
  H119     1.0000 0.90810  0.99220  0.55800  Biso   1.000  H
  H120     1.0000 0.09190  0.99220  0.94200  Biso   1.000  H
  Cu9      1.0000 0.51863  0.63089  0.75959  Biso   1.000  Cu
  Cu10     1.0000 0.48137  0.63089  0.74041  Biso   1.000  Cu
  Cu11     1.0000 0.01863  0.13089  0.75959  Biso   1.000  Cu
  Cu12     1.0000 0.98137  0.13089  0.74041  Biso   1.000  Cu
  Cu13     1.0000 0.48137  0.36911  0.24041  Biso   1.000  Cu
  Cu14     1.0000 0.51863  0.36911  0.25959  Biso   1.000  Cu
  Cu15     1.0000 0.98137  0.86911  0.24041  Biso   1.000  Cu
  Cu16     1.0000 0.01863  0.86911  0.25959  Biso   1.000  Cu
  C169     1.0000 0.59540  0.75320  0.47030  Biso   1.000  C
  C170     1.0000 0.40460  0.75320  0.02970  Biso   1.000  C
  C171     1.0000 0.09540  0.25320  0.47030  Biso   1.000  C
  C172     1.0000 0.90460  0.25320  0.02970  Biso   1.000  C
  C173     1.0000 0.40460  0.24680  0.52970  Biso   1.000  C
  C174     1.0000 0.59540  0.24680  0.97030  Biso   1.000  C
  C175     1.0000 0.90460  0.74680  0.52970  Biso   1.000  C
  C176     1.0000 0.09540  0.74680  0.97030  Biso   1.000  C
  C177     1.0000 0.62340  0.65580  0.38890  Biso   1.000  C
  C178     1.0000 0.37660  0.65580  0.11110  Biso   1.000  C
  C179     1.0000 0.12340  0.15580  0.38890  Biso   1.000  C
  C180     1.0000 0.87660  0.15580  0.11110  Biso   1.000  C
  C181     1.0000 0.37660  0.34420  0.61110  Biso   1.000  C
  C182     1.0000 0.62340  0.34420  0.88890  Biso   1.000  C
  C183     1.0000 0.87660  0.84420  0.61110  Biso   1.000  C
  C184     1.0000 0.12340  0.84420  0.88890  Biso   1.000  C
  N25      1.0000 0.51050  0.77940  0.74670  Biso   1.000  N
  N26      1.0000 0.48950  0.77940  0.75330  Biso   1.000  N
  N27      1.0000 0.01050  0.27940  0.74670  Biso   1.000  N
  N28      1.0000 0.98950  0.27940  0.75330  Biso   1.000  N
  N29      1.0000 0.48950  0.22060  0.25330  Biso   1.000  N
  N30      1.0000 0.51050  0.22060  0.24670  Biso   1.000  N
  N31      1.0000 0.98950  0.72060  0.25330  Biso   1.000  N
  N32      1.0000 0.01050  0.72060  0.24670  Biso   1.000  N
  O49      1.0000 0.57090  0.62770  0.86970  Biso   1.000  O
  O50      1.0000 0.42910  0.62770  0.63030  Biso   1.000  O
  O51      1.0000 0.07090  0.12770  0.86970  Biso   1.000  O
  O52      1.0000 0.92910  0.12770  0.63030  Biso   1.000  O
  O53      1.0000 0.42910  0.37230  0.13030  Biso   1.000  O
  O54      1.0000 0.57090  0.37230  0.36970  Biso   1.000  O
  O55      1.0000 0.92910  0.87230  0.13030  Biso   1.000  O
  O56      1.0000 0.07090  0.87230  0.36970  Biso   1.000  O
  C185     1.0000 0.52452  0.81480  0.81000  Biso   1.000  C
  C186     1.0000 0.47548  0.81480  0.69000  Biso   1.000  C
  C187     1.0000 0.02452  0.31480  0.81000  Biso   1.000  C
  C188     1.0000 0.97548  0.31480  0.69000  Biso   1.000  C
  C189     1.0000 0.47548  0.18520  0.19000  Biso   1.000  C
  C190     1.0000 0.52452  0.18520  0.31000  Biso   1.000  C
  C191     1.0000 0.97548  0.68520  0.19000  Biso   1.000  C
  C192     1.0000 0.02452  0.68520  0.31000  Biso   1.000  C
  N33      1.0000 0.48402  0.48130  0.74690  Biso   1.000  N
  N34      1.0000 0.51598  0.48130  0.75310  Biso   1.000  N
  N35      1.0000 0.98402  0.98130  0.74690  Biso   1.000  N
  N36      1.0000 0.01598  0.98130  0.75310  Biso   1.000  N
  N37      1.0000 0.51598  0.51870  0.25310  Biso   1.000  N
  N38      1.0000 0.48402  0.51870  0.24690  Biso   1.000  N
  N39      1.0000 0.01598  0.01870  0.25310  Biso   1.000  N
  N40      1.0000 0.98402  0.01870  0.24690  Biso   1.000  N
  C193     1.0000 0.60880  0.84040  0.44550  Biso   1.000  C
  C194     1.0000 0.39120  0.84040  0.05450  Biso   1.000  C
  C195     1.0000 0.10880  0.34040  0.44550  Biso   1.000  C
  C196     1.0000 0.89120  0.34040  0.05450  Biso   1.000  C
  C197     1.0000 0.39120  0.15960  0.55450  Biso   1.000  C
  C198     1.0000 0.60880  0.15960  0.94550  Biso   1.000  C
  C199     1.0000 0.89120  0.65960  0.55450  Biso   1.000  C
  C200     1.0000 0.10880  0.65960  0.94550  Biso   1.000  C
  H121     1.0000 0.58030  0.75660  0.50700  Biso   1.000  H
  H122     1.0000 0.41970  0.75660  0.99300  Biso   1.000  H
  H123     1.0000 0.08030  0.25660  0.50700  Biso   1.000  H
  H124     1.0000 0.91970  0.25660  0.99300  Biso   1.000  H
  H125     1.0000 0.41970  0.24340  0.49300  Biso   1.000  H
  H126     1.0000 0.58030  0.24340  0.00700  Biso   1.000  H
  H127     1.0000 0.91970  0.74340  0.49300  Biso   1.000  H
  H128     1.0000 0.08030  0.74340  0.00700  Biso   1.000  H
  H129     1.0000 0.62830  0.59250  0.36920  Biso   1.000  H
  H130     1.0000 0.37170  0.59250  0.13080  Biso   1.000  H
  H131     1.0000 0.12830  0.09250  0.36920  Biso   1.000  H
  H132     1.0000 0.87170  0.09250  0.13080  Biso   1.000  H
  H133     1.0000 0.37170  0.40750  0.63080  Biso   1.000  H
  H134     1.0000 0.62830  0.40750  0.86920  Biso   1.000  H
  H135     1.0000 0.87170  0.90750  0.63080  Biso   1.000  H
  H136     1.0000 0.12830  0.90750  0.86920  Biso   1.000  H
  C201     1.0000 0.63680  0.74520  0.36230  Biso   1.000  C
  C202     1.0000 0.36320  0.74520  0.13770  Biso   1.000  C
  C203     1.0000 0.13680  0.24520  0.36230  Biso   1.000  C
  C204     1.0000 0.86320  0.24520  0.13770  Biso   1.000  C
  C205     1.0000 0.36320  0.25480  0.63770  Biso   1.000  C
  C206     1.0000 0.63680  0.25480  0.86230  Biso   1.000  C
  C207     1.0000 0.86320  0.75480  0.63770  Biso   1.000  C
  C208     1.0000 0.13680  0.75480  0.86230  Biso   1.000  C
  C209     1.0000 0.53799  0.84720  0.79400  Biso   1.000  C
  C210     1.0000 0.46201  0.84720  0.70600  Biso   1.000  C
  C211     1.0000 0.03799  0.34720  0.79400  Biso   1.000  C
  C212     1.0000 0.96201  0.34720  0.70600  Biso   1.000  C
  C213     1.0000 0.46201  0.15280  0.20600  Biso   1.000  C
  C214     1.0000 0.53799  0.15280  0.29400  Biso   1.000  C
  C215     1.0000 0.96201  0.65280  0.20600  Biso   1.000  C
  C216     1.0000 0.03799  0.65280  0.29400  Biso   1.000  C
  H137     1.0000 0.56190  0.82300  0.83280  Biso   1.000  H
  H138     1.0000 0.43810  0.82300  0.66720  Biso   1.000  H
  H139     1.0000 0.06190  0.32300  0.83280  Biso   1.000  H
  H140     1.0000 0.93810  0.32300  0.66720  Biso   1.000  H
  H141     1.0000 0.43810  0.17700  0.16720  Biso   1.000  H
  H142     1.0000 0.56190  0.17700  0.33280  Biso   1.000  H
  H143     1.0000 0.93810  0.67700  0.16720  Biso   1.000  H
  H144     1.0000 0.06190  0.67700  0.33280  Biso   1.000  H
  C217     1.0000 0.53205  0.91800  0.81940  Biso   1.000  C
  C218     1.0000 0.46795  0.91800  0.68060  Biso   1.000  C
  C219     1.0000 0.03205  0.41800  0.81940  Biso   1.000  C
  C220     1.0000 0.96795  0.41800  0.68060  Biso   1.000  C
  C221     1.0000 0.46795  0.08200  0.18060  Biso   1.000  C
  C222     1.0000 0.53205  0.08200  0.31940  Biso   1.000  C
  C223     1.0000 0.96795  0.58200  0.18060  Biso   1.000  C
  C224     1.0000 0.03205  0.58200  0.31940  Biso   1.000  C
  H145     1.0000 0.54330  0.76840  0.84240  Biso   1.000  H
  H146     1.0000 0.45670  0.76840  0.65760  Biso   1.000  H
  H147     1.0000 0.04330  0.26840  0.84240  Biso   1.000  H
  H148     1.0000 0.95670  0.26840  0.65760  Biso   1.000  H
  H149     1.0000 0.45670  0.23160  0.15760  Biso   1.000  H
  H150     1.0000 0.54330  0.23160  0.34240  Biso   1.000  H
  H151     1.0000 0.95670  0.73160  0.15760  Biso   1.000  H
  H152     1.0000 0.04330  0.73160  0.34240  Biso   1.000  H
  C225     1.0000 0.63053  0.83660  0.39070  Biso   1.000  C
  C226     1.0000 0.36947  0.83660  0.10930  Biso   1.000  C
  C227     1.0000 0.13053  0.33660  0.39070  Biso   1.000  C
  C228     1.0000 0.86947  0.33660  0.10930  Biso   1.000  C
  C229     1.0000 0.36947  0.16340  0.60930  Biso   1.000  C
  C230     1.0000 0.63053  0.16340  0.89070  Biso   1.000  C
  C231     1.0000 0.86947  0.66340  0.60930  Biso   1.000  C
  C232     1.0000 0.13053  0.66340  0.89070  Biso   1.000  C
  H153     1.0000 0.60350  0.90340  0.46530  Biso   1.000  H
  H154     1.0000 0.39650  0.90340  0.03470  Biso   1.000  H
  H155     1.0000 0.10350  0.40340  0.46530  Biso   1.000  H
  H156     1.0000 0.89650  0.40340  0.03470  Biso   1.000  H
  H157     1.0000 0.39650  0.09660  0.53470  Biso   1.000  H
  H158     1.0000 0.60350  0.09660  0.96530  Biso   1.000  H
  H159     1.0000 0.89650  0.59660  0.53470  Biso   1.000  H
  H160     1.0000 0.10350  0.59660  0.96530  Biso   1.000  H
  H161     1.0000 0.65050  0.74230  0.32380  Biso   1.000  H
  H162     1.0000 0.34950  0.74230  0.17620  Biso   1.000  H
  H163     1.0000 0.15050  0.24230  0.32380  Biso   1.000  H
  H164     1.0000 0.84950  0.24230  0.17620  Biso   1.000  H
  H165     1.0000 0.34950  0.25770  0.67620  Biso   1.000  H
  H166     1.0000 0.65050  0.25770  0.82380  Biso   1.000  H
  H167     1.0000 0.84950  0.75770  0.67620  Biso   1.000  H
  H168     1.0000 0.15050  0.75770  0.82380  Biso   1.000  H
  C233     1.0000 0.53047  0.95040  0.78460  Biso   1.000  C
  C234     1.0000 0.46953  0.95040  0.71540  Biso   1.000  C
  C235     1.0000 0.03047  0.45040  0.78460  Biso   1.000  C
  C236     1.0000 0.96953  0.45040  0.71540  Biso   1.000  C
  C237     1.0000 0.46953  0.04960  0.21540  Biso   1.000  C
  C238     1.0000 0.53047  0.04960  0.28460  Biso   1.000  C
  C239     1.0000 0.96953  0.54960  0.21540  Biso   1.000  C
  C240     1.0000 0.03047  0.54960  0.28460  Biso   1.000  C
  H169     1.0000 0.54930  0.99670  0.81700  Biso   1.000  H
  H170     1.0000 0.45070  0.99670  0.68300  Biso   1.000  H
  H171     1.0000 0.04930  0.49670  0.81700  Biso   1.000  H
  H172     1.0000 0.95070  0.49670  0.68300  Biso   1.000  H
  H173     1.0000 0.45070  0.00330  0.18300  Biso   1.000  H
  H174     1.0000 0.54930  0.00330  0.31700  Biso   1.000  H
  H175     1.0000 0.95070  0.50330  0.18300  Biso   1.000  H
  H176     1.0000 0.04930  0.50330  0.31700  Biso   1.000  H
  C241     1.0000 0.50450  0.98580  0.77210  Biso   1.000  C
  C242     1.0000 0.49550  0.98580  0.72790  Biso   1.000  C
  C243     1.0000 0.00450  0.48580  0.77210  Biso   1.000  C
  C244     1.0000 0.99550  0.48580  0.72790  Biso   1.000  C
  C245     1.0000 0.49550  0.01420  0.22790  Biso   1.000  C
  C246     1.0000 0.50450  0.01420  0.27210  Biso   1.000  C
  C247     1.0000 0.99550  0.51420  0.22790  Biso   1.000  C
  C248     1.0000 0.00450  0.51420  0.27210  Biso   1.000  C
  H177     1.0000 0.55600  0.94220  0.85820  Biso   1.000  H
  H178     1.0000 0.44400  0.94220  0.64180  Biso   1.000  H
  H179     1.0000 0.05600  0.44220  0.85820  Biso   1.000  H
  H180     1.0000 0.94400  0.44220  0.64180  Biso   1.000  H
  H181     1.0000 0.44400  0.05780  0.14180  Biso   1.000  H
  H182     1.0000 0.55600  0.05780  0.35820  Biso   1.000  H
  H183     1.0000 0.94400  0.55780  0.14180  Biso   1.000  H
  H184     1.0000 0.05600  0.55780  0.35820  Biso   1.000  H
  C249     1.0000 0.64699  0.93170  0.36600  Biso   1.000  C
  C250     1.0000 0.35301  0.93170  0.13400  Biso   1.000  C
  C251     1.0000 0.14699  0.43170  0.36600  Biso   1.000  C
  C252     1.0000 0.85301  0.43170  0.13400  Biso   1.000  C
  C253     1.0000 0.35301  0.06830  0.63400  Biso   1.000  C
  C254     1.0000 0.64699  0.06830  0.86600  Biso   1.000  C
  C255     1.0000 0.85301  0.56830  0.63400  Biso   1.000  C
  C256     1.0000 0.14699  0.56830  0.86600  Biso   1.000  C
  C257     1.0000 0.48840  0.09590  0.71640  Biso   1.000  C
  C258     1.0000 0.51160  0.09590  0.78360  Biso   1.000  C
  C259     1.0000 0.98840  0.59590  0.71640  Biso   1.000  C
  C260     1.0000 0.01160  0.59590  0.78360  Biso   1.000  C
  C261     1.0000 0.51160  0.90410  0.28360  Biso   1.000  C
  C262     1.0000 0.48840  0.90410  0.21640  Biso   1.000  C
  C263     1.0000 0.01160  0.40410  0.28360  Biso   1.000  C
  C264     1.0000 0.98840  0.40410  0.21640  Biso   1.000  C
  O57      1.0000 0.63586  0.01380  0.38570  Biso   1.000  O
  O58      1.0000 0.36414  0.01380  0.11430  Biso   1.000  O
  O59      1.0000 0.13586  0.51380  0.38570  Biso   1.000  O
  O60      1.0000 0.86414  0.51380  0.11430  Biso   1.000  O
  O61      1.0000 0.36414  0.98620  0.61430  Biso   1.000  O
  O62      1.0000 0.63586  0.98620  0.88570  Biso   1.000  O
  O63      1.0000 0.86414  0.48620  0.61430  Biso   1.000  O
  O64      1.0000 0.13586  0.48620  0.88570  Biso   1.000  O
  H185     1.0000 0.47440  0.11960  0.66900  Biso   1.000  H
  H186     1.0000 0.52560  0.11960  0.83100  Biso   1.000  H
  H187     1.0000 0.97440  0.61960  0.66900  Biso   1.000  H
  H188     1.0000 0.02560  0.61960  0.83100  Biso   1.000  H
  H189     1.0000 0.52560  0.88040  0.33100  Biso   1.000  H
  H190     1.0000 0.47440  0.88040  0.16900  Biso   1.000  H
  H191     1.0000 0.02560  0.38040  0.33100  Biso   1.000  H
  H192     1.0000 0.97440  0.38040  0.16900  Biso   1.000  H
  C265     1.0000 0.50050  0.16240  0.76920  Biso   1.000  C
  C266     1.0000 0.49950  0.16240  0.73080  Biso   1.000  C
  C267     1.0000 0.00050  0.66240  0.76920  Biso   1.000  C
  C268     1.0000 0.99950  0.66240  0.73080  Biso   1.000  C
  C269     1.0000 0.49950  0.83760  0.23080  Biso   1.000  C
  C270     1.0000 0.50050  0.83760  0.26920  Biso   1.000  C
  C271     1.0000 0.99950  0.33760  0.23080  Biso   1.000  C
  C272     1.0000 0.00050  0.33760  0.26920  Biso   1.000  C
  H193     1.0000 0.48520  0.13760  0.68380  Biso   1.000  H
  H194     1.0000 0.51480  0.13760  0.81620  Biso   1.000  H
  H195     1.0000 0.98520  0.63760  0.68380  Biso   1.000  H
  H196     1.0000 0.01480  0.63760  0.81620  Biso   1.000  H
  H197     1.0000 0.51480  0.86240  0.31620  Biso   1.000  H
  H198     1.0000 0.48520  0.86240  0.18380  Biso   1.000  H
  H199     1.0000 0.01480  0.36240  0.31620  Biso   1.000  H
  H200     1.0000 0.98520  0.36240  0.18380  Biso   1.000  H
  C273     1.0000 0.49350  0.27300  0.76080  Biso   1.000  C
  C274     1.0000 0.50650  0.27300  0.73920  Biso   1.000  C
  C275     1.0000 0.99350  0.77300  0.76080  Biso   1.000  C
  C276     1.0000 0.00650  0.77300  0.73920  Biso   1.000  C
  C277     1.0000 0.50650  0.72700  0.23920  Biso   1.000  C
  C278     1.0000 0.49350  0.72700  0.26080  Biso   1.000  C
  C279     1.0000 0.00650  0.22700  0.23920  Biso   1.000  C
  C280     1.0000 0.99350  0.22700  0.26080  Biso   1.000  C
  C281     1.0000 0.49250  0.31920  0.69560  Biso   1.000  C
  C282     1.0000 0.50750  0.31920  0.80440  Biso   1.000  C
  C283     1.0000 0.99250  0.81920  0.69560  Biso   1.000  C
  C284     1.0000 0.00750  0.81920  0.80440  Biso   1.000  C
  C285     1.0000 0.50750  0.68080  0.30440  Biso   1.000  C
  C286     1.0000 0.49250  0.68080  0.19560  Biso   1.000  C
  C287     1.0000 0.00750  0.18080  0.30440  Biso   1.000  C
  C288     1.0000 0.99250  0.18080  0.19560  Biso   1.000  C
  C289     1.0000 0.48975  0.33080  0.81900  Biso   1.000  C
  C290     1.0000 0.51025  0.33080  0.68100  Biso   1.000  C
  C291     1.0000 0.98975  0.83080  0.81900  Biso   1.000  C
  C292     1.0000 0.01025  0.83080  0.68100  Biso   1.000  C
  C293     1.0000 0.51025  0.66920  0.18100  Biso   1.000  C
  C294     1.0000 0.48975  0.66920  0.31900  Biso   1.000  C
  C295     1.0000 0.01025  0.16920  0.18100  Biso   1.000  C
  C296     1.0000 0.98975  0.16920  0.31900  Biso   1.000  C
  H201     1.0000 0.49510  0.27970  0.65570  Biso   1.000  H
  H202     1.0000 0.50490  0.27970  0.84430  Biso   1.000  H
  H203     1.0000 0.99510  0.77970  0.65570  Biso   1.000  H
  H204     1.0000 0.00490  0.77970  0.84430  Biso   1.000  H
  H205     1.0000 0.50490  0.72030  0.34430  Biso   1.000  H
  H206     1.0000 0.49510  0.72030  0.15570  Biso   1.000  H
  H207     1.0000 0.00490  0.22030  0.34430  Biso   1.000  H
  H208     1.0000 0.99510  0.22030  0.15570  Biso   1.000  H
  C297     1.0000 0.48777  0.42340  0.68860  Biso   1.000  C
  C298     1.0000 0.51223  0.42340  0.81140  Biso   1.000  C
  C299     1.0000 0.98777  0.92340  0.68860  Biso   1.000  C
  C300     1.0000 0.01223  0.92340  0.81140  Biso   1.000  C
  C301     1.0000 0.51223  0.57660  0.31140  Biso   1.000  C
  C302     1.0000 0.48777  0.57660  0.18860  Biso   1.000  C
  C303     1.0000 0.01223  0.07660  0.31140  Biso   1.000  C
  C304     1.0000 0.98777  0.07660  0.18860  Biso   1.000  C
  C305     1.0000 0.51500  0.43500  0.68790  Biso   1.000  C
  C306     1.0000 0.48500  0.43500  0.81210  Biso   1.000  C
  C307     1.0000 0.01500  0.93500  0.68790  Biso   1.000  C
  C308     1.0000 0.98500  0.93500  0.81210  Biso   1.000  C
  C309     1.0000 0.48500  0.56500  0.31210  Biso   1.000  C
  C310     1.0000 0.51500  0.56500  0.18790  Biso   1.000  C
  C311     1.0000 0.98500  0.06500  0.31210  Biso   1.000  C
  C312     1.0000 0.01500  0.06500  0.18790  Biso   1.000  C
  H209     1.0000 0.49040  0.29920  0.86360  Biso   1.000  H
  H210     1.0000 0.50960  0.29920  0.63640  Biso   1.000  H
  H211     1.0000 0.99040  0.79920  0.86360  Biso   1.000  H
  H212     1.0000 0.00960  0.79920  0.63640  Biso   1.000  H
  H213     1.0000 0.50960  0.70080  0.13640  Biso   1.000  H
  H214     1.0000 0.49040  0.70080  0.36360  Biso   1.000  H
  H215     1.0000 0.00960  0.20080  0.13640  Biso   1.000  H
  H216     1.0000 0.99040  0.20080  0.36360  Biso   1.000  H
  H217     1.0000 0.48710  0.45500  0.64410  Biso   1.000  H
  H218     1.0000 0.51290  0.45500  0.85590  Biso   1.000  H
  H219     1.0000 0.98710  0.95500  0.64410  Biso   1.000  H
  H220     1.0000 0.01290  0.95500  0.85590  Biso   1.000  H
  H221     1.0000 0.51290  0.54500  0.35590  Biso   1.000  H
  H222     1.0000 0.48710  0.54500  0.14410  Biso   1.000  H
  H223     1.0000 0.01290  0.04500  0.35590  Biso   1.000  H
  H224     1.0000 0.98710  0.04500  0.14410  Biso   1.000  H
  H225     1.0000 0.51760  0.47460  0.64810  Biso   1.000  H
  H226     1.0000 0.48240  0.47460  0.85190  Biso   1.000  H
  H227     1.0000 0.01760  0.97460  0.64810  Biso   1.000  H
  H228     1.0000 0.98240  0.97460  0.85190  Biso   1.000  H
  H229     1.0000 0.48240  0.52540  0.35190  Biso   1.000  H
  H230     1.0000 0.51760  0.52540  0.14810  Biso   1.000  H
  H231     1.0000 0.98240  0.02540  0.35190  Biso   1.000  H
  H232     1.0000 0.01760  0.02540  0.14810  Biso   1.000  H
  N41      1.0000 0.46700  0.33120  0.99180  Biso   1.000  N
  N42      1.0000 0.53300  0.33120  0.50820  Biso   1.000  N
  N43      1.0000 0.96700  0.83120  0.99180  Biso   1.000  N
  N44      1.0000 0.03300  0.83120  0.50820  Biso   1.000  N
  N45      1.0000 0.53300  0.66880  0.00820  Biso   1.000  N
  N46      1.0000 0.46700  0.66880  0.49180  Biso   1.000  N
  N47      1.0000 0.03300  0.16880  0.00820  Biso   1.000  N
  N48      1.0000 0.96700  0.16880  0.49180  Biso   1.000  N
  O65      1.0000 0.49820  0.28980  0.99990  Biso   1.000  O
  O66      1.0000 0.50180  0.28980  0.50010  Biso   1.000  O
  O67      1.0000 0.99820  0.78980  0.99990  Biso   1.000  O
  O68      1.0000 0.00180  0.78980  0.50010  Biso   1.000  O
  O69      1.0000 0.50180  0.71020  0.00010  Biso   1.000  O
  O70      1.0000 0.49820  0.71020  0.49990  Biso   1.000  O
  O71      1.0000 0.00180  0.21020  0.00010  Biso   1.000  O
  O72      1.0000 0.99820  0.21020  0.49990  Biso   1.000  O
  O73      1.0000 0.43370  0.34050  0.95340  Biso   1.000  O
  O74      1.0000 0.56630  0.34050  0.54660  Biso   1.000  O
  O75      1.0000 0.93370  0.84050  0.95340  Biso   1.000  O
  O76      1.0000 0.06630  0.84050  0.54660  Biso   1.000  O
  O77      1.0000 0.56630  0.65950  0.04660  Biso   1.000  O
  O78      1.0000 0.43370  0.65950  0.45340  Biso   1.000  O
  O79      1.0000 0.06630  0.15950  0.04660  Biso   1.000  O
  O80      1.0000 0.93370  0.15950  0.45340  Biso   1.000  O
  O81      1.0000 0.48110  0.36410  0.06890  Biso   1.000  O
  O82      1.0000 0.51890  0.36410  0.43110  Biso   1.000  O
  O83      1.0000 0.98110  0.86410  0.06890  Biso   1.000  O
  O84      1.0000 0.01890  0.86410  0.43110  Biso   1.000  O
  O85      1.0000 0.51890  0.63590  0.93110  Biso   1.000  O
  O86      1.0000 0.48110  0.63590  0.56890  Biso   1.000  O
  O87      1.0000 0.01890  0.13590  0.93110  Biso   1.000  O
  O88      1.0000 0.98110  0.13590  0.56890  Biso   1.000  O
  O89      1.0000 0.74570  0.49200  0.67560  Biso   1.000  O
  O90      1.0000 0.25430  0.49200  0.82440  Biso   1.000  O
  O91      1.0000 0.24570  0.99200  0.67560  Biso   1.000  O
  O92      1.0000 0.75430  0.99200  0.82440  Biso   1.000  O
  O93      1.0000 0.25430  0.50800  0.32440  Biso   1.000  O
  O94      1.0000 0.74570  0.50800  0.17560  Biso   1.000  O
  O95      1.0000 0.75430  0.00800  0.32440  Biso   1.000  O
  O96      1.0000 0.24570  0.00800  0.17560  Biso   1.000  O
  O97      1.0000 0.74160  0.59180  0.76510  Biso   1.000  O
  O98      1.0000 0.25840  0.59180  0.73490  Biso   1.000  O
  O99      1.0000 0.24160  0.09180  0.76510  Biso   1.000  O
  O100     1.0000 0.75840  0.09180  0.73490  Biso   1.000  O
  O101     1.0000 0.25840  0.40820  0.23490  Biso   1.000  O
  O102     1.0000 0.74160  0.40820  0.26510  Biso   1.000  O
  O103     1.0000 0.75840  0.90820  0.23490  Biso   1.000  O
  O104     1.0000 0.24160  0.90820  0.26510  Biso   1.000  O
  O105     1.0000 0.52900  0.62910  0.69170  Biso   1.000  O
  O106     1.0000 0.47100  0.62910  0.80830  Biso   1.000  O
  O107     1.0000 0.02900  0.12910  0.69170  Biso   1.000  O
  O108     1.0000 0.97100  0.12910  0.80830  Biso   1.000  O
  O109     1.0000 0.47100  0.37090  0.30830  Biso   1.000  O
  O110     1.0000 0.52900  0.37090  0.19170  Biso   1.000  O
  O111     1.0000 0.97100  0.87090  0.30830  Biso   1.000  O
  O112     1.0000 0.02900  0.87090  0.19170  Biso   1.000  O
  O113     1.0000 0.58170  0.60270  0.79600  Biso   1.000  O
  O114     1.0000 0.41830  0.60270  0.70400  Biso   1.000  O
  O115     1.0000 0.08170  0.10270  0.79600  Biso   1.000  O
  O116     1.0000 0.91830  0.10270  0.70400  Biso   1.000  O
  O117     1.0000 0.41830  0.39730  0.20400  Biso   1.000  O
  O118     1.0000 0.58170  0.39730  0.29600  Biso   1.000  O
  O119     1.0000 0.91830  0.89730  0.20400  Biso   1.000  O
  O120     1.0000 0.08170  0.89730  0.29600  Biso   1.000  O
  N49      1.0000 0.61295  0.56410  0.56870  Biso   1.000  N
  N50      1.0000 0.38705  0.56410  0.93130  Biso   1.000  N
  N51      1.0000 0.11295  0.06410  0.56870  Biso   1.000  N
  N52      1.0000 0.88705  0.06410  0.93130  Biso   1.000  N
  N53      1.0000 0.38705  0.43590  0.43130  Biso   1.000  N
  N54      1.0000 0.61295  0.43590  0.06870  Biso   1.000  N
  N55      1.0000 0.88705  0.93590  0.43130  Biso   1.000  N
  N56      1.0000 0.11295  0.93590  0.06870  Biso   1.000  N
  C313     1.0000 0.58409  0.58380  0.61110  Biso   1.000  C
  C314     1.0000 0.41591  0.58380  0.88890  Biso   1.000  C
  C315     1.0000 0.08409  0.08380  0.61110  Biso   1.000  C
  C316     1.0000 0.91591  0.08380  0.88890  Biso   1.000  C
  C317     1.0000 0.41591  0.41620  0.38890  Biso   1.000  C
  C318     1.0000 0.58409  0.41620  0.11110  Biso   1.000  C
  C319     1.0000 0.91591  0.91620  0.38890  Biso   1.000  C
  C320     1.0000 0.08409  0.91620  0.11110  Biso   1.000  C
  H233     1.0000 0.55280  0.59160  0.58910  Biso   1.000  H
  H234     1.0000 0.44720  0.59160  0.91090  Biso   1.000  H
  H235     1.0000 0.05280  0.09160  0.58910  Biso   1.000  H
  H236     1.0000 0.94720  0.09160  0.91090  Biso   1.000  H
  H237     1.0000 0.44720  0.40840  0.41090  Biso   1.000  H
  H238     1.0000 0.55280  0.40840  0.08910  Biso   1.000  H
  H239     1.0000 0.94720  0.90840  0.41090  Biso   1.000  H
  H240     1.0000 0.05280  0.90840  0.08910  Biso   1.000  H
  C321     1.0000 0.60109  0.59210  0.68560  Biso   1.000  C
  C322     1.0000 0.39891  0.59210  0.81440  Biso   1.000  C
  C323     1.0000 0.10109  0.09210  0.68560  Biso   1.000  C
  C324     1.0000 0.89891  0.09210  0.81440  Biso   1.000  C
  C325     1.0000 0.39891  0.40790  0.31440  Biso   1.000  C
  C326     1.0000 0.60109  0.40790  0.18560  Biso   1.000  C
  C327     1.0000 0.89891  0.90790  0.31440  Biso   1.000  C
  C328     1.0000 0.10109  0.90790  0.18560  Biso   1.000  C
  C329     1.0000 0.64694  0.58070  0.71780  Biso   1.000  C
  C330     1.0000 0.35306  0.58070  0.78220  Biso   1.000  C
  C331     1.0000 0.14694  0.08070  0.71780  Biso   1.000  C
  C332     1.0000 0.85306  0.08070  0.78220  Biso   1.000  C
  C333     1.0000 0.35306  0.41930  0.28220  Biso   1.000  C
  C334     1.0000 0.64694  0.41930  0.21780  Biso   1.000  C
  C335     1.0000 0.85306  0.91930  0.28220  Biso   1.000  C
  C336     1.0000 0.14694  0.91930  0.21780  Biso   1.000  C
  H241     1.0000 0.65860  0.58640  0.76880  Biso   1.000  H
  H242     1.0000 0.34140  0.58640  0.73120  Biso   1.000  H
  H243     1.0000 0.15860  0.08640  0.76880  Biso   1.000  H
  H244     1.0000 0.84140  0.08640  0.73120  Biso   1.000  H
  H245     1.0000 0.34140  0.41360  0.23120  Biso   1.000  H
  H246     1.0000 0.65860  0.41360  0.26880  Biso   1.000  H
  H247     1.0000 0.84140  0.91360  0.23120  Biso   1.000  H
  H248     1.0000 0.15860  0.91360  0.26880  Biso   1.000  H
  C337     1.0000 0.67580  0.56100  0.67550  Biso   1.000  C
  C338     1.0000 0.32420  0.56100  0.82450  Biso   1.000  C
  C339     1.0000 0.17580  0.06100  0.67550  Biso   1.000  C
  C340     1.0000 0.82420  0.06100  0.82450  Biso   1.000  C
  C341     1.0000 0.32420  0.43900  0.32450  Biso   1.000  C
  C342     1.0000 0.67580  0.43900  0.17550  Biso   1.000  C
  C343     1.0000 0.82420  0.93900  0.32450  Biso   1.000  C
  C344     1.0000 0.17580  0.93900  0.17550  Biso   1.000  C
  C345     1.0000 0.65881  0.55270  0.60090  Biso   1.000  C
  C346     1.0000 0.34119  0.55270  0.89910  Biso   1.000  C
  C347     1.0000 0.15881  0.05270  0.60090  Biso   1.000  C
  C348     1.0000 0.84119  0.05270  0.89910  Biso   1.000  C
  C349     1.0000 0.34119  0.44730  0.39910  Biso   1.000  C
  C350     1.0000 0.65881  0.44730  0.10090  Biso   1.000  C
  C351     1.0000 0.84119  0.94730  0.39910  Biso   1.000  C
  C352     1.0000 0.15881  0.94730  0.10090  Biso   1.000  C
  H249     1.0000 0.67850  0.53920  0.57200  Biso   1.000  H
  H250     1.0000 0.32150  0.53920  0.92800  Biso   1.000  H
  H251     1.0000 0.17850  0.03920  0.57200  Biso   1.000  H
  H252     1.0000 0.82150  0.03920  0.92800  Biso   1.000  H
  H253     1.0000 0.32150  0.46080  0.42800  Biso   1.000  H
  H254     1.0000 0.67850  0.46080  0.07200  Biso   1.000  H
  H255     1.0000 0.82150  0.96080  0.42800  Biso   1.000  H
  H256     1.0000 0.17850  0.96080  0.07200  Biso   1.000  H
  C353     1.0000 0.72520  0.54580  0.70820  Biso   1.000  C
  C354     1.0000 0.27480  0.54580  0.79180  Biso   1.000  C
  C355     1.0000 0.22520  0.04580  0.70820  Biso   1.000  C
  C356     1.0000 0.77480  0.04580  0.79180  Biso   1.000  C
  C357     1.0000 0.27480  0.45420  0.29180  Biso   1.000  C
  C358     1.0000 0.72520  0.45420  0.20820  Biso   1.000  C
  C359     1.0000 0.77480  0.95420  0.29180  Biso   1.000  C
  C360     1.0000 0.22520  0.95420  0.20820  Biso   1.000  C
  C361     1.0000 0.56810  0.60840  0.72910  Biso   1.000  C
  C362     1.0000 0.43190  0.60840  0.77090  Biso   1.000  C
  C363     1.0000 0.06810  0.10840  0.72910  Biso   1.000  C
  C364     1.0000 0.93190  0.10840  0.77090  Biso   1.000  C
  C365     1.0000 0.43190  0.39160  0.27090  Biso   1.000  C
  C366     1.0000 0.56810  0.39160  0.22910  Biso   1.000  C
  C367     1.0000 0.93190  0.89160  0.27090  Biso   1.000  C
  C368     1.0000 0.06810  0.89160  0.22910  Biso   1.000  C
  O121     1.0000 0.48230  0.42260  0.98420  Biso   1.000  O
  O122     1.0000 0.51770  0.42260  0.51580  Biso   1.000  O
  O123     1.0000 0.98230  0.92260  0.98420  Biso   1.000  O
  O124     1.0000 0.01770  0.92260  0.51580  Biso   1.000  O
  O125     1.0000 0.51770  0.57740  0.01580  Biso   1.000  O
  O126     1.0000 0.48230  0.57740  0.48420  Biso   1.000  O
  O127     1.0000 0.01770  0.07740  0.01580  Biso   1.000  O
  O128     1.0000 0.98230  0.07740  0.48420  Biso   1.000  O
  O129     1.0000 0.43900  0.26350  0.01820  Biso   1.000  O
  O130     1.0000 0.56100  0.26350  0.48180  Biso   1.000  O
  O131     1.0000 0.93900  0.76350  0.01820  Biso   1.000  O
  O132     1.0000 0.06100  0.76350  0.48180  Biso   1.000  O
  O133     1.0000 0.56100  0.73650  0.98180  Biso   1.000  O
  O134     1.0000 0.43900  0.73650  0.51820  Biso   1.000  O
  O135     1.0000 0.06100  0.23650  0.98180  Biso   1.000  O
  O136     1.0000 0.93900  0.23650  0.51820  Biso   1.000  O
  O137     1.0000 0.43303  0.32580  0.90820  Biso   1.000  O
  O138     1.0000 0.56697  0.32580  0.59180  Biso   1.000  O
  O139     1.0000 0.93303  0.82580  0.90820  Biso   1.000  O
  O140     1.0000 0.06697  0.82580  0.59180  Biso   1.000  O
  O141     1.0000 0.56697  0.67420  0.09180  Biso   1.000  O
  O142     1.0000 0.43303  0.67420  0.40820  Biso   1.000  O
  O143     1.0000 0.06697  0.17420  0.09180  Biso   1.000  O
  O144     1.0000 0.93303  0.17420  0.40820  Biso   1.000  O
