data_image0
_cell_length_a       28.9058
_cell_length_b       28.9058
_cell_length_c       28.9058
_cell_angle_alpha    90
_cell_angle_beta     90
_cell_angle_gamma    90

_symmetry_space_group_name_H-M    "P 1"
_symmetry_int_tables_number       1

loop_
  _symmetry_equiv_pos_as_xyz
  'x, y, z'

loop_
  _atom_site_label
  _atom_site_occupancy
  _atom_site_fract_x
  _atom_site_fract_y
  _atom_site_fract_z
  _atom_site_thermal_displace_type
  _atom_site_B_iso_or_equiv
  _atom_site_type_symbol
  Cu1      1.0000 0.50000  0.80544  0.50000  Biso   1.000  Cu
  Cu2      1.0000 0.19456  0.50000  0.50000  Biso   1.000  Cu
  Cu3      1.0000 0.50000  0.19456  0.50000  Biso   1.000  Cu
  Cu4      1.0000 0.80544  0.50000  0.50000  Biso   1.000  Cu
  Cu5      1.0000 0.50000  0.50000  0.80544  Biso   1.000  Cu
  Cu6      1.0000 0.50000  0.50000  0.19456  Biso   1.000  Cu
  Cu7      1.0000 0.00000  0.30544  0.00000  Biso   1.000  Cu
  Cu8      1.0000 0.69456  0.00000  0.00000  Biso   1.000  Cu
  Cu9      1.0000 0.00000  0.69456  0.00000  Biso   1.000  Cu
  Cu10     1.0000 0.30544  0.00000  0.00000  Biso   1.000  Cu
  Cu11     1.0000 0.00000  0.00000  0.30544  Biso   1.000  Cu
  Cu12     1.0000 0.00000  0.00000  0.69456  Biso   1.000  Cu
  O1       1.0000 0.50000  0.72200  0.50000  Biso   1.000  O
  O2       1.0000 0.27800  0.50000  0.50000  Biso   1.000  O
  O3       1.0000 0.50000  0.27800  0.50000  Biso   1.000  O
  O4       1.0000 0.72200  0.50000  0.50000  Biso   1.000  O
  O5       1.0000 0.50000  0.50000  0.72200  Biso   1.000  O
  O6       1.0000 0.50000  0.50000  0.27800  Biso   1.000  O
  O7       1.0000 0.00000  0.22200  0.00000  Biso   1.000  O
  O8       1.0000 0.77800  0.00000  0.00000  Biso   1.000  O
  O9       1.0000 0.00000  0.77800  0.00000  Biso   1.000  O
  O10      1.0000 0.22200  0.00000  0.00000  Biso   1.000  O
  O11      1.0000 0.00000  0.00000  0.22200  Biso   1.000  O
  O12      1.0000 0.00000  0.00000  0.77800  Biso   1.000  O
  O13      1.0000 0.35850  0.92010  0.54720  Biso   1.000  O
  O14      1.0000 0.07990  0.35850  0.54720  Biso   1.000  O
  O15      1.0000 0.64150  0.07990  0.54720  Biso   1.000  O
  O16      1.0000 0.92010  0.64150  0.54720  Biso   1.000  O
  O17      1.0000 0.35850  0.07990  0.45280  Biso   1.000  O
  O18      1.0000 0.92010  0.35850  0.45280  Biso   1.000  O
  O19      1.0000 0.64150  0.92010  0.45280  Biso   1.000  O
  O20      1.0000 0.07990  0.64150  0.45280  Biso   1.000  O
  O21      1.0000 0.54720  0.35850  0.92010  Biso   1.000  O
  O22      1.0000 0.64150  0.54720  0.92010  Biso   1.000  O
  O23      1.0000 0.45280  0.64150  0.92010  Biso   1.000  O
  O24      1.0000 0.35850  0.45280  0.92010  Biso   1.000  O
  O25      1.0000 0.54720  0.64150  0.07990  Biso   1.000  O
  O26      1.0000 0.35850  0.54720  0.07990  Biso   1.000  O
  O27      1.0000 0.45280  0.35850  0.07990  Biso   1.000  O
  O28      1.0000 0.64150  0.45280  0.07990  Biso   1.000  O
  O29      1.0000 0.92010  0.54720  0.35850  Biso   1.000  O
  O30      1.0000 0.45280  0.07990  0.64150  Biso   1.000  O
  O31      1.0000 0.45280  0.92010  0.35850  Biso   1.000  O
  O32      1.0000 0.54720  0.92010  0.64150  Biso   1.000  O
  O33      1.0000 0.54720  0.07990  0.35850  Biso   1.000  O
  O34      1.0000 0.92010  0.45280  0.64150  Biso   1.000  O
  O35      1.0000 0.07990  0.45280  0.35850  Biso   1.000  O
  O36      1.0000 0.07990  0.54720  0.64150  Biso   1.000  O
  O37      1.0000 0.85850  0.42010  0.04720  Biso   1.000  O
  O38      1.0000 0.57990  0.85850  0.04720  Biso   1.000  O
  O39      1.0000 0.14150  0.57990  0.04720  Biso   1.000  O
  O40      1.0000 0.42010  0.14150  0.04720  Biso   1.000  O
  O41      1.0000 0.85850  0.57990  0.95280  Biso   1.000  O
  O42      1.0000 0.42010  0.85850  0.95280  Biso   1.000  O
  O43      1.0000 0.14150  0.42010  0.95280  Biso   1.000  O
  O44      1.0000 0.57990  0.14150  0.95280  Biso   1.000  O
  O45      1.0000 0.04720  0.85850  0.42010  Biso   1.000  O
  O46      1.0000 0.14150  0.04720  0.42010  Biso   1.000  O
  O47      1.0000 0.95280  0.14150  0.42010  Biso   1.000  O
  O48      1.0000 0.85850  0.95280  0.42010  Biso   1.000  O
  O49      1.0000 0.04720  0.14150  0.57990  Biso   1.000  O
  O50      1.0000 0.85850  0.04720  0.57990  Biso   1.000  O
  O51      1.0000 0.95280  0.85850  0.57990  Biso   1.000  O
  O52      1.0000 0.14150  0.95280  0.57990  Biso   1.000  O
  O53      1.0000 0.42010  0.04720  0.85850  Biso   1.000  O
  O54      1.0000 0.95280  0.57990  0.14150  Biso   1.000  O
  O55      1.0000 0.95280  0.42010  0.85850  Biso   1.000  O
  O56      1.0000 0.04720  0.42010  0.14150  Biso   1.000  O
  O57      1.0000 0.04720  0.57990  0.85850  Biso   1.000  O
  O58      1.0000 0.42010  0.95280  0.14150  Biso   1.000  O
  O59      1.0000 0.57990  0.95280  0.85850  Biso   1.000  O
  O60      1.0000 0.57990  0.04720  0.14150  Biso   1.000  O
  N1       1.0000 0.42940  0.80700  0.49600  Biso   1.000  N
  N2       1.0000 0.19300  0.42940  0.49600  Biso   1.000  N
  N3       1.0000 0.57060  0.19300  0.49600  Biso   1.000  N
  N4       1.0000 0.80700  0.57060  0.49600  Biso   1.000  N
  N5       1.0000 0.42940  0.19300  0.50400  Biso   1.000  N
  N6       1.0000 0.80700  0.42940  0.50400  Biso   1.000  N
  N7       1.0000 0.57060  0.80700  0.50400  Biso   1.000  N
  N8       1.0000 0.19300  0.57060  0.50400  Biso   1.000  N
  N9       1.0000 0.49600  0.42940  0.80700  Biso   1.000  N
  N10      1.0000 0.57060  0.49600  0.80700  Biso   1.000  N
  N11      1.0000 0.50400  0.57060  0.80700  Biso   1.000  N
  N12      1.0000 0.42940  0.50400  0.80700  Biso   1.000  N
  N13      1.0000 0.49600  0.57060  0.19300  Biso   1.000  N
  N14      1.0000 0.42940  0.49600  0.19300  Biso   1.000  N
  N15      1.0000 0.50400  0.42940  0.19300  Biso   1.000  N
  N16      1.0000 0.57060  0.50400  0.19300  Biso   1.000  N
  N17      1.0000 0.80700  0.49600  0.42940  Biso   1.000  N
  N18      1.0000 0.50400  0.19300  0.57060  Biso   1.000  N
  N19      1.0000 0.50400  0.80700  0.42940  Biso   1.000  N
  N20      1.0000 0.49600  0.80700  0.57060  Biso   1.000  N
  N21      1.0000 0.49600  0.19300  0.42940  Biso   1.000  N
  N22      1.0000 0.80700  0.50400  0.57060  Biso   1.000  N
  N23      1.0000 0.19300  0.50400  0.42940  Biso   1.000  N
  N24      1.0000 0.19300  0.49600  0.57060  Biso   1.000  N
  N25      1.0000 0.92940  0.30700  0.99600  Biso   1.000  N
  N26      1.0000 0.69300  0.92940  0.99600  Biso   1.000  N
  N27      1.0000 0.07060  0.69300  0.99600  Biso   1.000  N
  N28      1.0000 0.30700  0.07060  0.99600  Biso   1.000  N
  N29      1.0000 0.92940  0.69300  0.00400  Biso   1.000  N
  N30      1.0000 0.30700  0.92940  0.00400  Biso   1.000  N
  N31      1.0000 0.07060  0.30700  0.00400  Biso   1.000  N
  N32      1.0000 0.69300  0.07060  0.00400  Biso   1.000  N
  N33      1.0000 0.99600  0.92940  0.30700  Biso   1.000  N
  N34      1.0000 0.07060  0.99600  0.30700  Biso   1.000  N
  N35      1.0000 0.00400  0.07060  0.30700  Biso   1.000  N
  N36      1.0000 0.92940  0.00400  0.30700  Biso   1.000  N
  N37      1.0000 0.99600  0.07060  0.69300  Biso   1.000  N
  N38      1.0000 0.92940  0.99600  0.69300  Biso   1.000  N
  N39      1.0000 0.00400  0.92940  0.69300  Biso   1.000  N
  N40      1.0000 0.07060  0.00400  0.69300  Biso   1.000  N
  N41      1.0000 0.30700  0.99600  0.92940  Biso   1.000  N
  N42      1.0000 0.00400  0.69300  0.07060  Biso   1.000  N
  N43      1.0000 0.00400  0.30700  0.92940  Biso   1.000  N
  N44      1.0000 0.99600  0.30700  0.07060  Biso   1.000  N
  N45      1.0000 0.99600  0.69300  0.92940  Biso   1.000  N
  N46      1.0000 0.30700  0.00400  0.07060  Biso   1.000  N
  N47      1.0000 0.69300  0.00400  0.92940  Biso   1.000  N
  N48      1.0000 0.69300  0.99600  0.07060  Biso   1.000  N
  N49      1.0000 0.29390  0.87660  0.55840  Biso   1.000  N
  N50      1.0000 0.12340  0.29390  0.55840  Biso   1.000  N
  N51      1.0000 0.70610  0.12340  0.55840  Biso   1.000  N
  N52      1.0000 0.87660  0.70610  0.55840  Biso   1.000  N
  N53      1.0000 0.29390  0.12340  0.44160  Biso   1.000  N
  N54      1.0000 0.87660  0.29390  0.44160  Biso   1.000  N
  N55      1.0000 0.70610  0.87660  0.44160  Biso   1.000  N
  N56      1.0000 0.12340  0.70610  0.44160  Biso   1.000  N
  N57      1.0000 0.55840  0.29390  0.87660  Biso   1.000  N
  N58      1.0000 0.70610  0.55840  0.87660  Biso   1.000  N
  N59      1.0000 0.44160  0.70610  0.87660  Biso   1.000  N
  N60      1.0000 0.29390  0.44160  0.87660  Biso   1.000  N
  N61      1.0000 0.55840  0.70610  0.12340  Biso   1.000  N
  N62      1.0000 0.29390  0.55840  0.12340  Biso   1.000  N
  N63      1.0000 0.44160  0.29390  0.12340  Biso   1.000  N
  N64      1.0000 0.70610  0.44160  0.12340  Biso   1.000  N
  N65      1.0000 0.87660  0.55840  0.29390  Biso   1.000  N
  N66      1.0000 0.44160  0.12340  0.70610  Biso   1.000  N
  N67      1.0000 0.44160  0.87660  0.29390  Biso   1.000  N
  N68      1.0000 0.55840  0.87660  0.70610  Biso   1.000  N
  N69      1.0000 0.55840  0.12340  0.29390  Biso   1.000  N
  N70      1.0000 0.87660  0.44160  0.70610  Biso   1.000  N
  N71      1.0000 0.12340  0.44160  0.29390  Biso   1.000  N
  N72      1.0000 0.12340  0.55840  0.70610  Biso   1.000  N
  N73      1.0000 0.79390  0.37660  0.05840  Biso   1.000  N
  N74      1.0000 0.62340  0.79390  0.05840  Biso   1.000  N
  N75      1.0000 0.20610  0.62340  0.05840  Biso   1.000  N
  N76      1.0000 0.37660  0.20610  0.05840  Biso   1.000  N
  N77      1.0000 0.79390  0.62340  0.94160  Biso   1.000  N
  N78      1.0000 0.37660  0.79390  0.94160  Biso   1.000  N
  N79      1.0000 0.20610  0.37660  0.94160  Biso   1.000  N
  N80      1.0000 0.62340  0.20610  0.94160  Biso   1.000  N
  N81      1.0000 0.05840  0.79390  0.37660  Biso   1.000  N
  N82      1.0000 0.20610  0.05840  0.37660  Biso   1.000  N
  N83      1.0000 0.94160  0.20610  0.37660  Biso   1.000  N
  N84      1.0000 0.79390  0.94160  0.37660  Biso   1.000  N
  N85      1.0000 0.05840  0.20610  0.62340  Biso   1.000  N
  N86      1.0000 0.79390  0.05840  0.62340  Biso   1.000  N
  N87      1.0000 0.94160  0.79390  0.62340  Biso   1.000  N
  N88      1.0000 0.20610  0.94160  0.62340  Biso   1.000  N
  N89      1.0000 0.37660  0.05840  0.79390  Biso   1.000  N
  N90      1.0000 0.94160  0.62340  0.20610  Biso   1.000  N
  N91      1.0000 0.94160  0.37660  0.79390  Biso   1.000  N
  N92      1.0000 0.05840  0.37660  0.20610  Biso   1.000  N
  N93      1.0000 0.05840  0.62340  0.79390  Biso   1.000  N
  N94      1.0000 0.37660  0.94160  0.20610  Biso   1.000  N
  N95      1.0000 0.62340  0.94160  0.79390  Biso   1.000  N
  N96      1.0000 0.62340  0.05840  0.20610  Biso   1.000  N
  H1       1.0000 0.27810  0.85270  0.55040  Biso   1.000  H
  H2       1.0000 0.14730  0.27810  0.55040  Biso   1.000  H
  H3       1.0000 0.72190  0.14730  0.55040  Biso   1.000  H
  H4       1.0000 0.85270  0.72190  0.55040  Biso   1.000  H
  H5       1.0000 0.27810  0.14730  0.44960  Biso   1.000  H
  H6       1.0000 0.85270  0.27810  0.44960  Biso   1.000  H
  H7       1.0000 0.72190  0.85270  0.44960  Biso   1.000  H
  H8       1.0000 0.14730  0.72190  0.44960  Biso   1.000  H
  H9       1.0000 0.55040  0.27810  0.85270  Biso   1.000  H
  H10      1.0000 0.72190  0.55040  0.85270  Biso   1.000  H
  H11      1.0000 0.44960  0.72190  0.85270  Biso   1.000  H
  H12      1.0000 0.27810  0.44960  0.85270  Biso   1.000  H
  H13      1.0000 0.55040  0.72190  0.14730  Biso   1.000  H
  H14      1.0000 0.27810  0.55040  0.14730  Biso   1.000  H
  H15      1.0000 0.44960  0.27810  0.14730  Biso   1.000  H
  H16      1.0000 0.72190  0.44960  0.14730  Biso   1.000  H
  H17      1.0000 0.85270  0.55040  0.27810  Biso   1.000  H
  H18      1.0000 0.44960  0.14730  0.72190  Biso   1.000  H
  H19      1.0000 0.44960  0.85270  0.27810  Biso   1.000  H
  H20      1.0000 0.55040  0.85270  0.72190  Biso   1.000  H
  H21      1.0000 0.55040  0.14730  0.27810  Biso   1.000  H
  H22      1.0000 0.85270  0.44960  0.72190  Biso   1.000  H
  H23      1.0000 0.14730  0.44960  0.27810  Biso   1.000  H
  H24      1.0000 0.14730  0.55040  0.72190  Biso   1.000  H
  H25      1.0000 0.77810  0.35270  0.05040  Biso   1.000  H
  H26      1.0000 0.64730  0.77810  0.05040  Biso   1.000  H
  H27      1.0000 0.22190  0.64730  0.05040  Biso   1.000  H
  H28      1.0000 0.35270  0.22190  0.05040  Biso   1.000  H
  H29      1.0000 0.77810  0.64730  0.94960  Biso   1.000  H
  H30      1.0000 0.35270  0.77810  0.94960  Biso   1.000  H
  H31      1.0000 0.22190  0.35270  0.94960  Biso   1.000  H
  H32      1.0000 0.64730  0.22190  0.94960  Biso   1.000  H
  H33      1.0000 0.05040  0.77810  0.35270  Biso   1.000  H
  H34      1.0000 0.22190  0.05040  0.35270  Biso   1.000  H
  H35      1.0000 0.94960  0.22190  0.35270  Biso   1.000  H
  H36      1.0000 0.77810  0.94960  0.35270  Biso   1.000  H
  H37      1.0000 0.05040  0.22190  0.64730  Biso   1.000  H
  H38      1.0000 0.77810  0.05040  0.64730  Biso   1.000  H
  H39      1.0000 0.94960  0.77810  0.64730  Biso   1.000  H
  H40      1.0000 0.22190  0.94960  0.64730  Biso   1.000  H
  H41      1.0000 0.35270  0.05040  0.77810  Biso   1.000  H
  H42      1.0000 0.94960  0.64730  0.22190  Biso   1.000  H
  H43      1.0000 0.94960  0.35270  0.77810  Biso   1.000  H
  H44      1.0000 0.05040  0.35270  0.22190  Biso   1.000  H
  H45      1.0000 0.05040  0.64730  0.77810  Biso   1.000  H
  H46      1.0000 0.35270  0.94960  0.22190  Biso   1.000  H
  H47      1.0000 0.64730  0.94960  0.77810  Biso   1.000  H
  H48      1.0000 0.64730  0.05040  0.22190  Biso   1.000  H
  C1       1.0000 0.40560  0.77540  0.47230  Biso   1.000  C
  C2       1.0000 0.22460  0.40560  0.47230  Biso   1.000  C
  C3       1.0000 0.59440  0.22460  0.47230  Biso   1.000  C
  C4       1.0000 0.77540  0.59440  0.47230  Biso   1.000  C
  C5       1.0000 0.40560  0.22460  0.52770  Biso   1.000  C
  C6       1.0000 0.77540  0.40560  0.52770  Biso   1.000  C
  C7       1.0000 0.59440  0.77540  0.52770  Biso   1.000  C
  C8       1.0000 0.22460  0.59440  0.52770  Biso   1.000  C
  C9       1.0000 0.47230  0.40560  0.77540  Biso   1.000  C
  C10      1.0000 0.59440  0.47230  0.77540  Biso   1.000  C
  C11      1.0000 0.52770  0.59440  0.77540  Biso   1.000  C
  C12      1.0000 0.40560  0.52770  0.77540  Biso   1.000  C
  C13      1.0000 0.47230  0.59440  0.22460  Biso   1.000  C
  C14      1.0000 0.40560  0.47230  0.22460  Biso   1.000  C
  C15      1.0000 0.52770  0.40560  0.22460  Biso   1.000  C
  C16      1.0000 0.59440  0.52770  0.22460  Biso   1.000  C
  C17      1.0000 0.77540  0.47230  0.40560  Biso   1.000  C
  C18      1.0000 0.52770  0.22460  0.59440  Biso   1.000  C
  C19      1.0000 0.52770  0.77540  0.40560  Biso   1.000  C
  C20      1.0000 0.47230  0.77540  0.59440  Biso   1.000  C
  C21      1.0000 0.47230  0.22460  0.40560  Biso   1.000  C
  C22      1.0000 0.77540  0.52770  0.59440  Biso   1.000  C
  C23      1.0000 0.22460  0.52770  0.40560  Biso   1.000  C
  C24      1.0000 0.22460  0.47230  0.59440  Biso   1.000  C
  C25      1.0000 0.90560  0.27540  0.97230  Biso   1.000  C
  C26      1.0000 0.72460  0.90560  0.97230  Biso   1.000  C
  C27      1.0000 0.09440  0.72460  0.97230  Biso   1.000  C
  C28      1.0000 0.27540  0.09440  0.97230  Biso   1.000  C
  C29      1.0000 0.90560  0.72460  0.02770  Biso   1.000  C
  C30      1.0000 0.27540  0.90560  0.02770  Biso   1.000  C
  C31      1.0000 0.09440  0.27540  0.02770  Biso   1.000  C
  C32      1.0000 0.72460  0.09440  0.02770  Biso   1.000  C
  C33      1.0000 0.97230  0.90560  0.27540  Biso   1.000  C
  C34      1.0000 0.09440  0.97230  0.27540  Biso   1.000  C
  C35      1.0000 0.02770  0.09440  0.27540  Biso   1.000  C
  C36      1.0000 0.90560  0.02770  0.27540  Biso   1.000  C
  C37      1.0000 0.97230  0.09440  0.72460  Biso   1.000  C
  C38      1.0000 0.90560  0.97230  0.72460  Biso   1.000  C
  C39      1.0000 0.02770  0.90560  0.72460  Biso   1.000  C
  C40      1.0000 0.09440  0.02770  0.72460  Biso   1.000  C
  C41      1.0000 0.27540  0.97230  0.90560  Biso   1.000  C
  C42      1.0000 0.02770  0.72460  0.09440  Biso   1.000  C
  C43      1.0000 0.02770  0.27540  0.90560  Biso   1.000  C
  C44      1.0000 0.97230  0.27540  0.09440  Biso   1.000  C
  C45      1.0000 0.97230  0.72460  0.90560  Biso   1.000  C
  C46      1.0000 0.27540  0.02770  0.09440  Biso   1.000  C
  C47      1.0000 0.72460  0.02770  0.90560  Biso   1.000  C
  C48      1.0000 0.72460  0.97230  0.09440  Biso   1.000  C
  H49      1.0000 0.42150  0.75250  0.45620  Biso   1.000  H
  H50      1.0000 0.24750  0.42150  0.45620  Biso   1.000  H
  H51      1.0000 0.57850  0.24750  0.45620  Biso   1.000  H
  H52      1.0000 0.75250  0.57850  0.45620  Biso   1.000  H
  H53      1.0000 0.42150  0.24750  0.54380  Biso   1.000  H
  H54      1.0000 0.75250  0.42150  0.54380  Biso   1.000  H
  H55      1.0000 0.57850  0.75250  0.54380  Biso   1.000  H
  H56      1.0000 0.24750  0.57850  0.54380  Biso   1.000  H
  H57      1.0000 0.45620  0.42150  0.75250  Biso   1.000  H
  H58      1.0000 0.57850  0.45620  0.75250  Biso   1.000  H
  H59      1.0000 0.54380  0.57850  0.75250  Biso   1.000  H
  H60      1.0000 0.42150  0.54380  0.75250  Biso   1.000  H
  H61      1.0000 0.45620  0.57850  0.24750  Biso   1.000  H
  H62      1.0000 0.42150  0.45620  0.24750  Biso   1.000  H
  H63      1.0000 0.54380  0.42150  0.24750  Biso   1.000  H
  H64      1.0000 0.57850  0.54380  0.24750  Biso   1.000  H
  H65      1.0000 0.75250  0.45620  0.42150  Biso   1.000  H
  H66      1.0000 0.54380  0.24750  0.57850  Biso   1.000  H
  H67      1.0000 0.54380  0.75250  0.42150  Biso   1.000  H
  H68      1.0000 0.45620  0.75250  0.57850  Biso   1.000  H
  H69      1.0000 0.45620  0.24750  0.42150  Biso   1.000  H
  H70      1.0000 0.75250  0.54380  0.57850  Biso   1.000  H
  H71      1.0000 0.24750  0.54380  0.42150  Biso   1.000  H
  H72      1.0000 0.24750  0.45620  0.57850  Biso   1.000  H
  H73      1.0000 0.92150  0.25250  0.95620  Biso   1.000  H
  H74      1.0000 0.74750  0.92150  0.95620  Biso   1.000  H
  H75      1.0000 0.07850  0.74750  0.95620  Biso   1.000  H
  H76      1.0000 0.25250  0.07850  0.95620  Biso   1.000  H
  H77      1.0000 0.92150  0.74750  0.04380  Biso   1.000  H
  H78      1.0000 0.25250  0.92150  0.04380  Biso   1.000  H
  H79      1.0000 0.07850  0.25250  0.04380  Biso   1.000  H
  H80      1.0000 0.74750  0.07850  0.04380  Biso   1.000  H
  H81      1.0000 0.95620  0.92150  0.25250  Biso   1.000  H
  H82      1.0000 0.07850  0.95620  0.25250  Biso   1.000  H
  H83      1.0000 0.04380  0.07850  0.25250  Biso   1.000  H
  H84      1.0000 0.92150  0.04380  0.25250  Biso   1.000  H
  H85      1.0000 0.95620  0.07850  0.74750  Biso   1.000  H
  H86      1.0000 0.92150  0.95620  0.74750  Biso   1.000  H
  H87      1.0000 0.04380  0.92150  0.74750  Biso   1.000  H
  H88      1.0000 0.07850  0.04380  0.74750  Biso   1.000  H
  H89      1.0000 0.25250  0.95620  0.92150  Biso   1.000  H
  H90      1.0000 0.04380  0.74750  0.07850  Biso   1.000  H
  H91      1.0000 0.04380  0.25250  0.92150  Biso   1.000  H
  H92      1.0000 0.95620  0.25250  0.07850  Biso   1.000  H
  H93      1.0000 0.95620  0.74750  0.92150  Biso   1.000  H
  H94      1.0000 0.25250  0.04380  0.07850  Biso   1.000  H
  H95      1.0000 0.74750  0.04380  0.92150  Biso   1.000  H
  H96      1.0000 0.74750  0.95620  0.07850  Biso   1.000  H
  C49      1.0000 0.35760  0.77590  0.47100  Biso   1.000  C
  C50      1.0000 0.22410  0.35760  0.47100  Biso   1.000  C
  C51      1.0000 0.64240  0.22410  0.47100  Biso   1.000  C
  C52      1.0000 0.77590  0.64240  0.47100  Biso   1.000  C
  C53      1.0000 0.35760  0.22410  0.52900  Biso   1.000  C
  C54      1.0000 0.77590  0.35760  0.52900  Biso   1.000  C
  C55      1.0000 0.64240  0.77590  0.52900  Biso   1.000  C
  C56      1.0000 0.22410  0.64240  0.52900  Biso   1.000  C
  C57      1.0000 0.47100  0.35760  0.77590  Biso   1.000  C
  C58      1.0000 0.64240  0.47100  0.77590  Biso   1.000  C
  C59      1.0000 0.52900  0.64240  0.77590  Biso   1.000  C
  C60      1.0000 0.35760  0.52900  0.77590  Biso   1.000  C
  C61      1.0000 0.47100  0.64240  0.22410  Biso   1.000  C
  C62      1.0000 0.35760  0.47100  0.22410  Biso   1.000  C
  C63      1.0000 0.52900  0.35760  0.22410  Biso   1.000  C
  C64      1.0000 0.64240  0.52900  0.22410  Biso   1.000  C
  C65      1.0000 0.77590  0.47100  0.35760  Biso   1.000  C
  C66      1.0000 0.52900  0.22410  0.64240  Biso   1.000  C
  C67      1.0000 0.52900  0.77590  0.35760  Biso   1.000  C
  C68      1.0000 0.47100  0.77590  0.64240  Biso   1.000  C
  C69      1.0000 0.47100  0.22410  0.35760  Biso   1.000  C
  C70      1.0000 0.77590  0.52900  0.64240  Biso   1.000  C
  C71      1.0000 0.22410  0.52900  0.35760  Biso   1.000  C
  C72      1.0000 0.22410  0.47100  0.64240  Biso   1.000  C
  C73      1.0000 0.85760  0.27590  0.97100  Biso   1.000  C
  C74      1.0000 0.72410  0.85760  0.97100  Biso   1.000  C
  C75      1.0000 0.14240  0.72410  0.97100  Biso   1.000  C
  C76      1.0000 0.27590  0.14240  0.97100  Biso   1.000  C
  C77      1.0000 0.85760  0.72410  0.02900  Biso   1.000  C
  C78      1.0000 0.27590  0.85760  0.02900  Biso   1.000  C
  C79      1.0000 0.14240  0.27590  0.02900  Biso   1.000  C
  C80      1.0000 0.72410  0.14240  0.02900  Biso   1.000  C
  C81      1.0000 0.97100  0.85760  0.27590  Biso   1.000  C
  C82      1.0000 0.14240  0.97100  0.27590  Biso   1.000  C
  C83      1.0000 0.02900  0.14240  0.27590  Biso   1.000  C
  C84      1.0000 0.85760  0.02900  0.27590  Biso   1.000  C
  C85      1.0000 0.97100  0.14240  0.72410  Biso   1.000  C
  C86      1.0000 0.85760  0.97100  0.72410  Biso   1.000  C
  C87      1.0000 0.02900  0.85760  0.72410  Biso   1.000  C
  C88      1.0000 0.14240  0.02900  0.72410  Biso   1.000  C
  C89      1.0000 0.27590  0.97100  0.85760  Biso   1.000  C
  C90      1.0000 0.02900  0.72410  0.14240  Biso   1.000  C
  C91      1.0000 0.02900  0.27590  0.85760  Biso   1.000  C
  C92      1.0000 0.97100  0.27590  0.14240  Biso   1.000  C
  C93      1.0000 0.97100  0.72410  0.85760  Biso   1.000  C
  C94      1.0000 0.27590  0.02900  0.14240  Biso   1.000  C
  C95      1.0000 0.72410  0.02900  0.85760  Biso   1.000  C
  C96      1.0000 0.72410  0.97100  0.14240  Biso   1.000  C
  H97      1.0000 0.34180  0.75290  0.45500  Biso   1.000  H
  H98      1.0000 0.24710  0.34180  0.45500  Biso   1.000  H
  H99      1.0000 0.65820  0.24710  0.45500  Biso   1.000  H
  H100     1.0000 0.75290  0.65820  0.45500  Biso   1.000  H
  H101     1.0000 0.34180  0.24710  0.54500  Biso   1.000  H
  H102     1.0000 0.75290  0.34180  0.54500  Biso   1.000  H
  H103     1.0000 0.65820  0.75290  0.54500  Biso   1.000  H
  H104     1.0000 0.24710  0.65820  0.54500  Biso   1.000  H
  H105     1.0000 0.45500  0.34180  0.75290  Biso   1.000  H
  H106     1.0000 0.65820  0.45500  0.75290  Biso   1.000  H
  H107     1.0000 0.54500  0.65820  0.75290  Biso   1.000  H
  H108     1.0000 0.34180  0.54500  0.75290  Biso   1.000  H
  H109     1.0000 0.45500  0.65820  0.24710  Biso   1.000  H
  H110     1.0000 0.34180  0.45500  0.24710  Biso   1.000  H
  H111     1.0000 0.54500  0.34180  0.24710  Biso   1.000  H
  H112     1.0000 0.65820  0.54500  0.24710  Biso   1.000  H
  H113     1.0000 0.75290  0.45500  0.34180  Biso   1.000  H
  H114     1.0000 0.54500  0.24710  0.65820  Biso   1.000  H
  H115     1.0000 0.54500  0.75290  0.34180  Biso   1.000  H
  H116     1.0000 0.45500  0.75290  0.65820  Biso   1.000  H
  H117     1.0000 0.45500  0.24710  0.34180  Biso   1.000  H
  H118     1.0000 0.75290  0.54500  0.65820  Biso   1.000  H
  H119     1.0000 0.24710  0.54500  0.34180  Biso   1.000  H
  H120     1.0000 0.24710  0.45500  0.65820  Biso   1.000  H
  H121     1.0000 0.84180  0.25290  0.95500  Biso   1.000  H
  H122     1.0000 0.74710  0.84180  0.95500  Biso   1.000  H
  H123     1.0000 0.15820  0.74710  0.95500  Biso   1.000  H
  H124     1.0000 0.25290  0.15820  0.95500  Biso   1.000  H
  H125     1.0000 0.84180  0.74710  0.04500  Biso   1.000  H
  H126     1.0000 0.25290  0.84180  0.04500  Biso   1.000  H
  H127     1.0000 0.15820  0.25290  0.04500  Biso   1.000  H
  H128     1.0000 0.74710  0.15820  0.04500  Biso   1.000  H
  H129     1.0000 0.95500  0.84180  0.25290  Biso   1.000  H
  H130     1.0000 0.15820  0.95500  0.25290  Biso   1.000  H
  H131     1.0000 0.04500  0.15820  0.25290  Biso   1.000  H
  H132     1.0000 0.84180  0.04500  0.25290  Biso   1.000  H
  H133     1.0000 0.95500  0.15820  0.74710  Biso   1.000  H
  H134     1.0000 0.84180  0.95500  0.74710  Biso   1.000  H
  H135     1.0000 0.04500  0.84180  0.74710  Biso   1.000  H
  H136     1.0000 0.15820  0.04500  0.74710  Biso   1.000  H
  H137     1.0000 0.25290  0.95500  0.84180  Biso   1.000  H
  H138     1.0000 0.04500  0.74710  0.15820  Biso   1.000  H
  H139     1.0000 0.04500  0.25290  0.84180  Biso   1.000  H
  H140     1.0000 0.95500  0.25290  0.15820  Biso   1.000  H
  H141     1.0000 0.95500  0.74710  0.84180  Biso   1.000  H
  H142     1.0000 0.25290  0.04500  0.15820  Biso   1.000  H
  H143     1.0000 0.74710  0.04500  0.84180  Biso   1.000  H
  H144     1.0000 0.74710  0.95500  0.15820  Biso   1.000  H
  C97      1.0000 0.33400  0.80920  0.49270  Biso   1.000  C
  C98      1.0000 0.19080  0.33400  0.49270  Biso   1.000  C
  C99      1.0000 0.66600  0.19080  0.49270  Biso   1.000  C
  C100     1.0000 0.80920  0.66600  0.49270  Biso   1.000  C
  C101     1.0000 0.33400  0.19080  0.50730  Biso   1.000  C
  C102     1.0000 0.80920  0.33400  0.50730  Biso   1.000  C
  C103     1.0000 0.66600  0.80920  0.50730  Biso   1.000  C
  C104     1.0000 0.19080  0.66600  0.50730  Biso   1.000  C
  C105     1.0000 0.49270  0.33400  0.80920  Biso   1.000  C
  C106     1.0000 0.66600  0.49270  0.80920  Biso   1.000  C
  C107     1.0000 0.50730  0.66600  0.80920  Biso   1.000  C
  C108     1.0000 0.33400  0.50730  0.80920  Biso   1.000  C
  C109     1.0000 0.49270  0.66600  0.19080  Biso   1.000  C
  C110     1.0000 0.33400  0.49270  0.19080  Biso   1.000  C
  C111     1.0000 0.50730  0.33400  0.19080  Biso   1.000  C
  C112     1.0000 0.66600  0.50730  0.19080  Biso   1.000  C
  C113     1.0000 0.80920  0.49270  0.33400  Biso   1.000  C
  C114     1.0000 0.50730  0.19080  0.66600  Biso   1.000  C
  C115     1.0000 0.50730  0.80920  0.33400  Biso   1.000  C
  C116     1.0000 0.49270  0.80920  0.66600  Biso   1.000  C
  C117     1.0000 0.49270  0.19080  0.33400  Biso   1.000  C
  C118     1.0000 0.80920  0.50730  0.66600  Biso   1.000  C
  C119     1.0000 0.19080  0.50730  0.33400  Biso   1.000  C
  C120     1.0000 0.19080  0.49270  0.66600  Biso   1.000  C
  C121     1.0000 0.83400  0.30920  0.99270  Biso   1.000  C
  C122     1.0000 0.69080  0.83400  0.99270  Biso   1.000  C
  C123     1.0000 0.16600  0.69080  0.99270  Biso   1.000  C
  C124     1.0000 0.30920  0.16600  0.99270  Biso   1.000  C
  C125     1.0000 0.83400  0.69080  0.00730  Biso   1.000  C
  C126     1.0000 0.30920  0.83400  0.00730  Biso   1.000  C
  C127     1.0000 0.16600  0.30920  0.00730  Biso   1.000  C
  C128     1.0000 0.69080  0.16600  0.00730  Biso   1.000  C
  C129     1.0000 0.99270  0.83400  0.30920  Biso   1.000  C
  C130     1.0000 0.16600  0.99270  0.30920  Biso   1.000  C
  C131     1.0000 0.00730  0.16600  0.30920  Biso   1.000  C
  C132     1.0000 0.83400  0.00730  0.30920  Biso   1.000  C
  C133     1.0000 0.99270  0.16600  0.69080  Biso   1.000  C
  C134     1.0000 0.83400  0.99270  0.69080  Biso   1.000  C
  C135     1.0000 0.00730  0.83400  0.69080  Biso   1.000  C
  C136     1.0000 0.16600  0.00730  0.69080  Biso   1.000  C
  C137     1.0000 0.30920  0.99270  0.83400  Biso   1.000  C
  C138     1.0000 0.00730  0.69080  0.16600  Biso   1.000  C
  C139     1.0000 0.00730  0.30920  0.83400  Biso   1.000  C
  C140     1.0000 0.99270  0.30920  0.16600  Biso   1.000  C
  C141     1.0000 0.99270  0.69080  0.83400  Biso   1.000  C
  C142     1.0000 0.30920  0.00730  0.16600  Biso   1.000  C
  C143     1.0000 0.69080  0.00730  0.83400  Biso   1.000  C
  C144     1.0000 0.69080  0.99270  0.16600  Biso   1.000  C
  H145     1.0000 0.30190  0.80980  0.49170  Biso   1.000  H
  H146     1.0000 0.19020  0.30190  0.49170  Biso   1.000  H
  H147     1.0000 0.69810  0.19020  0.49170  Biso   1.000  H
  H148     1.0000 0.80980  0.69810  0.49170  Biso   1.000  H
  H149     1.0000 0.30190  0.19020  0.50830  Biso   1.000  H
  H150     1.0000 0.80980  0.30190  0.50830  Biso   1.000  H
  H151     1.0000 0.69810  0.80980  0.50830  Biso   1.000  H
  H152     1.0000 0.19020  0.69810  0.50830  Biso   1.000  H
  H153     1.0000 0.49170  0.30190  0.80980  Biso   1.000  H
  H154     1.0000 0.69810  0.49170  0.80980  Biso   1.000  H
  H155     1.0000 0.50830  0.69810  0.80980  Biso   1.000  H
  H156     1.0000 0.30190  0.50830  0.80980  Biso   1.000  H
  H157     1.0000 0.49170  0.69810  0.19020  Biso   1.000  H
  H158     1.0000 0.30190  0.49170  0.19020  Biso   1.000  H
  H159     1.0000 0.50830  0.30190  0.19020  Biso   1.000  H
  H160     1.0000 0.69810  0.50830  0.19020  Biso   1.000  H
  H161     1.0000 0.80980  0.49170  0.30190  Biso   1.000  H
  H162     1.0000 0.50830  0.19020  0.69810  Biso   1.000  H
  H163     1.0000 0.50830  0.80980  0.30190  Biso   1.000  H
  H164     1.0000 0.49170  0.80980  0.69810  Biso   1.000  H
  H165     1.0000 0.49170  0.19020  0.30190  Biso   1.000  H
  H166     1.0000 0.80980  0.50830  0.69810  Biso   1.000  H
  H167     1.0000 0.19020  0.50830  0.30190  Biso   1.000  H
  H168     1.0000 0.19020  0.49170  0.69810  Biso   1.000  H
  H169     1.0000 0.80190  0.30980  0.99170  Biso   1.000  H
  H170     1.0000 0.69020  0.80190  0.99170  Biso   1.000  H
  H171     1.0000 0.19810  0.69020  0.99170  Biso   1.000  H
  H172     1.0000 0.30980  0.19810  0.99170  Biso   1.000  H
  H173     1.0000 0.80190  0.69020  0.00830  Biso   1.000  H
  H174     1.0000 0.30980  0.80190  0.00830  Biso   1.000  H
  H175     1.0000 0.19810  0.30980  0.00830  Biso   1.000  H
  H176     1.0000 0.69020  0.19810  0.00830  Biso   1.000  H
  H177     1.0000 0.99170  0.80190  0.30980  Biso   1.000  H
  H178     1.0000 0.19810  0.99170  0.30980  Biso   1.000  H
  H179     1.0000 0.00830  0.19810  0.30980  Biso   1.000  H
  H180     1.0000 0.80190  0.00830  0.30980  Biso   1.000  H
  H181     1.0000 0.99170  0.19810  0.69020  Biso   1.000  H
  H182     1.0000 0.80190  0.99170  0.69020  Biso   1.000  H
  H183     1.0000 0.00830  0.80190  0.69020  Biso   1.000  H
  H184     1.0000 0.19810  0.00830  0.69020  Biso   1.000  H
  H185     1.0000 0.30980  0.99170  0.80190  Biso   1.000  H
  H186     1.0000 0.00830  0.69020  0.19810  Biso   1.000  H
  H187     1.0000 0.00830  0.30980  0.80190  Biso   1.000  H
  H188     1.0000 0.99170  0.30980  0.19810  Biso   1.000  H
  H189     1.0000 0.99170  0.69020  0.80190  Biso   1.000  H
  H190     1.0000 0.30980  0.00830  0.19810  Biso   1.000  H
  H191     1.0000 0.69020  0.00830  0.80190  Biso   1.000  H
  H192     1.0000 0.69020  0.99170  0.19810  Biso   1.000  H
  C145     1.0000 0.35850  0.84290  0.51680  Biso   1.000  C
  C146     1.0000 0.15710  0.35850  0.51680  Biso   1.000  C
  C147     1.0000 0.64150  0.15710  0.51680  Biso   1.000  C
  C148     1.0000 0.84290  0.64150  0.51680  Biso   1.000  C
  C149     1.0000 0.35850  0.15710  0.48320  Biso   1.000  C
  C150     1.0000 0.84290  0.35850  0.48320  Biso   1.000  C
  C151     1.0000 0.64150  0.84290  0.48320  Biso   1.000  C
  C152     1.0000 0.15710  0.64150  0.48320  Biso   1.000  C
  C153     1.0000 0.51680  0.35850  0.84290  Biso   1.000  C
  C154     1.0000 0.64150  0.51680  0.84290  Biso   1.000  C
  C155     1.0000 0.48320  0.64150  0.84290  Biso   1.000  C
  C156     1.0000 0.35850  0.48320  0.84290  Biso   1.000  C
  C157     1.0000 0.51680  0.64150  0.15710  Biso   1.000  C
  C158     1.0000 0.35850  0.51680  0.15710  Biso   1.000  C
  C159     1.0000 0.48320  0.35850  0.15710  Biso   1.000  C
  C160     1.0000 0.64150  0.48320  0.15710  Biso   1.000  C
  C161     1.0000 0.84290  0.51680  0.35850  Biso   1.000  C
  C162     1.0000 0.48320  0.15710  0.64150  Biso   1.000  C
  C163     1.0000 0.48320  0.84290  0.35850  Biso   1.000  C
  C164     1.0000 0.51680  0.84290  0.64150  Biso   1.000  C
  C165     1.0000 0.51680  0.15710  0.35850  Biso   1.000  C
  C166     1.0000 0.84290  0.48320  0.64150  Biso   1.000  C
  C167     1.0000 0.15710  0.48320  0.35850  Biso   1.000  C
  C168     1.0000 0.15710  0.51680  0.64150  Biso   1.000  C
  C169     1.0000 0.85850  0.34290  0.01680  Biso   1.000  C
  C170     1.0000 0.65710  0.85850  0.01680  Biso   1.000  C
  C171     1.0000 0.14150  0.65710  0.01680  Biso   1.000  C
  C172     1.0000 0.34290  0.14150  0.01680  Biso   1.000  C
  C173     1.0000 0.85850  0.65710  0.98320  Biso   1.000  C
  C174     1.0000 0.34290  0.85850  0.98320  Biso   1.000  C
  C175     1.0000 0.14150  0.34290  0.98320  Biso   1.000  C
  C176     1.0000 0.65710  0.14150  0.98320  Biso   1.000  C
  C177     1.0000 0.01680  0.85850  0.34290  Biso   1.000  C
  C178     1.0000 0.14150  0.01680  0.34290  Biso   1.000  C
  C179     1.0000 0.98320  0.14150  0.34290  Biso   1.000  C
  C180     1.0000 0.85850  0.98320  0.34290  Biso   1.000  C
  C181     1.0000 0.01680  0.14150  0.65710  Biso   1.000  C
  C182     1.0000 0.85850  0.01680  0.65710  Biso   1.000  C
  C183     1.0000 0.98320  0.85850  0.65710  Biso   1.000  C
  C184     1.0000 0.14150  0.98320  0.65710  Biso   1.000  C
  C185     1.0000 0.34290  0.01680  0.85850  Biso   1.000  C
  C186     1.0000 0.98320  0.65710  0.14150  Biso   1.000  C
  C187     1.0000 0.98320  0.34290  0.85850  Biso   1.000  C
  C188     1.0000 0.01680  0.34290  0.14150  Biso   1.000  C
  C189     1.0000 0.01680  0.65710  0.85850  Biso   1.000  C
  C190     1.0000 0.34290  0.98320  0.14150  Biso   1.000  C
  C191     1.0000 0.65710  0.98320  0.85850  Biso   1.000  C
  C192     1.0000 0.65710  0.01680  0.14150  Biso   1.000  C
  C193     1.0000 0.40550  0.84050  0.51780  Biso   1.000  C
  C194     1.0000 0.15950  0.40550  0.51780  Biso   1.000  C
  C195     1.0000 0.59450  0.15950  0.51780  Biso   1.000  C
  C196     1.0000 0.84050  0.59450  0.51780  Biso   1.000  C
  C197     1.0000 0.40550  0.15950  0.48220  Biso   1.000  C
  C198     1.0000 0.84050  0.40550  0.48220  Biso   1.000  C
  C199     1.0000 0.59450  0.84050  0.48220  Biso   1.000  C
  C200     1.0000 0.15950  0.59450  0.48220  Biso   1.000  C
  C201     1.0000 0.51780  0.40550  0.84050  Biso   1.000  C
  C202     1.0000 0.59450  0.51780  0.84050  Biso   1.000  C
  C203     1.0000 0.48220  0.59450  0.84050  Biso   1.000  C
  C204     1.0000 0.40550  0.48220  0.84050  Biso   1.000  C
  C205     1.0000 0.51780  0.59450  0.15950  Biso   1.000  C
  C206     1.0000 0.40550  0.51780  0.15950  Biso   1.000  C
  C207     1.0000 0.48220  0.40550  0.15950  Biso   1.000  C
  C208     1.0000 0.59450  0.48220  0.15950  Biso   1.000  C
  C209     1.0000 0.84050  0.51780  0.40550  Biso   1.000  C
  C210     1.0000 0.48220  0.15950  0.59450  Biso   1.000  C
  C211     1.0000 0.48220  0.84050  0.40550  Biso   1.000  C
  C212     1.0000 0.51780  0.84050  0.59450  Biso   1.000  C
  C213     1.0000 0.51780  0.15950  0.40550  Biso   1.000  C
  C214     1.0000 0.84050  0.48220  0.59450  Biso   1.000  C
  C215     1.0000 0.15950  0.48220  0.40550  Biso   1.000  C
  C216     1.0000 0.15950  0.51780  0.59450  Biso   1.000  C
  C217     1.0000 0.90550  0.34050  0.01780  Biso   1.000  C
  C218     1.0000 0.65950  0.90550  0.01780  Biso   1.000  C
  C219     1.0000 0.09450  0.65950  0.01780  Biso   1.000  C
  C220     1.0000 0.34050  0.09450  0.01780  Biso   1.000  C
  C221     1.0000 0.90550  0.65950  0.98220  Biso   1.000  C
  C222     1.0000 0.34050  0.90550  0.98220  Biso   1.000  C
  C223     1.0000 0.09450  0.34050  0.98220  Biso   1.000  C
  C224     1.0000 0.65950  0.09450  0.98220  Biso   1.000  C
  C225     1.0000 0.01780  0.90550  0.34050  Biso   1.000  C
  C226     1.0000 0.09450  0.01780  0.34050  Biso   1.000  C
  C227     1.0000 0.98220  0.09450  0.34050  Biso   1.000  C
  C228     1.0000 0.90550  0.98220  0.34050  Biso   1.000  C
  C229     1.0000 0.01780  0.09450  0.65950  Biso   1.000  C
  C230     1.0000 0.90550  0.01780  0.65950  Biso   1.000  C
  C231     1.0000 0.98220  0.90550  0.65950  Biso   1.000  C
  C232     1.0000 0.09450  0.98220  0.65950  Biso   1.000  C
  C233     1.0000 0.34050  0.01780  0.90550  Biso   1.000  C
  C234     1.0000 0.98220  0.65950  0.09450  Biso   1.000  C
  C235     1.0000 0.98220  0.34050  0.90550  Biso   1.000  C
  C236     1.0000 0.01780  0.34050  0.09450  Biso   1.000  C
  C237     1.0000 0.01780  0.65950  0.90550  Biso   1.000  C
  C238     1.0000 0.34050  0.98220  0.09450  Biso   1.000  C
  C239     1.0000 0.65950  0.98220  0.90550  Biso   1.000  C
  C240     1.0000 0.65950  0.01780  0.09450  Biso   1.000  C
  H193     1.0000 0.42170  0.86300  0.53420  Biso   1.000  H
  H194     1.0000 0.13700  0.42170  0.53420  Biso   1.000  H
  H195     1.0000 0.57830  0.13700  0.53420  Biso   1.000  H
  H196     1.0000 0.86300  0.57830  0.53420  Biso   1.000  H
  H197     1.0000 0.42170  0.13700  0.46580  Biso   1.000  H
  H198     1.0000 0.86300  0.42170  0.46580  Biso   1.000  H
  H199     1.0000 0.57830  0.86300  0.46580  Biso   1.000  H
  H200     1.0000 0.13700  0.57830  0.46580  Biso   1.000  H
  H201     1.0000 0.53420  0.42170  0.86300  Biso   1.000  H
  H202     1.0000 0.57830  0.53420  0.86300  Biso   1.000  H
  H203     1.0000 0.46580  0.57830  0.86300  Biso   1.000  H
  H204     1.0000 0.42170  0.46580  0.86300  Biso   1.000  H
  H205     1.0000 0.53420  0.57830  0.13700  Biso   1.000  H
  H206     1.0000 0.42170  0.53420  0.13700  Biso   1.000  H
  H207     1.0000 0.46580  0.42170  0.13700  Biso   1.000  H
  H208     1.0000 0.57830  0.46580  0.13700  Biso   1.000  H
  H209     1.0000 0.86300  0.53420  0.42170  Biso   1.000  H
  H210     1.0000 0.46580  0.13700  0.57830  Biso   1.000  H
  H211     1.0000 0.46580  0.86300  0.42170  Biso   1.000  H
  H212     1.0000 0.53420  0.86300  0.57830  Biso   1.000  H
  H213     1.0000 0.53420  0.13700  0.42170  Biso   1.000  H
  H214     1.0000 0.86300  0.46580  0.57830  Biso   1.000  H
  H215     1.0000 0.13700  0.46580  0.42170  Biso   1.000  H
  H216     1.0000 0.13700  0.53420  0.57830  Biso   1.000  H
  H217     1.0000 0.92170  0.36300  0.03420  Biso   1.000  H
  H218     1.0000 0.63700  0.92170  0.03420  Biso   1.000  H
  H219     1.0000 0.07830  0.63700  0.03420  Biso   1.000  H
  H220     1.0000 0.36300  0.07830  0.03420  Biso   1.000  H
  H221     1.0000 0.92170  0.63700  0.96580  Biso   1.000  H
  H222     1.0000 0.36300  0.92170  0.96580  Biso   1.000  H
  H223     1.0000 0.07830  0.36300  0.96580  Biso   1.000  H
  H224     1.0000 0.63700  0.07830  0.96580  Biso   1.000  H
  H225     1.0000 0.03420  0.92170  0.36300  Biso   1.000  H
  H226     1.0000 0.07830  0.03420  0.36300  Biso   1.000  H
  H227     1.0000 0.96580  0.07830  0.36300  Biso   1.000  H
  H228     1.0000 0.92170  0.96580  0.36300  Biso   1.000  H
  H229     1.0000 0.03420  0.07830  0.63700  Biso   1.000  H
  H230     1.0000 0.92170  0.03420  0.63700  Biso   1.000  H
  H231     1.0000 0.96580  0.92170  0.63700  Biso   1.000  H
  H232     1.0000 0.07830  0.96580  0.63700  Biso   1.000  H
  H233     1.0000 0.36300  0.03420  0.92170  Biso   1.000  H
  H234     1.0000 0.96580  0.63700  0.07830  Biso   1.000  H
  H235     1.0000 0.96580  0.36300  0.92170  Biso   1.000  H
  H236     1.0000 0.03420  0.36300  0.07830  Biso   1.000  H
  H237     1.0000 0.03420  0.63700  0.92170  Biso   1.000  H
  H238     1.0000 0.36300  0.96580  0.07830  Biso   1.000  H
  H239     1.0000 0.63700  0.96580  0.92170  Biso   1.000  H
  H240     1.0000 0.63700  0.03420  0.07830  Biso   1.000  H
  C241     1.0000 0.33690  0.88310  0.54110  Biso   1.000  C
  C242     1.0000 0.11690  0.33690  0.54110  Biso   1.000  C
  C243     1.0000 0.66310  0.11690  0.54110  Biso   1.000  C
  C244     1.0000 0.88310  0.66310  0.54110  Biso   1.000  C
  C245     1.0000 0.33690  0.11690  0.45890  Biso   1.000  C
  C246     1.0000 0.88310  0.33690  0.45890  Biso   1.000  C
  C247     1.0000 0.66310  0.88310  0.45890  Biso   1.000  C
  C248     1.0000 0.11690  0.66310  0.45890  Biso   1.000  C
  C249     1.0000 0.54110  0.33690  0.88310  Biso   1.000  C
  C250     1.0000 0.66310  0.54110  0.88310  Biso   1.000  C
  C251     1.0000 0.45890  0.66310  0.88310  Biso   1.000  C
  C252     1.0000 0.33690  0.45890  0.88310  Biso   1.000  C
  C253     1.0000 0.54110  0.66310  0.11690  Biso   1.000  C
  C254     1.0000 0.33690  0.54110  0.11690  Biso   1.000  C
  C255     1.0000 0.45890  0.33690  0.11690  Biso   1.000  C
  C256     1.0000 0.66310  0.45890  0.11690  Biso   1.000  C
  C257     1.0000 0.88310  0.54110  0.33690  Biso   1.000  C
  C258     1.0000 0.45890  0.11690  0.66310  Biso   1.000  C
  C259     1.0000 0.45890  0.88310  0.33690  Biso   1.000  C
  C260     1.0000 0.54110  0.88310  0.66310  Biso   1.000  C
  C261     1.0000 0.54110  0.11690  0.33690  Biso   1.000  C
  C262     1.0000 0.88310  0.45890  0.66310  Biso   1.000  C
  C263     1.0000 0.11690  0.45890  0.33690  Biso   1.000  C
  C264     1.0000 0.11690  0.54110  0.66310  Biso   1.000  C
  C265     1.0000 0.83690  0.38310  0.04110  Biso   1.000  C
  C266     1.0000 0.61690  0.83690  0.04110  Biso   1.000  C
  C267     1.0000 0.16310  0.61690  0.04110  Biso   1.000  C
  C268     1.0000 0.38310  0.16310  0.04110  Biso   1.000  C
  C269     1.0000 0.83690  0.61690  0.95890  Biso   1.000  C
  C270     1.0000 0.38310  0.83690  0.95890  Biso   1.000  C
  C271     1.0000 0.16310  0.38310  0.95890  Biso   1.000  C
  C272     1.0000 0.61690  0.16310  0.95890  Biso   1.000  C
  C273     1.0000 0.04110  0.83690  0.38310  Biso   1.000  C
  C274     1.0000 0.16310  0.04110  0.38310  Biso   1.000  C
  C275     1.0000 0.95890  0.16310  0.38310  Biso   1.000  C
  C276     1.0000 0.83690  0.95890  0.38310  Biso   1.000  C
  C277     1.0000 0.04110  0.16310  0.61690  Biso   1.000  C
  C278     1.0000 0.83690  0.04110  0.61690  Biso   1.000  C
  C279     1.0000 0.95890  0.83690  0.61690  Biso   1.000  C
  C280     1.0000 0.16310  0.95890  0.61690  Biso   1.000  C
  C281     1.0000 0.38310  0.04110  0.83690  Biso   1.000  C
  C282     1.0000 0.95890  0.61690  0.16310  Biso   1.000  C
  C283     1.0000 0.95890  0.38310  0.83690  Biso   1.000  C
  C284     1.0000 0.04110  0.38310  0.16310  Biso   1.000  C
  C285     1.0000 0.04110  0.61690  0.83690  Biso   1.000  C
  C286     1.0000 0.38310  0.95890  0.16310  Biso   1.000  C
  C287     1.0000 0.61690  0.95890  0.83690  Biso   1.000  C
  C288     1.0000 0.61690  0.04110  0.16310  Biso   1.000  C
  C289     1.0000 0.27460  0.91060  0.59020  Biso   1.000  C
  C290     1.0000 0.08940  0.27460  0.59020  Biso   1.000  C
  C291     1.0000 0.72540  0.08940  0.59020  Biso   1.000  C
  C292     1.0000 0.91060  0.72540  0.59020  Biso   1.000  C
  C293     1.0000 0.27460  0.08940  0.40980  Biso   1.000  C
  C294     1.0000 0.91060  0.27460  0.40980  Biso   1.000  C
  C295     1.0000 0.72540  0.91060  0.40980  Biso   1.000  C
  C296     1.0000 0.08940  0.72540  0.40980  Biso   1.000  C
  C297     1.0000 0.59020  0.27460  0.91060  Biso   1.000  C
  C298     1.0000 0.72540  0.59020  0.91060  Biso   1.000  C
  C299     1.0000 0.40980  0.72540  0.91060  Biso   1.000  C
  C300     1.0000 0.27460  0.40980  0.91060  Biso   1.000  C
  C301     1.0000 0.59020  0.72540  0.08940  Biso   1.000  C
  C302     1.0000 0.27460  0.59020  0.08940  Biso   1.000  C
  C303     1.0000 0.40980  0.27460  0.08940  Biso   1.000  C
  C304     1.0000 0.72540  0.40980  0.08940  Biso   1.000  C
  C305     1.0000 0.91060  0.59020  0.27460  Biso   1.000  C
  C306     1.0000 0.40980  0.08940  0.72540  Biso   1.000  C
  C307     1.0000 0.40980  0.91060  0.27460  Biso   1.000  C
  C308     1.0000 0.59020  0.91060  0.72540  Biso   1.000  C
  C309     1.0000 0.59020  0.08940  0.27460  Biso   1.000  C
  C310     1.0000 0.91060  0.40980  0.72540  Biso   1.000  C
  C311     1.0000 0.08940  0.40980  0.27460  Biso   1.000  C
  C312     1.0000 0.08940  0.59020  0.72540  Biso   1.000  C
  C313     1.0000 0.77460  0.41060  0.09020  Biso   1.000  C
  C314     1.0000 0.58940  0.77460  0.09020  Biso   1.000  C
  C315     1.0000 0.22540  0.58940  0.09020  Biso   1.000  C
  C316     1.0000 0.41060  0.22540  0.09020  Biso   1.000  C
  C317     1.0000 0.77460  0.58940  0.90980  Biso   1.000  C
  C318     1.0000 0.41060  0.77460  0.90980  Biso   1.000  C
  C319     1.0000 0.22540  0.41060  0.90980  Biso   1.000  C
  C320     1.0000 0.58940  0.22540  0.90980  Biso   1.000  C
  C321     1.0000 0.09020  0.77460  0.41060  Biso   1.000  C
  C322     1.0000 0.22540  0.09020  0.41060  Biso   1.000  C
  C323     1.0000 0.90980  0.22540  0.41060  Biso   1.000  C
  C324     1.0000 0.77460  0.90980  0.41060  Biso   1.000  C
  C325     1.0000 0.09020  0.22540  0.58940  Biso   1.000  C
  C326     1.0000 0.77460  0.09020  0.58940  Biso   1.000  C
  C327     1.0000 0.90980  0.77460  0.58940  Biso   1.000  C
  C328     1.0000 0.22540  0.90980  0.58940  Biso   1.000  C
  C329     1.0000 0.41060  0.09020  0.77460  Biso   1.000  C
  C330     1.0000 0.90980  0.58940  0.22540  Biso   1.000  C
  C331     1.0000 0.90980  0.41060  0.77460  Biso   1.000  C
  C332     1.0000 0.09020  0.41060  0.22540  Biso   1.000  C
  C333     1.0000 0.09020  0.58940  0.77460  Biso   1.000  C
  C334     1.0000 0.41060  0.90980  0.22540  Biso   1.000  C
  C335     1.0000 0.58940  0.90980  0.77460  Biso   1.000  C
  C336     1.0000 0.58940  0.09020  0.22540  Biso   1.000  C
  H241     1.0000 0.28530  0.90400  0.62130  Biso   1.000  H
  H242     1.0000 0.09600  0.28530  0.62130  Biso   1.000  H
  H243     1.0000 0.71470  0.09600  0.62130  Biso   1.000  H
  H244     1.0000 0.90400  0.71470  0.62130  Biso   1.000  H
  H245     1.0000 0.28530  0.09600  0.37870  Biso   1.000  H
  H246     1.0000 0.90400  0.28530  0.37870  Biso   1.000  H
  H247     1.0000 0.71470  0.90400  0.37870  Biso   1.000  H
  H248     1.0000 0.09600  0.71470  0.37870  Biso   1.000  H
  H249     1.0000 0.62130  0.28530  0.90400  Biso   1.000  H
  H250     1.0000 0.71470  0.62130  0.90400  Biso   1.000  H
  H251     1.0000 0.37870  0.71470  0.90400  Biso   1.000  H
  H252     1.0000 0.28530  0.37870  0.90400  Biso   1.000  H
  H253     1.0000 0.62130  0.71470  0.09600  Biso   1.000  H
  H254     1.0000 0.28530  0.62130  0.09600  Biso   1.000  H
  H255     1.0000 0.37870  0.28530  0.09600  Biso   1.000  H
  H256     1.0000 0.71470  0.37870  0.09600  Biso   1.000  H
  H257     1.0000 0.90400  0.62130  0.28530  Biso   1.000  H
  H258     1.0000 0.37870  0.09600  0.71470  Biso   1.000  H
  H259     1.0000 0.37870  0.90400  0.28530  Biso   1.000  H
  H260     1.0000 0.62130  0.90400  0.71470  Biso   1.000  H
  H261     1.0000 0.62130  0.09600  0.28530  Biso   1.000  H
  H262     1.0000 0.90400  0.37870  0.71470  Biso   1.000  H
  H263     1.0000 0.09600  0.37870  0.28530  Biso   1.000  H
  H264     1.0000 0.09600  0.62130  0.71470  Biso   1.000  H
  H265     1.0000 0.78530  0.40400  0.12130  Biso   1.000  H
  H266     1.0000 0.59600  0.78530  0.12130  Biso   1.000  H
  H267     1.0000 0.21470  0.59600  0.12130  Biso   1.000  H
  H268     1.0000 0.40400  0.21470  0.12130  Biso   1.000  H
  H269     1.0000 0.78530  0.59600  0.87870  Biso   1.000  H
  H270     1.0000 0.40400  0.78530  0.87870  Biso   1.000  H
  H271     1.0000 0.21470  0.40400  0.87870  Biso   1.000  H
  H272     1.0000 0.59600  0.21470  0.87870  Biso   1.000  H
  H273     1.0000 0.12130  0.78530  0.40400  Biso   1.000  H
  H274     1.0000 0.21470  0.12130  0.40400  Biso   1.000  H
  H275     1.0000 0.87870  0.21470  0.40400  Biso   1.000  H
  H276     1.0000 0.78530  0.87870  0.40400  Biso   1.000  H
  H277     1.0000 0.12130  0.21470  0.59600  Biso   1.000  H
  H278     1.0000 0.78530  0.12130  0.59600  Biso   1.000  H
  H279     1.0000 0.87870  0.78530  0.59600  Biso   1.000  H
  H280     1.0000 0.21470  0.87870  0.59600  Biso   1.000  H
  H281     1.0000 0.40400  0.12130  0.78530  Biso   1.000  H
  H282     1.0000 0.87870  0.59600  0.21470  Biso   1.000  H
  H283     1.0000 0.87870  0.40400  0.78530  Biso   1.000  H
  H284     1.0000 0.12130  0.40400  0.21470  Biso   1.000  H
  H285     1.0000 0.12130  0.59600  0.78530  Biso   1.000  H
  H286     1.0000 0.40400  0.87870  0.21470  Biso   1.000  H
  H287     1.0000 0.59600  0.87870  0.78530  Biso   1.000  H
  H288     1.0000 0.59600  0.12130  0.21470  Biso   1.000  H
  H289     1.0000 0.28540  0.94120  0.58180  Biso   1.000  H
  H290     1.0000 0.05880  0.28540  0.58180  Biso   1.000  H
  H291     1.0000 0.71460  0.05880  0.58180  Biso   1.000  H
  H292     1.0000 0.94120  0.71460  0.58180  Biso   1.000  H
  H293     1.0000 0.28540  0.05880  0.41820  Biso   1.000  H
  H294     1.0000 0.94120  0.28540  0.41820  Biso   1.000  H
  H295     1.0000 0.71460  0.94120  0.41820  Biso   1.000  H
  H296     1.0000 0.05880  0.71460  0.41820  Biso   1.000  H
  H297     1.0000 0.58180  0.28540  0.94120  Biso   1.000  H
  H298     1.0000 0.71460  0.58180  0.94120  Biso   1.000  H
  H299     1.0000 0.41820  0.71460  0.94120  Biso   1.000  H
  H300     1.0000 0.28540  0.41820  0.94120  Biso   1.000  H
  H301     1.0000 0.58180  0.71460  0.05880  Biso   1.000  H
  H302     1.0000 0.28540  0.58180  0.05880  Biso   1.000  H
  H303     1.0000 0.41820  0.28540  0.05880  Biso   1.000  H
  H304     1.0000 0.71460  0.41820  0.05880  Biso   1.000  H
  H305     1.0000 0.94120  0.58180  0.28540  Biso   1.000  H
  H306     1.0000 0.41820  0.05880  0.71460  Biso   1.000  H
  H307     1.0000 0.41820  0.94120  0.28540  Biso   1.000  H
  H308     1.0000 0.58180  0.94120  0.71460  Biso   1.000  H
  H309     1.0000 0.58180  0.05880  0.28540  Biso   1.000  H
  H310     1.0000 0.94120  0.41820  0.71460  Biso   1.000  H
  H311     1.0000 0.05880  0.41820  0.28540  Biso   1.000  H
  H312     1.0000 0.05880  0.58180  0.71460  Biso   1.000  H
  H313     1.0000 0.78540  0.44120  0.08180  Biso   1.000  H
  H314     1.0000 0.55880  0.78540  0.08180  Biso   1.000  H
  H315     1.0000 0.21460  0.55880  0.08180  Biso   1.000  H
  H316     1.0000 0.44120  0.21460  0.08180  Biso   1.000  H
  H317     1.0000 0.78540  0.55880  0.91820  Biso   1.000  H
  H318     1.0000 0.44120  0.78540  0.91820  Biso   1.000  H
  H319     1.0000 0.21460  0.44120  0.91820  Biso   1.000  H
  H320     1.0000 0.55880  0.21460  0.91820  Biso   1.000  H
  H321     1.0000 0.08180  0.78540  0.44120  Biso   1.000  H
  H322     1.0000 0.21460  0.08180  0.44120  Biso   1.000  H
  H323     1.0000 0.91820  0.21460  0.44120  Biso   1.000  H
  H324     1.0000 0.78540  0.91820  0.44120  Biso   1.000  H
  H325     1.0000 0.08180  0.21460  0.55880  Biso   1.000  H
  H326     1.0000 0.78540  0.08180  0.55880  Biso   1.000  H
  H327     1.0000 0.91820  0.78540  0.55880  Biso   1.000  H
  H328     1.0000 0.21460  0.91820  0.55880  Biso   1.000  H
  H329     1.0000 0.44120  0.08180  0.78540  Biso   1.000  H
  H330     1.0000 0.91820  0.55880  0.21460  Biso   1.000  H
  H331     1.0000 0.91820  0.44120  0.78540  Biso   1.000  H
  H332     1.0000 0.08180  0.44120  0.21460  Biso   1.000  H
  H333     1.0000 0.08180  0.55880  0.78540  Biso   1.000  H
  H334     1.0000 0.44120  0.91820  0.21460  Biso   1.000  H
  H335     1.0000 0.55880  0.91820  0.78540  Biso   1.000  H
  H336     1.0000 0.55880  0.08180  0.21460  Biso   1.000  H
  O61      1.0000 0.50000  0.89280  0.50000  Biso   1.000  O
  O62      1.0000 0.10720  0.50000  0.50000  Biso   1.000  O
  O63      1.0000 0.50000  0.10720  0.50000  Biso   1.000  O
  O64      1.0000 0.89280  0.50000  0.50000  Biso   1.000  O
  O65      1.0000 0.50000  0.50000  0.89280  Biso   1.000  O
  O66      1.0000 0.50000  0.50000  0.10720  Biso   1.000  O
  O67      1.0000 0.00000  0.39280  0.00000  Biso   1.000  O
  O68      1.0000 0.60720  0.00000  0.00000  Biso   1.000  O
  O69      1.0000 0.00000  0.60720  0.00000  Biso   1.000  O
  O70      1.0000 0.39280  0.00000  0.00000  Biso   1.000  O
  O71      1.0000 0.00000  0.00000  0.39280  Biso   1.000  O
  O72      1.0000 0.00000  0.00000  0.60720  Biso   1.000  O
  O73      1.0000 0.50000  0.93800  0.50000  Biso   1.000  O
  O74      1.0000 0.06200  0.50000  0.50000  Biso   1.000  O
  O75      1.0000 0.50000  0.06200  0.50000  Biso   1.000  O
  O76      1.0000 0.93800  0.50000  0.50000  Biso   1.000  O
  O77      1.0000 0.50000  0.50000  0.93800  Biso   1.000  O
  O78      1.0000 0.50000  0.50000  0.06200  Biso   1.000  O
  O79      1.0000 0.00000  0.43800  0.00000  Biso   1.000  O
  O80      1.0000 0.56200  0.00000  0.00000  Biso   1.000  O
  O81      1.0000 0.00000  0.56200  0.00000  Biso   1.000  O
  O82      1.0000 0.43800  0.00000  0.00000  Biso   1.000  O
  O83      1.0000 0.00000  0.00000  0.43800  Biso   1.000  O
  O84      1.0000 0.00000  0.00000  0.56200  Biso   1.000  O
  W1       1.0000 0.33367  0.65736  0.81079  Biso   1.000  W
  W2       1.0000 0.34264  0.33367  0.81079  Biso   1.000  W
  W3       1.0000 0.66633  0.34264  0.81079  Biso   1.000  W
  W4       1.0000 0.65736  0.66633  0.81079  Biso   1.000  W
  W5       1.0000 0.33367  0.34264  0.18920  Biso   1.000  W
  W6       1.0000 0.65736  0.33367  0.18920  Biso   1.000  W
  W7       1.0000 0.66633  0.65736  0.18920  Biso   1.000  W
  W8       1.0000 0.34264  0.66633  0.18920  Biso   1.000  W
  W9       1.0000 0.81079  0.33367  0.65736  Biso   1.000  W
  W10      1.0000 0.66633  0.81079  0.65736  Biso   1.000  W
  W11      1.0000 0.18920  0.66633  0.65736  Biso   1.000  W
  W12      1.0000 0.33367  0.18920  0.65736  Biso   1.000  W
  W13      1.0000 0.81079  0.66633  0.34264  Biso   1.000  W
  W14      1.0000 0.33367  0.81079  0.34264  Biso   1.000  W
  W15      1.0000 0.18920  0.33367  0.34264  Biso   1.000  W
  W16      1.0000 0.66633  0.18920  0.34264  Biso   1.000  W
  W17      1.0000 0.65736  0.81079  0.33367  Biso   1.000  W
  W18      1.0000 0.18920  0.34264  0.66633  Biso   1.000  W
  W19      1.0000 0.18920  0.65736  0.33367  Biso   1.000  W
  W20      1.0000 0.81079  0.65736  0.66633  Biso   1.000  W
  W21      1.0000 0.81079  0.34264  0.33367  Biso   1.000  W
  W22      1.0000 0.65736  0.18920  0.66633  Biso   1.000  W
  W23      1.0000 0.34264  0.18920  0.33367  Biso   1.000  W
  W24      1.0000 0.34264  0.81079  0.66633  Biso   1.000  W
  W25      1.0000 0.83367  0.15736  0.31080  Biso   1.000  W
  W26      1.0000 0.84264  0.83367  0.31080  Biso   1.000  W
  W27      1.0000 0.16633  0.84264  0.31080  Biso   1.000  W
  W28      1.0000 0.15736  0.16633  0.31080  Biso   1.000  W
  W29      1.0000 0.83367  0.84264  0.68920  Biso   1.000  W
  W30      1.0000 0.15736  0.83367  0.68920  Biso   1.000  W
  W31      1.0000 0.16633  0.15736  0.68920  Biso   1.000  W
  W32      1.0000 0.84264  0.16633  0.68920  Biso   1.000  W
  W33      1.0000 0.31080  0.83367  0.15736  Biso   1.000  W
  W34      1.0000 0.16633  0.31080  0.15736  Biso   1.000  W
  W35      1.0000 0.68920  0.16633  0.15736  Biso   1.000  W
  W36      1.0000 0.83367  0.68920  0.15736  Biso   1.000  W
  W37      1.0000 0.31080  0.16633  0.84264  Biso   1.000  W
  W38      1.0000 0.83367  0.31080  0.84264  Biso   1.000  W
  W39      1.0000 0.68920  0.83367  0.84264  Biso   1.000  W
  W40      1.0000 0.16633  0.68920  0.84264  Biso   1.000  W
  W41      1.0000 0.15736  0.31080  0.83367  Biso   1.000  W
  W42      1.0000 0.68920  0.84264  0.16633  Biso   1.000  W
  W43      1.0000 0.68920  0.15736  0.83367  Biso   1.000  W
  W44      1.0000 0.31080  0.15736  0.16633  Biso   1.000  W
  W45      1.0000 0.31080  0.84264  0.83367  Biso   1.000  W
  W46      1.0000 0.15736  0.68920  0.16633  Biso   1.000  W
  W47      1.0000 0.84264  0.68920  0.83367  Biso   1.000  W
  W48      1.0000 0.84264  0.31080  0.16633  Biso   1.000  W
  W49      1.0000 0.23687  0.61393  0.76345  Biso   1.000  W
  W50      1.0000 0.38607  0.23687  0.76345  Biso   1.000  W
  W51      1.0000 0.76313  0.38607  0.76345  Biso   1.000  W
  W52      1.0000 0.61393  0.76313  0.76345  Biso   1.000  W
  W53      1.0000 0.23687  0.38607  0.23655  Biso   1.000  W
  W54      1.0000 0.61393  0.23687  0.23655  Biso   1.000  W
  W55      1.0000 0.76313  0.61393  0.23655  Biso   1.000  W
  W56      1.0000 0.38607  0.76313  0.23655  Biso   1.000  W
  W57      1.0000 0.76345  0.23687  0.61393  Biso   1.000  W
  W58      1.0000 0.76313  0.76345  0.61393  Biso   1.000  W
  W59      1.0000 0.23655  0.76313  0.61393  Biso   1.000  W
  W60      1.0000 0.23687  0.23655  0.61393  Biso   1.000  W
  W61      1.0000 0.76345  0.76313  0.38607  Biso   1.000  W
  W62      1.0000 0.23687  0.76345  0.38607  Biso   1.000  W
  W63      1.0000 0.23655  0.23687  0.38607  Biso   1.000  W
  W64      1.0000 0.76313  0.23655  0.38607  Biso   1.000  W
  W65      1.0000 0.61393  0.76345  0.23687  Biso   1.000  W
  W66      1.0000 0.23655  0.38607  0.76313  Biso   1.000  W
  W67      1.0000 0.23655  0.61393  0.23687  Biso   1.000  W
  W68      1.0000 0.76345  0.61393  0.76313  Biso   1.000  W
  W69      1.0000 0.76345  0.38607  0.23687  Biso   1.000  W
  W70      1.0000 0.61393  0.23655  0.76313  Biso   1.000  W
  W71      1.0000 0.38607  0.23655  0.23687  Biso   1.000  W
  W72      1.0000 0.38607  0.76345  0.76313  Biso   1.000  W
  W73      1.0000 0.73687  0.11393  0.26345  Biso   1.000  W
  W74      1.0000 0.88607  0.73687  0.26345  Biso   1.000  W
  W75      1.0000 0.26313  0.88607  0.26345  Biso   1.000  W
  W76      1.0000 0.11393  0.26313  0.26345  Biso   1.000  W
  W77      1.0000 0.73687  0.88607  0.73655  Biso   1.000  W
  W78      1.0000 0.11393  0.73687  0.73655  Biso   1.000  W
  W79      1.0000 0.26313  0.11393  0.73655  Biso   1.000  W
  W80      1.0000 0.88607  0.26313  0.73655  Biso   1.000  W
  W81      1.0000 0.26345  0.73687  0.11393  Biso   1.000  W
  W82      1.0000 0.26313  0.26345  0.11393  Biso   1.000  W
  W83      1.0000 0.73655  0.26313  0.11393  Biso   1.000  W
  W84      1.0000 0.73687  0.73655  0.11393  Biso   1.000  W
  W85      1.0000 0.26345  0.26313  0.88607  Biso   1.000  W
  W86      1.0000 0.73687  0.26345  0.88607  Biso   1.000  W
  W87      1.0000 0.73655  0.73687  0.88607  Biso   1.000  W
  W88      1.0000 0.26313  0.73655  0.88607  Biso   1.000  W
  W89      1.0000 0.11393  0.26345  0.73687  Biso   1.000  W
  W90      1.0000 0.73655  0.88607  0.26313  Biso   1.000  W
  W91      1.0000 0.73655  0.11393  0.73687  Biso   1.000  W
  W92      1.0000 0.26345  0.11393  0.26313  Biso   1.000  W
  W93      1.0000 0.26345  0.88607  0.73687  Biso   1.000  W
  W94      1.0000 0.11393  0.73655  0.26313  Biso   1.000  W
  W95      1.0000 0.88607  0.73655  0.73687  Biso   1.000  W
  W96      1.0000 0.88607  0.26345  0.26313  Biso   1.000  W
  W97      1.0000 0.39653  0.65297  0.69930  Biso   1.000  W
  W98      1.0000 0.34703  0.39653  0.69930  Biso   1.000  W
  W99      1.0000 0.60346  0.34703  0.69930  Biso   1.000  W
  W100     1.0000 0.65297  0.60346  0.69930  Biso   1.000  W
  W101     1.0000 0.39653  0.34703  0.30070  Biso   1.000  W
  W102     1.0000 0.65297  0.39653  0.30070  Biso   1.000  W
  W103     1.0000 0.60346  0.65297  0.30070  Biso   1.000  W
  W104     1.0000 0.34703  0.60346  0.30070  Biso   1.000  W
  W105     1.0000 0.69930  0.39653  0.65297  Biso   1.000  W
  W106     1.0000 0.60346  0.69930  0.65297  Biso   1.000  W
  W107     1.0000 0.30070  0.60346  0.65297  Biso   1.000  W
  W108     1.0000 0.39653  0.30070  0.65297  Biso   1.000  W
  W109     1.0000 0.69930  0.60346  0.34703  Biso   1.000  W
  W110     1.0000 0.39653  0.69930  0.34703  Biso   1.000  W
  W111     1.0000 0.30070  0.39653  0.34703  Biso   1.000  W
  W112     1.0000 0.60346  0.30070  0.34703  Biso   1.000  W
  W113     1.0000 0.65297  0.69930  0.39653  Biso   1.000  W
  W114     1.0000 0.30070  0.34703  0.60346  Biso   1.000  W
  W115     1.0000 0.30070  0.65297  0.39653  Biso   1.000  W
  W116     1.0000 0.69930  0.65297  0.60346  Biso   1.000  W
  W117     1.0000 0.69930  0.34703  0.39653  Biso   1.000  W
  W118     1.0000 0.65297  0.30070  0.60346  Biso   1.000  W
  W119     1.0000 0.34703  0.30070  0.39653  Biso   1.000  W
  W120     1.0000 0.34703  0.69930  0.60346  Biso   1.000  W
  W121     1.0000 0.89654  0.15297  0.19930  Biso   1.000  W
  W122     1.0000 0.84703  0.89654  0.19930  Biso   1.000  W
  W123     1.0000 0.10346  0.84703  0.19930  Biso   1.000  W
  W124     1.0000 0.15297  0.10346  0.19930  Biso   1.000  W
  W125     1.0000 0.89654  0.84703  0.80070  Biso   1.000  W
  W126     1.0000 0.15297  0.89654  0.80070  Biso   1.000  W
  W127     1.0000 0.10346  0.15297  0.80070  Biso   1.000  W
  W128     1.0000 0.84703  0.10346  0.80070  Biso   1.000  W
  W129     1.0000 0.19930  0.89654  0.15297  Biso   1.000  W
  W130     1.0000 0.10346  0.19930  0.15297  Biso   1.000  W
  W131     1.0000 0.80070  0.10346  0.15297  Biso   1.000  W
  W132     1.0000 0.89654  0.80070  0.15297  Biso   1.000  W
  W133     1.0000 0.19930  0.10346  0.84703  Biso   1.000  W
  W134     1.0000 0.89654  0.19930  0.84703  Biso   1.000  W
  W135     1.0000 0.80070  0.89654  0.84703  Biso   1.000  W
  W136     1.0000 0.10346  0.80070  0.84703  Biso   1.000  W
  W137     1.0000 0.15297  0.19930  0.89654  Biso   1.000  W
  W138     1.0000 0.80070  0.84703  0.10346  Biso   1.000  W
  W139     1.0000 0.80070  0.15297  0.89654  Biso   1.000  W
  W140     1.0000 0.19930  0.15297  0.10346  Biso   1.000  W
  W141     1.0000 0.19930  0.84703  0.89654  Biso   1.000  W
  W142     1.0000 0.15297  0.80070  0.10346  Biso   1.000  W
  W143     1.0000 0.84703  0.80070  0.89654  Biso   1.000  W
  W144     1.0000 0.84703  0.19930  0.10346  Biso   1.000  W
  P1       1.0000 0.28963  0.71037  0.71037  Biso   1.000  P
  P2       1.0000 0.28963  0.28963  0.71037  Biso   1.000  P
  P3       1.0000 0.71037  0.28963  0.71037  Biso   1.000  P
  P4       1.0000 0.71037  0.71037  0.71037  Biso   1.000  P
  P5       1.0000 0.28963  0.28963  0.28963  Biso   1.000  P
  P6       1.0000 0.71037  0.28963  0.28963  Biso   1.000  P
  P7       1.0000 0.71037  0.71037  0.28963  Biso   1.000  P
  P8       1.0000 0.28963  0.71037  0.28963  Biso   1.000  P
  P9       1.0000 0.78963  0.21037  0.21037  Biso   1.000  P
  P10      1.0000 0.78963  0.78963  0.21037  Biso   1.000  P
  P11      1.0000 0.21037  0.78963  0.21037  Biso   1.000  P
  P12      1.0000 0.21037  0.21037  0.21037  Biso   1.000  P
  P13      1.0000 0.78963  0.78963  0.78963  Biso   1.000  P
  P14      1.0000 0.21037  0.78963  0.78963  Biso   1.000  P
  P15      1.0000 0.21037  0.21037  0.78963  Biso   1.000  P
  P16      1.0000 0.78963  0.21037  0.78963  Biso   1.000  P
  O85      1.0000 0.32079  0.67921  0.67921  Biso   1.000  O
  O86      1.0000 0.32079  0.32079  0.67921  Biso   1.000  O
  O87      1.0000 0.67921  0.32079  0.67921  Biso   1.000  O
  O88      1.0000 0.67921  0.67921  0.67921  Biso   1.000  O
  O89      1.0000 0.32079  0.32079  0.32079  Biso   1.000  O
  O90      1.0000 0.67921  0.32079  0.32079  Biso   1.000  O
  O91      1.0000 0.67921  0.67921  0.32079  Biso   1.000  O
  O92      1.0000 0.32079  0.67921  0.32079  Biso   1.000  O
  O93      1.0000 0.82079  0.17921  0.17921  Biso   1.000  O
  O94      1.0000 0.82079  0.82079  0.17921  Biso   1.000  O
  O95      1.0000 0.17921  0.82079  0.17921  Biso   1.000  O
  O96      1.0000 0.17921  0.17921  0.17921  Biso   1.000  O
  O97      1.0000 0.82079  0.82079  0.82079  Biso   1.000  O
  O98      1.0000 0.17921  0.82079  0.82079  Biso   1.000  O
  O99      1.0000 0.17921  0.17921  0.82079  Biso   1.000  O
  O100     1.0000 0.82079  0.17921  0.82079  Biso   1.000  O
  O101     1.0000 0.27991  0.68309  0.75457  Biso   1.000  O
  O102     1.0000 0.31691  0.27991  0.75457  Biso   1.000  O
  O103     1.0000 0.72009  0.31691  0.75457  Biso   1.000  O
  O104     1.0000 0.68309  0.72009  0.75457  Biso   1.000  O
  O105     1.0000 0.27991  0.31691  0.24543  Biso   1.000  O
  O106     1.0000 0.68309  0.27991  0.24543  Biso   1.000  O
  O107     1.0000 0.72009  0.68309  0.24543  Biso   1.000  O
  O108     1.0000 0.31691  0.72009  0.24543  Biso   1.000  O
  O109     1.0000 0.75457  0.27991  0.68309  Biso   1.000  O
  O110     1.0000 0.72009  0.75457  0.68309  Biso   1.000  O
  O111     1.0000 0.24543  0.72009  0.68309  Biso   1.000  O
  O112     1.0000 0.27991  0.24543  0.68309  Biso   1.000  O
  O113     1.0000 0.75457  0.72009  0.31691  Biso   1.000  O
  O114     1.0000 0.27991  0.75457  0.31691  Biso   1.000  O
  O115     1.0000 0.24543  0.27991  0.31691  Biso   1.000  O
  O116     1.0000 0.72009  0.24543  0.31691  Biso   1.000  O
  O117     1.0000 0.68309  0.75457  0.27991  Biso   1.000  O
  O118     1.0000 0.24543  0.31691  0.72009  Biso   1.000  O
  O119     1.0000 0.24543  0.68309  0.27991  Biso   1.000  O
  O120     1.0000 0.75457  0.68309  0.72009  Biso   1.000  O
  O121     1.0000 0.75457  0.31691  0.27991  Biso   1.000  O
  O122     1.0000 0.68309  0.24543  0.72009  Biso   1.000  O
  O123     1.0000 0.31691  0.24543  0.27991  Biso   1.000  O
  O124     1.0000 0.31691  0.75457  0.72009  Biso   1.000  O
  O125     1.0000 0.77991  0.18309  0.25457  Biso   1.000  O
  O126     1.0000 0.81691  0.77991  0.25457  Biso   1.000  O
  O127     1.0000 0.22009  0.81691  0.25457  Biso   1.000  O
  O128     1.0000 0.18309  0.22009  0.25457  Biso   1.000  O
  O129     1.0000 0.77991  0.81691  0.74543  Biso   1.000  O
  O130     1.0000 0.18309  0.77991  0.74543  Biso   1.000  O
  O131     1.0000 0.22009  0.18309  0.74543  Biso   1.000  O
  O132     1.0000 0.81691  0.22009  0.74543  Biso   1.000  O
  O133     1.0000 0.25457  0.77991  0.18309  Biso   1.000  O
  O134     1.0000 0.22009  0.25457  0.18309  Biso   1.000  O
  O135     1.0000 0.74543  0.22009  0.18309  Biso   1.000  O
  O136     1.0000 0.77991  0.74543  0.18309  Biso   1.000  O
  O137     1.0000 0.25457  0.22009  0.81691  Biso   1.000  O
  O138     1.0000 0.77991  0.25457  0.81691  Biso   1.000  O
  O139     1.0000 0.74543  0.77991  0.81691  Biso   1.000  O
  O140     1.0000 0.22009  0.74543  0.81691  Biso   1.000  O
  O141     1.0000 0.18309  0.25457  0.77991  Biso   1.000  O
  O142     1.0000 0.74543  0.81691  0.22009  Biso   1.000  O
  O143     1.0000 0.74543  0.18309  0.77991  Biso   1.000  O
  O144     1.0000 0.25457  0.18309  0.22009  Biso   1.000  O
  O145     1.0000 0.25457  0.81691  0.77991  Biso   1.000  O
  O146     1.0000 0.18309  0.74543  0.22009  Biso   1.000  O
  O147     1.0000 0.81691  0.74543  0.77991  Biso   1.000  O
  O148     1.0000 0.81691  0.25457  0.22009  Biso   1.000  O
  O149     1.0000 0.28997  0.60976  0.80342  Biso   1.000  O
  O150     1.0000 0.39024  0.28997  0.80342  Biso   1.000  O
  O151     1.0000 0.71003  0.39024  0.80342  Biso   1.000  O
  O152     1.0000 0.60976  0.71003  0.80342  Biso   1.000  O
  O153     1.0000 0.28997  0.39024  0.19658  Biso   1.000  O
  O154     1.0000 0.60976  0.28997  0.19658  Biso   1.000  O
  O155     1.0000 0.71003  0.60976  0.19658  Biso   1.000  O
  O156     1.0000 0.39024  0.71003  0.19658  Biso   1.000  O
  O157     1.0000 0.80342  0.28997  0.60976  Biso   1.000  O
  O158     1.0000 0.71003  0.80342  0.60976  Biso   1.000  O
  O159     1.0000 0.19658  0.71003  0.60976  Biso   1.000  O
  O160     1.0000 0.28997  0.19658  0.60976  Biso   1.000  O
  O161     1.0000 0.80342  0.71003  0.39024  Biso   1.000  O
  O162     1.0000 0.28997  0.80342  0.39024  Biso   1.000  O
  O163     1.0000 0.19658  0.28997  0.39024  Biso   1.000  O
  O164     1.0000 0.71003  0.19658  0.39024  Biso   1.000  O
  O165     1.0000 0.60976  0.80342  0.28997  Biso   1.000  O
  O166     1.0000 0.19658  0.39024  0.71003  Biso   1.000  O
  O167     1.0000 0.19658  0.60976  0.28997  Biso   1.000  O
  O168     1.0000 0.80342  0.60976  0.71003  Biso   1.000  O
  O169     1.0000 0.80342  0.39024  0.28997  Biso   1.000  O
  O170     1.0000 0.60976  0.19658  0.71003  Biso   1.000  O
  O171     1.0000 0.39024  0.19658  0.28997  Biso   1.000  O
  O172     1.0000 0.39024  0.80342  0.71003  Biso   1.000  O
  O173     1.0000 0.78997  0.10976  0.30342  Biso   1.000  O
  O174     1.0000 0.89024  0.78997  0.30342  Biso   1.000  O
  O175     1.0000 0.21003  0.89024  0.30342  Biso   1.000  O
  O176     1.0000 0.10976  0.21003  0.30342  Biso   1.000  O
  O177     1.0000 0.78997  0.89024  0.69658  Biso   1.000  O
  O178     1.0000 0.10976  0.78997  0.69658  Biso   1.000  O
  O179     1.0000 0.21003  0.10976  0.69658  Biso   1.000  O
  O180     1.0000 0.89024  0.21003  0.69658  Biso   1.000  O
  O181     1.0000 0.30342  0.78997  0.10976  Biso   1.000  O
  O182     1.0000 0.21003  0.30342  0.10976  Biso   1.000  O
  O183     1.0000 0.69658  0.21003  0.10976  Biso   1.000  O
  O184     1.0000 0.78997  0.69658  0.10976  Biso   1.000  O
  O185     1.0000 0.30342  0.21003  0.89024  Biso   1.000  O
  O186     1.0000 0.78997  0.30342  0.89024  Biso   1.000  O
  O187     1.0000 0.69658  0.78997  0.89024  Biso   1.000  O
  O188     1.0000 0.21003  0.69658  0.89024  Biso   1.000  O
  O189     1.0000 0.10976  0.30342  0.78997  Biso   1.000  O
  O190     1.0000 0.69658  0.89024  0.21003  Biso   1.000  O
  O191     1.0000 0.69658  0.10976  0.78997  Biso   1.000  O
  O192     1.0000 0.30342  0.10976  0.21003  Biso   1.000  O
  O193     1.0000 0.30342  0.89024  0.78997  Biso   1.000  O
  O194     1.0000 0.10976  0.69658  0.21003  Biso   1.000  O
  O195     1.0000 0.89024  0.69658  0.78997  Biso   1.000  O
  O196     1.0000 0.89024  0.30342  0.21003  Biso   1.000  O
  O197     1.0000 0.36153  0.71731  0.80121  Biso   1.000  O
  O198     1.0000 0.28269  0.36153  0.80121  Biso   1.000  O
  O199     1.0000 0.63847  0.28269  0.80121  Biso   1.000  O
  O200     1.0000 0.71731  0.63847  0.80121  Biso   1.000  O
  O201     1.0000 0.36153  0.28269  0.19879  Biso   1.000  O
  O202     1.0000 0.71731  0.36153  0.19879  Biso   1.000  O
  O203     1.0000 0.63847  0.71731  0.19879  Biso   1.000  O
  O204     1.0000 0.28269  0.63847  0.19879  Biso   1.000  O
  O205     1.0000 0.80121  0.36153  0.71731  Biso   1.000  O
  O206     1.0000 0.63847  0.80121  0.71731  Biso   1.000  O
  O207     1.0000 0.19879  0.63847  0.71731  Biso   1.000  O
  O208     1.0000 0.36153  0.19879  0.71731  Biso   1.000  O
  O209     1.0000 0.80121  0.63847  0.28269  Biso   1.000  O
  O210     1.0000 0.36153  0.80121  0.28269  Biso   1.000  O
  O211     1.0000 0.19879  0.36153  0.28269  Biso   1.000  O
  O212     1.0000 0.63847  0.19879  0.28269  Biso   1.000  O
  O213     1.0000 0.71731  0.80121  0.36153  Biso   1.000  O
  O214     1.0000 0.19879  0.28269  0.63847  Biso   1.000  O
  O215     1.0000 0.19879  0.71731  0.36153  Biso   1.000  O
  O216     1.0000 0.80121  0.71731  0.63847  Biso   1.000  O
  O217     1.0000 0.80121  0.28269  0.36153  Biso   1.000  O
  O218     1.0000 0.71731  0.19879  0.63847  Biso   1.000  O
  O219     1.0000 0.28269  0.19879  0.36153  Biso   1.000  O
  O220     1.0000 0.28269  0.80121  0.63847  Biso   1.000  O
  O221     1.0000 0.86153  0.21731  0.30121  Biso   1.000  O
  O222     1.0000 0.78269  0.86153  0.30121  Biso   1.000  O
  O223     1.0000 0.13847  0.78269  0.30121  Biso   1.000  O
  O224     1.0000 0.21731  0.13847  0.30121  Biso   1.000  O
  O225     1.0000 0.86153  0.78269  0.69879  Biso   1.000  O
  O226     1.0000 0.21731  0.86153  0.69879  Biso   1.000  O
  O227     1.0000 0.13847  0.21731  0.69879  Biso   1.000  O
  O228     1.0000 0.78269  0.13847  0.69879  Biso   1.000  O
  O229     1.0000 0.30121  0.86153  0.21731  Biso   1.000  O
  O230     1.0000 0.13847  0.30121  0.21731  Biso   1.000  O
  O231     1.0000 0.69879  0.13847  0.21731  Biso   1.000  O
  O232     1.0000 0.86153  0.69879  0.21731  Biso   1.000  O
  O233     1.0000 0.30121  0.13847  0.78269  Biso   1.000  O
  O234     1.0000 0.86153  0.30121  0.78269  Biso   1.000  O
  O235     1.0000 0.69879  0.86153  0.78269  Biso   1.000  O
  O236     1.0000 0.13847  0.69879  0.78269  Biso   1.000  O
  O237     1.0000 0.21731  0.30121  0.86153  Biso   1.000  O
  O238     1.0000 0.69879  0.78269  0.13847  Biso   1.000  O
  O239     1.0000 0.69879  0.21731  0.86153  Biso   1.000  O
  O240     1.0000 0.30121  0.21731  0.13847  Biso   1.000  O
  O241     1.0000 0.30121  0.78269  0.86153  Biso   1.000  O
  O242     1.0000 0.21731  0.69879  0.13847  Biso   1.000  O
  O243     1.0000 0.78269  0.69879  0.86153  Biso   1.000  O
  O244     1.0000 0.78269  0.30121  0.13847  Biso   1.000  O
  O245     1.0000 0.36737  0.63938  0.75720  Biso   1.000  O
  O246     1.0000 0.36062  0.36737  0.75720  Biso   1.000  O
  O247     1.0000 0.63263  0.36062  0.75720  Biso   1.000  O
  O248     1.0000 0.63938  0.63263  0.75720  Biso   1.000  O
  O249     1.0000 0.36737  0.36062  0.24280  Biso   1.000  O
  O250     1.0000 0.63938  0.36737  0.24280  Biso   1.000  O
  O251     1.0000 0.63263  0.63938  0.24280  Biso   1.000  O
  O252     1.0000 0.36062  0.63263  0.24280  Biso   1.000  O
  O253     1.0000 0.75720  0.36737  0.63938  Biso   1.000  O
  O254     1.0000 0.63263  0.75720  0.63938  Biso   1.000  O
  O255     1.0000 0.24280  0.63263  0.63938  Biso   1.000  O
  O256     1.0000 0.36737  0.24280  0.63938  Biso   1.000  O
  O257     1.0000 0.75720  0.63263  0.36062  Biso   1.000  O
  O258     1.0000 0.36737  0.75720  0.36062  Biso   1.000  O
  O259     1.0000 0.24280  0.36737  0.36062  Biso   1.000  O
  O260     1.0000 0.63263  0.24280  0.36062  Biso   1.000  O
  O261     1.0000 0.63938  0.75720  0.36737  Biso   1.000  O
  O262     1.0000 0.24280  0.36062  0.63263  Biso   1.000  O
  O263     1.0000 0.24280  0.63938  0.36737  Biso   1.000  O
  O264     1.0000 0.75720  0.63938  0.63263  Biso   1.000  O
  O265     1.0000 0.75720  0.36062  0.36737  Biso   1.000  O
  O266     1.0000 0.63938  0.24280  0.63263  Biso   1.000  O
  O267     1.0000 0.36062  0.24280  0.36737  Biso   1.000  O
  O268     1.0000 0.36062  0.75720  0.63263  Biso   1.000  O
  O269     1.0000 0.86737  0.13938  0.25720  Biso   1.000  O
  O270     1.0000 0.86062  0.86737  0.25720  Biso   1.000  O
  O271     1.0000 0.13263  0.86062  0.25720  Biso   1.000  O
  O272     1.0000 0.13938  0.13263  0.25720  Biso   1.000  O
  O273     1.0000 0.86737  0.86062  0.74280  Biso   1.000  O
  O274     1.0000 0.13938  0.86737  0.74280  Biso   1.000  O
  O275     1.0000 0.13263  0.13938  0.74280  Biso   1.000  O
  O276     1.0000 0.86062  0.13263  0.74280  Biso   1.000  O
  O277     1.0000 0.25720  0.86737  0.13938  Biso   1.000  O
  O278     1.0000 0.13263  0.25720  0.13938  Biso   1.000  O
  O279     1.0000 0.74280  0.13263  0.13938  Biso   1.000  O
  O280     1.0000 0.86737  0.74280  0.13938  Biso   1.000  O
  O281     1.0000 0.25720  0.13263  0.86062  Biso   1.000  O
  O282     1.0000 0.86737  0.25720  0.86062  Biso   1.000  O
  O283     1.0000 0.74280  0.86737  0.86062  Biso   1.000  O
  O284     1.0000 0.13263  0.74280  0.86062  Biso   1.000  O
  O285     1.0000 0.13938  0.25720  0.86737  Biso   1.000  O
  O286     1.0000 0.74280  0.86062  0.13263  Biso   1.000  O
  O287     1.0000 0.74280  0.13938  0.86737  Biso   1.000  O
  O288     1.0000 0.25720  0.13938  0.13263  Biso   1.000  O
  O289     1.0000 0.25720  0.86062  0.86737  Biso   1.000  O
  O290     1.0000 0.13938  0.74280  0.13263  Biso   1.000  O
  O291     1.0000 0.86062  0.74280  0.86737  Biso   1.000  O
  O292     1.0000 0.86062  0.25720  0.13263  Biso   1.000  O
  O293     1.0000 0.40042  0.67479  0.63743  Biso   1.000  O
  O294     1.0000 0.32521  0.40042  0.63743  Biso   1.000  O
  O295     1.0000 0.59958  0.32521  0.63743  Biso   1.000  O
  O296     1.0000 0.67479  0.59958  0.63743  Biso   1.000  O
  O297     1.0000 0.40042  0.32521  0.36257  Biso   1.000  O
  O298     1.0000 0.67479  0.40042  0.36257  Biso   1.000  O
  O299     1.0000 0.59958  0.67479  0.36257  Biso   1.000  O
  O300     1.0000 0.32521  0.59958  0.36257  Biso   1.000  O
  O301     1.0000 0.63743  0.40042  0.67479  Biso   1.000  O
  O302     1.0000 0.59958  0.63743  0.67479  Biso   1.000  O
  O303     1.0000 0.36257  0.59958  0.67479  Biso   1.000  O
  O304     1.0000 0.40042  0.36257  0.67479  Biso   1.000  O
  O305     1.0000 0.63743  0.59958  0.32521  Biso   1.000  O
  O306     1.0000 0.40042  0.63743  0.32521  Biso   1.000  O
  O307     1.0000 0.36257  0.40042  0.32521  Biso   1.000  O
  O308     1.0000 0.59958  0.36257  0.32521  Biso   1.000  O
  O309     1.0000 0.67479  0.63743  0.40042  Biso   1.000  O
  O310     1.0000 0.36257  0.32521  0.59958  Biso   1.000  O
  O311     1.0000 0.36257  0.67479  0.40042  Biso   1.000  O
  O312     1.0000 0.63743  0.67479  0.59958  Biso   1.000  O
  O313     1.0000 0.63743  0.32521  0.40042  Biso   1.000  O
  O314     1.0000 0.67479  0.36257  0.59958  Biso   1.000  O
  O315     1.0000 0.32521  0.36257  0.40042  Biso   1.000  O
  O316     1.0000 0.32521  0.63743  0.59958  Biso   1.000  O
  O317     1.0000 0.90042  0.17479  0.13743  Biso   1.000  O
  O318     1.0000 0.82521  0.90042  0.13743  Biso   1.000  O
  O319     1.0000 0.09958  0.82521  0.13743  Biso   1.000  O
  O320     1.0000 0.17479  0.09958  0.13743  Biso   1.000  O
  O321     1.0000 0.90042  0.82521  0.86257  Biso   1.000  O
  O322     1.0000 0.17479  0.90042  0.86257  Biso   1.000  O
  O323     1.0000 0.09958  0.17479  0.86257  Biso   1.000  O
  O324     1.0000 0.82521  0.09958  0.86257  Biso   1.000  O
  O325     1.0000 0.13743  0.90042  0.17479  Biso   1.000  O
  O326     1.0000 0.09958  0.13743  0.17479  Biso   1.000  O
  O327     1.0000 0.86257  0.09958  0.17479  Biso   1.000  O
  O328     1.0000 0.90042  0.86257  0.17479  Biso   1.000  O
  O329     1.0000 0.13743  0.09958  0.82521  Biso   1.000  O
  O330     1.0000 0.90042  0.13743  0.82521  Biso   1.000  O
  O331     1.0000 0.86257  0.90042  0.82521  Biso   1.000  O
  O332     1.0000 0.09958  0.86257  0.82521  Biso   1.000  O
  O333     1.0000 0.17479  0.13743  0.90042  Biso   1.000  O
  O334     1.0000 0.86257  0.82521  0.09958  Biso   1.000  O
  O335     1.0000 0.86257  0.17479  0.90042  Biso   1.000  O
  O336     1.0000 0.13743  0.17479  0.09958  Biso   1.000  O
  O337     1.0000 0.13743  0.82521  0.90042  Biso   1.000  O
  O338     1.0000 0.17479  0.86257  0.09958  Biso   1.000  O
  O339     1.0000 0.82521  0.86257  0.90042  Biso   1.000  O
  O340     1.0000 0.82521  0.13743  0.09958  Biso   1.000  O
  O341     1.0000 0.27842  0.59518  0.71293  Biso   1.000  O
  O342     1.0000 0.40482  0.27842  0.71293  Biso   1.000  O
  O343     1.0000 0.72158  0.40482  0.71293  Biso   1.000  O
  O344     1.0000 0.59518  0.72158  0.71293  Biso   1.000  O
  O345     1.0000 0.27842  0.40482  0.28707  Biso   1.000  O
  O346     1.0000 0.59518  0.27842  0.28707  Biso   1.000  O
  O347     1.0000 0.72158  0.59518  0.28707  Biso   1.000  O
  O348     1.0000 0.40482  0.72158  0.28707  Biso   1.000  O
  O349     1.0000 0.71293  0.27842  0.59518  Biso   1.000  O
  O350     1.0000 0.72158  0.71293  0.59518  Biso   1.000  O
  O351     1.0000 0.28707  0.72158  0.59518  Biso   1.000  O
  O352     1.0000 0.27842  0.28707  0.59518  Biso   1.000  O
  O353     1.0000 0.71293  0.72158  0.40482  Biso   1.000  O
  O354     1.0000 0.27842  0.71293  0.40482  Biso   1.000  O
  O355     1.0000 0.28707  0.27842  0.40482  Biso   1.000  O
  O356     1.0000 0.72158  0.28707  0.40482  Biso   1.000  O
  O357     1.0000 0.59518  0.71293  0.27842  Biso   1.000  O
  O358     1.0000 0.28707  0.40482  0.72158  Biso   1.000  O
  O359     1.0000 0.28707  0.59518  0.27842  Biso   1.000  O
  O360     1.0000 0.71293  0.59518  0.72158  Biso   1.000  O
  O361     1.0000 0.71293  0.40482  0.27842  Biso   1.000  O
  O362     1.0000 0.59518  0.28707  0.72158  Biso   1.000  O
  O363     1.0000 0.40482  0.28707  0.27842  Biso   1.000  O
  O364     1.0000 0.40482  0.71293  0.72158  Biso   1.000  O
  O365     1.0000 0.77842  0.09518  0.21293  Biso   1.000  O
  O366     1.0000 0.90482  0.77842  0.21293  Biso   1.000  O
  O367     1.0000 0.22158  0.90482  0.21293  Biso   1.000  O
  O368     1.0000 0.09518  0.22158  0.21293  Biso   1.000  O
  O369     1.0000 0.77842  0.90482  0.78707  Biso   1.000  O
  O370     1.0000 0.09518  0.77842  0.78707  Biso   1.000  O
  O371     1.0000 0.22158  0.09518  0.78707  Biso   1.000  O
  O372     1.0000 0.90482  0.22158  0.78707  Biso   1.000  O
  O373     1.0000 0.21293  0.77842  0.09518  Biso   1.000  O
  O374     1.0000 0.22158  0.21293  0.09518  Biso   1.000  O
  O375     1.0000 0.78707  0.22158  0.09518  Biso   1.000  O
  O376     1.0000 0.77842  0.78707  0.09518  Biso   1.000  O
  O377     1.0000 0.21293  0.22158  0.90482  Biso   1.000  O
  O378     1.0000 0.77842  0.21293  0.90482  Biso   1.000  O
  O379     1.0000 0.78707  0.77842  0.90482  Biso   1.000  O
  O380     1.0000 0.22158  0.78707  0.90482  Biso   1.000  O
  O381     1.0000 0.09518  0.21293  0.77842  Biso   1.000  O
  O382     1.0000 0.78707  0.90482  0.22158  Biso   1.000  O
  O383     1.0000 0.78707  0.09518  0.77842  Biso   1.000  O
  O384     1.0000 0.21293  0.09518  0.22158  Biso   1.000  O
  O385     1.0000 0.21293  0.90482  0.77842  Biso   1.000  O
  O386     1.0000 0.09518  0.78707  0.22158  Biso   1.000  O
  O387     1.0000 0.90482  0.78707  0.77842  Biso   1.000  O
  O388     1.0000 0.90482  0.21293  0.22158  Biso   1.000  O
  O389     1.0000 0.44971  0.62810  0.70540  Biso   1.000  O
  O390     1.0000 0.37190  0.44971  0.70540  Biso   1.000  O
  O391     1.0000 0.55029  0.37190  0.70540  Biso   1.000  O
  O392     1.0000 0.62810  0.55029  0.70540  Biso   1.000  O
  O393     1.0000 0.44971  0.37190  0.29460  Biso   1.000  O
  O394     1.0000 0.62810  0.44971  0.29460  Biso   1.000  O
  O395     1.0000 0.55029  0.62810  0.29460  Biso   1.000  O
  O396     1.0000 0.37190  0.55029  0.29460  Biso   1.000  O
  O397     1.0000 0.70540  0.44971  0.62810  Biso   1.000  O
  O398     1.0000 0.55029  0.70540  0.62810  Biso   1.000  O
  O399     1.0000 0.29460  0.55029  0.62810  Biso   1.000  O
  O400     1.0000 0.44971  0.29460  0.62810  Biso   1.000  O
  O401     1.0000 0.70540  0.55029  0.37190  Biso   1.000  O
  O402     1.0000 0.44971  0.70540  0.37190  Biso   1.000  O
  O403     1.0000 0.29460  0.44971  0.37190  Biso   1.000  O
  O404     1.0000 0.55029  0.29460  0.37190  Biso   1.000  O
  O405     1.0000 0.62810  0.70540  0.44971  Biso   1.000  O
  O406     1.0000 0.29460  0.37190  0.55029  Biso   1.000  O
  O407     1.0000 0.29460  0.62810  0.44971  Biso   1.000  O
  O408     1.0000 0.70540  0.62810  0.55029  Biso   1.000  O
  O409     1.0000 0.70540  0.37190  0.44971  Biso   1.000  O
  O410     1.0000 0.62810  0.29460  0.55029  Biso   1.000  O
  O411     1.0000 0.37190  0.29460  0.44971  Biso   1.000  O
  O412     1.0000 0.37190  0.70540  0.55029  Biso   1.000  O
  O413     1.0000 0.94971  0.12810  0.20540  Biso   1.000  O
  O414     1.0000 0.87190  0.94971  0.20540  Biso   1.000  O
  O415     1.0000 0.05029  0.87190  0.20540  Biso   1.000  O
  O416     1.0000 0.12810  0.05029  0.20540  Biso   1.000  O
  O417     1.0000 0.94971  0.87190  0.79460  Biso   1.000  O
  O418     1.0000 0.12810  0.94971  0.79460  Biso   1.000  O
  O419     1.0000 0.05029  0.12810  0.79460  Biso   1.000  O
  O420     1.0000 0.87190  0.05029  0.79460  Biso   1.000  O
  O421     1.0000 0.20540  0.94971  0.12810  Biso   1.000  O
  O422     1.0000 0.05029  0.20540  0.12810  Biso   1.000  O
  O423     1.0000 0.79460  0.05029  0.12810  Biso   1.000  O
  O424     1.0000 0.94971  0.79460  0.12810  Biso   1.000  O
  O425     1.0000 0.20540  0.05029  0.87190  Biso   1.000  O
  O426     1.0000 0.94971  0.20540  0.87190  Biso   1.000  O
  O427     1.0000 0.79460  0.94971  0.87190  Biso   1.000  O
  O428     1.0000 0.05029  0.79460  0.87190  Biso   1.000  O
  O429     1.0000 0.12810  0.20540  0.94971  Biso   1.000  O
  O430     1.0000 0.79460  0.87190  0.05029  Biso   1.000  O
  O431     1.0000 0.79460  0.12810  0.94971  Biso   1.000  O
  O432     1.0000 0.20540  0.12810  0.05029  Biso   1.000  O
  O433     1.0000 0.20540  0.87190  0.94971  Biso   1.000  O
  O434     1.0000 0.12810  0.79460  0.05029  Biso   1.000  O
  O435     1.0000 0.87190  0.79460  0.94971  Biso   1.000  O
  O436     1.0000 0.87190  0.20540  0.05029  Biso   1.000  O
  O437     1.0000 0.21150  0.56066  0.77310  Biso   1.000  O
  O438     1.0000 0.43934  0.21150  0.77310  Biso   1.000  O
  O439     1.0000 0.78850  0.43934  0.77310  Biso   1.000  O
  O440     1.0000 0.56066  0.78850  0.77310  Biso   1.000  O
  O441     1.0000 0.21150  0.43934  0.22690  Biso   1.000  O
  O442     1.0000 0.56066  0.21150  0.22690  Biso   1.000  O
  O443     1.0000 0.78850  0.56066  0.22690  Biso   1.000  O
  O444     1.0000 0.43934  0.78850  0.22690  Biso   1.000  O
  O445     1.0000 0.77310  0.21150  0.56066  Biso   1.000  O
  O446     1.0000 0.78850  0.77310  0.56066  Biso   1.000  O
  O447     1.0000 0.22690  0.78850  0.56066  Biso   1.000  O
  O448     1.0000 0.21150  0.22690  0.56066  Biso   1.000  O
  O449     1.0000 0.77310  0.78850  0.43934  Biso   1.000  O
  O450     1.0000 0.21150  0.77310  0.43934  Biso   1.000  O
  O451     1.0000 0.22690  0.21150  0.43934  Biso   1.000  O
  O452     1.0000 0.78850  0.22690  0.43934  Biso   1.000  O
  O453     1.0000 0.56066  0.77310  0.21150  Biso   1.000  O
  O454     1.0000 0.22690  0.43934  0.78850  Biso   1.000  O
  O455     1.0000 0.22690  0.56066  0.21150  Biso   1.000  O
  O456     1.0000 0.77310  0.56066  0.78850  Biso   1.000  O
  O457     1.0000 0.77310  0.43934  0.21150  Biso   1.000  O
  O458     1.0000 0.56066  0.22690  0.78850  Biso   1.000  O
  O459     1.0000 0.43934  0.22690  0.21150  Biso   1.000  O
  O460     1.0000 0.43934  0.77310  0.78850  Biso   1.000  O
  O461     1.0000 0.71150  0.06066  0.27310  Biso   1.000  O
  O462     1.0000 0.93934  0.71150  0.27310  Biso   1.000  O
  O463     1.0000 0.28850  0.93934  0.27310  Biso   1.000  O
  O464     1.0000 0.06066  0.28850  0.27310  Biso   1.000  O
  O465     1.0000 0.71150  0.93934  0.72690  Biso   1.000  O
  O466     1.0000 0.06066  0.71150  0.72690  Biso   1.000  O
  O467     1.0000 0.28850  0.06066  0.72690  Biso   1.000  O
  O468     1.0000 0.93934  0.28850  0.72690  Biso   1.000  O
  O469     1.0000 0.27310  0.71150  0.06066  Biso   1.000  O
  O470     1.0000 0.28850  0.27310  0.06066  Biso   1.000  O
  O471     1.0000 0.72690  0.28850  0.06066  Biso   1.000  O
  O472     1.0000 0.71150  0.72690  0.06066  Biso   1.000  O
  O473     1.0000 0.27310  0.28850  0.93934  Biso   1.000  O
  O474     1.0000 0.71150  0.27310  0.93934  Biso   1.000  O
  O475     1.0000 0.72690  0.71150  0.93934  Biso   1.000  O
  O476     1.0000 0.28850  0.72690  0.93934  Biso   1.000  O
  O477     1.0000 0.06066  0.27310  0.71150  Biso   1.000  O
  O478     1.0000 0.72690  0.93934  0.28850  Biso   1.000  O
  O479     1.0000 0.72690  0.06066  0.71150  Biso   1.000  O
  O480     1.0000 0.27310  0.06066  0.28850  Biso   1.000  O
  O481     1.0000 0.27310  0.93934  0.71150  Biso   1.000  O
  O482     1.0000 0.06066  0.72690  0.28850  Biso   1.000  O
  O483     1.0000 0.93934  0.72690  0.71150  Biso   1.000  O
  O484     1.0000 0.93934  0.27310  0.28850  Biso   1.000  O
  O485     1.0000 0.36929  0.63300  0.85139  Biso   1.000  O
  O486     1.0000 0.36700  0.36929  0.85139  Biso   1.000  O
  O487     1.0000 0.63071  0.36700  0.85139  Biso   1.000  O
  O488     1.0000 0.63300  0.63071  0.85139  Biso   1.000  O
  O489     1.0000 0.36929  0.36700  0.14861  Biso   1.000  O
  O490     1.0000 0.63300  0.36929  0.14861  Biso   1.000  O
  O491     1.0000 0.63071  0.63300  0.14861  Biso   1.000  O
  O492     1.0000 0.36700  0.63071  0.14861  Biso   1.000  O
  O493     1.0000 0.85139  0.36929  0.63300  Biso   1.000  O
  O494     1.0000 0.63071  0.85139  0.63300  Biso   1.000  O
  O495     1.0000 0.14861  0.63071  0.63300  Biso   1.000  O
  O496     1.0000 0.36929  0.14861  0.63300  Biso   1.000  O
  O497     1.0000 0.85139  0.63071  0.36700  Biso   1.000  O
  O498     1.0000 0.36929  0.85139  0.36700  Biso   1.000  O
  O499     1.0000 0.14861  0.36929  0.36700  Biso   1.000  O
  O500     1.0000 0.63071  0.14861  0.36700  Biso   1.000  O
  O501     1.0000 0.63300  0.85139  0.36929  Biso   1.000  O
  O502     1.0000 0.14861  0.36700  0.63071  Biso   1.000  O
  O503     1.0000 0.14861  0.63300  0.36929  Biso   1.000  O
  O504     1.0000 0.85139  0.63300  0.63071  Biso   1.000  O
  O505     1.0000 0.85139  0.36700  0.36929  Biso   1.000  O
  O506     1.0000 0.63300  0.14861  0.63071  Biso   1.000  O
  O507     1.0000 0.36700  0.14861  0.36929  Biso   1.000  O
  O508     1.0000 0.36700  0.85139  0.63071  Biso   1.000  O
  O509     1.0000 0.86929  0.13300  0.35139  Biso   1.000  O
  O510     1.0000 0.86700  0.86929  0.35139  Biso   1.000  O
  O511     1.0000 0.13071  0.86700  0.35139  Biso   1.000  O
  O512     1.0000 0.13300  0.13071  0.35139  Biso   1.000  O
  O513     1.0000 0.86929  0.86700  0.64861  Biso   1.000  O
  O514     1.0000 0.13300  0.86929  0.64861  Biso   1.000  O
  O515     1.0000 0.13071  0.13300  0.64861  Biso   1.000  O
  O516     1.0000 0.86700  0.13071  0.64861  Biso   1.000  O
  O517     1.0000 0.35139  0.86929  0.13300  Biso   1.000  O
  O518     1.0000 0.13071  0.35139  0.13300  Biso   1.000  O
  O519     1.0000 0.64861  0.13071  0.13300  Biso   1.000  O
  O520     1.0000 0.86929  0.64861  0.13300  Biso   1.000  O
  O521     1.0000 0.35139  0.13071  0.86700  Biso   1.000  O
  O522     1.0000 0.86929  0.35139  0.86700  Biso   1.000  O
  O523     1.0000 0.64861  0.86929  0.86700  Biso   1.000  O
  O524     1.0000 0.13071  0.64861  0.86700  Biso   1.000  O
  O525     1.0000 0.13300  0.35139  0.86929  Biso   1.000  O
  O526     1.0000 0.64861  0.86700  0.13071  Biso   1.000  O
  O527     1.0000 0.64861  0.13300  0.86929  Biso   1.000  O
  O528     1.0000 0.35139  0.13300  0.13071  Biso   1.000  O
  O529     1.0000 0.35139  0.86700  0.86929  Biso   1.000  O
  O530     1.0000 0.13300  0.64861  0.13071  Biso   1.000  O
  O531     1.0000 0.86700  0.64861  0.86929  Biso   1.000  O
  O532     1.0000 0.86700  0.35139  0.13071  Biso   1.000  O
  O533     1.0000 0.29329  0.69015  0.85196  Biso   1.000  O
  O534     1.0000 0.30985  0.29329  0.85196  Biso   1.000  O
  O535     1.0000 0.70671  0.30985  0.85196  Biso   1.000  O
  O536     1.0000 0.69015  0.70671  0.85196  Biso   1.000  O
  O537     1.0000 0.29329  0.30985  0.14804  Biso   1.000  O
  O538     1.0000 0.69015  0.29329  0.14804  Biso   1.000  O
  O539     1.0000 0.70671  0.69015  0.14804  Biso   1.000  O
  O540     1.0000 0.30985  0.70671  0.14804  Biso   1.000  O
  O541     1.0000 0.85196  0.29329  0.69015  Biso   1.000  O
  O542     1.0000 0.70671  0.85196  0.69015  Biso   1.000  O
  O543     1.0000 0.14804  0.70671  0.69015  Biso   1.000  O
  O544     1.0000 0.29329  0.14804  0.69015  Biso   1.000  O
  O545     1.0000 0.85196  0.70671  0.30985  Biso   1.000  O
  O546     1.0000 0.29329  0.85196  0.30985  Biso   1.000  O
  O547     1.0000 0.14804  0.29329  0.30985  Biso   1.000  O
  O548     1.0000 0.70671  0.14804  0.30985  Biso   1.000  O
  O549     1.0000 0.69015  0.85196  0.29329  Biso   1.000  O
  O550     1.0000 0.14804  0.30985  0.70671  Biso   1.000  O
  O551     1.0000 0.14804  0.69015  0.29329  Biso   1.000  O
  O552     1.0000 0.85196  0.69015  0.70671  Biso   1.000  O
  O553     1.0000 0.85196  0.30985  0.29329  Biso   1.000  O
  O554     1.0000 0.69015  0.14804  0.70671  Biso   1.000  O
  O555     1.0000 0.30985  0.14804  0.29329  Biso   1.000  O
  O556     1.0000 0.30985  0.85196  0.70671  Biso   1.000  O
  O557     1.0000 0.79329  0.19015  0.35196  Biso   1.000  O
  O558     1.0000 0.80985  0.79329  0.35196  Biso   1.000  O
  O559     1.0000 0.20671  0.80985  0.35196  Biso   1.000  O
  O560     1.0000 0.19015  0.20671  0.35196  Biso   1.000  O
  O561     1.0000 0.79329  0.80985  0.64804  Biso   1.000  O
  O562     1.0000 0.19015  0.79329  0.64804  Biso   1.000  O
  O563     1.0000 0.20671  0.19015  0.64804  Biso   1.000  O
  O564     1.0000 0.80985  0.20671  0.64804  Biso   1.000  O
  O565     1.0000 0.35196  0.79329  0.19015  Biso   1.000  O
  O566     1.0000 0.20671  0.35196  0.19015  Biso   1.000  O
  O567     1.0000 0.64804  0.20671  0.19015  Biso   1.000  O
  O568     1.0000 0.79329  0.64804  0.19015  Biso   1.000  O
  O569     1.0000 0.35196  0.20671  0.80985  Biso   1.000  O
  O570     1.0000 0.79329  0.35196  0.80985  Biso   1.000  O
  O571     1.0000 0.64804  0.79329  0.80985  Biso   1.000  O
  O572     1.0000 0.20671  0.64804  0.80985  Biso   1.000  O
  O573     1.0000 0.19015  0.35196  0.79329  Biso   1.000  O
  O574     1.0000 0.64804  0.80985  0.20671  Biso   1.000  O
  O575     1.0000 0.64804  0.19015  0.79329  Biso   1.000  O
  O576     1.0000 0.35196  0.19015  0.20671  Biso   1.000  O
  O577     1.0000 0.35196  0.80985  0.79329  Biso   1.000  O
  O578     1.0000 0.19015  0.64804  0.20671  Biso   1.000  O
  O579     1.0000 0.80985  0.64804  0.79329  Biso   1.000  O
  O580     1.0000 0.80985  0.35196  0.20671  Biso   1.000  O
