data_image0
_cell_length_a       24.0282
_cell_length_b       24.0282
_cell_length_c       21.6818
_cell_angle_alpha    90
_cell_angle_beta     90
_cell_angle_gamma    120

_symmetry_space_group_name_H-M    "P 1"
_symmetry_int_tables_number       1

loop_
  _symmetry_equiv_pos_as_xyz
  'x, y, z'

loop_
  _atom_site_label
  _atom_site_occupancy
  _atom_site_fract_x
  _atom_site_fract_y
  _atom_site_fract_z
  _atom_site_thermal_displace_type
  _atom_site_B_iso_or_equiv
  _atom_site_type_symbol
  Cu1      1.0000 0.66457  0.99999  0.75000  Biso   1.000  Cu
  Cu2      1.0000 0.00001  0.66458  0.75000  Biso   1.000  Cu
  Cu3      1.0000 0.33542  0.33543  0.75000  Biso   1.000  Cu
  Cu4      1.0000 0.33124  0.33332  0.08333  Biso   1.000  Cu
  Cu5      1.0000 0.66668  0.99791  0.08333  Biso   1.000  Cu
  Cu6      1.0000 0.00209  0.66876  0.08333  Biso   1.000  Cu
  Cu7      1.0000 0.99790  0.66666  0.41667  Biso   1.000  Cu
  Cu8      1.0000 0.33332  0.33124  0.41667  Biso   1.000  Cu
  Cu9      1.0000 0.66875  0.00210  0.41667  Biso   1.000  Cu
  Cu10     1.0000 0.33543  0.00001  0.25000  Biso   1.000  Cu
  Cu11     1.0000 0.99999  0.33542  0.25000  Biso   1.000  Cu
  Cu12     1.0000 0.66458  0.66457  0.25000  Biso   1.000  Cu
  Cu13     1.0000 0.00210  0.33334  0.58333  Biso   1.000  Cu
  Cu14     1.0000 0.66666  0.66875  0.58333  Biso   1.000  Cu
  Cu15     1.0000 0.33125  0.99790  0.58333  Biso   1.000  Cu
  Cu16     1.0000 0.66876  0.66668  0.91667  Biso   1.000  Cu
  Cu17     1.0000 0.33334  0.00210  0.91667  Biso   1.000  Cu
  Cu18     1.0000 0.99791  0.33124  0.91667  Biso   1.000  Cu
  O1       1.0000 0.75650  0.06480  0.73317  Biso   1.000  O
  O2       1.0000 0.93520  0.69170  0.73317  Biso   1.000  O
  O3       1.0000 0.30830  0.24350  0.73317  Biso   1.000  O
  O4       1.0000 0.06480  0.75650  0.76683  Biso   1.000  O
  O5       1.0000 0.42317  0.39813  0.06650  Biso   1.000  O
  O6       1.0000 0.60187  0.02503  0.06650  Biso   1.000  O
  O7       1.0000 0.97497  0.57683  0.06650  Biso   1.000  O
  O8       1.0000 0.73147  0.08983  0.10016  Biso   1.000  O
  O9       1.0000 0.08983  0.73147  0.39984  Biso   1.000  O
  O10      1.0000 0.39813  0.42317  0.43350  Biso   1.000  O
  O11      1.0000 0.69170  0.93520  0.76683  Biso   1.000  O
  O12      1.0000 0.24350  0.30830  0.76683  Biso   1.000  O
  O13      1.0000 0.26853  0.35837  0.39984  Biso   1.000  O
  O14      1.0000 0.64163  0.91017  0.39984  Biso   1.000  O
  O15      1.0000 0.02503  0.60187  0.43350  Biso   1.000  O
  O16      1.0000 0.57683  0.97497  0.43350  Biso   1.000  O
  O17      1.0000 0.35837  0.26853  0.10016  Biso   1.000  O
  O18      1.0000 0.91017  0.64163  0.10016  Biso   1.000  O
  O19      1.0000 0.24350  0.93520  0.26683  Biso   1.000  O
  O20      1.0000 0.06480  0.30830  0.26683  Biso   1.000  O
  O21      1.0000 0.69170  0.75650  0.26683  Biso   1.000  O
  O22      1.0000 0.93520  0.24350  0.23317  Biso   1.000  O
  O23      1.0000 0.91017  0.26853  0.60016  Biso   1.000  O
  O24      1.0000 0.73147  0.64163  0.60016  Biso   1.000  O
  O25      1.0000 0.35837  0.08983  0.60016  Biso   1.000  O
  O26      1.0000 0.60187  0.57683  0.56650  Biso   1.000  O
  O27      1.0000 0.57683  0.60187  0.93350  Biso   1.000  O
  O28      1.0000 0.26853  0.91017  0.89984  Biso   1.000  O
  O29      1.0000 0.30830  0.06480  0.23317  Biso   1.000  O
  O30      1.0000 0.75650  0.69170  0.23317  Biso   1.000  O
  O31      1.0000 0.39813  0.97497  0.93350  Biso   1.000  O
  O32      1.0000 0.02503  0.42317  0.93350  Biso   1.000  O
  O33      1.0000 0.64163  0.73147  0.89984  Biso   1.000  O
  O34      1.0000 0.08983  0.35837  0.89984  Biso   1.000  O
  O35      1.0000 0.97497  0.39813  0.56650  Biso   1.000  O
  O36      1.0000 0.42317  0.02503  0.56650  Biso   1.000  O
  H1       1.0000 0.76750  0.10774  0.72186  Biso   1.000  H
  H2       1.0000 0.89226  0.65976  0.72186  Biso   1.000  H
  H3       1.0000 0.34024  0.23250  0.72186  Biso   1.000  H
  H4       1.0000 0.10774  0.76750  0.77814  Biso   1.000  H
  H5       1.0000 0.43417  0.44107  0.05519  Biso   1.000  H
  H6       1.0000 0.55893  0.99309  0.05519  Biso   1.000  H
  H7       1.0000 0.00691  0.56583  0.05519  Biso   1.000  H
  H8       1.0000 0.77441  0.10083  0.11147  Biso   1.000  H
  H9       1.0000 0.10083  0.77441  0.38853  Biso   1.000  H
  H10      1.0000 0.44107  0.43417  0.44481  Biso   1.000  H
  H11      1.0000 0.65976  0.89226  0.77814  Biso   1.000  H
  H12      1.0000 0.23250  0.34024  0.77814  Biso   1.000  H
  H13      1.0000 0.22559  0.32643  0.38853  Biso   1.000  H
  H14      1.0000 0.67357  0.89917  0.38853  Biso   1.000  H
  H15      1.0000 0.99309  0.55893  0.44481  Biso   1.000  H
  H16      1.0000 0.56583  0.00691  0.44481  Biso   1.000  H
  H17      1.0000 0.32643  0.22559  0.11147  Biso   1.000  H
  H18      1.0000 0.89917  0.67357  0.11147  Biso   1.000  H
  H19      1.0000 0.23250  0.89226  0.27814  Biso   1.000  H
  H20      1.0000 0.10774  0.34024  0.27814  Biso   1.000  H
  H21      1.0000 0.65976  0.76750  0.27814  Biso   1.000  H
  H22      1.0000 0.89226  0.23250  0.22186  Biso   1.000  H
  H23      1.0000 0.89917  0.22559  0.61147  Biso   1.000  H
  H24      1.0000 0.77441  0.67357  0.61147  Biso   1.000  H
  H25      1.0000 0.32643  0.10083  0.61147  Biso   1.000  H
  H26      1.0000 0.55893  0.56583  0.55519  Biso   1.000  H
  H27      1.0000 0.56583  0.55893  0.94481  Biso   1.000  H
  H28      1.0000 0.22559  0.89917  0.88853  Biso   1.000  H
  H29      1.0000 0.34024  0.10774  0.22186  Biso   1.000  H
  H30      1.0000 0.76750  0.65976  0.22186  Biso   1.000  H
  H31      1.0000 0.44107  0.00691  0.94481  Biso   1.000  H
  H32      1.0000 0.99309  0.43417  0.94481  Biso   1.000  H
  H33      1.0000 0.67357  0.77441  0.88853  Biso   1.000  H
  H34      1.0000 0.10083  0.32643  0.88853  Biso   1.000  H
  H35      1.0000 0.00691  0.44107  0.55519  Biso   1.000  H
  H36      1.0000 0.43417  0.99309  0.55519  Biso   1.000  H
  H37      1.0000 0.77250  0.05364  0.69806  Biso   1.000  H
  H38      1.0000 0.94636  0.71886  0.69806  Biso   1.000  H
  H39      1.0000 0.28114  0.22750  0.69806  Biso   1.000  H
  H40      1.0000 0.05364  0.77250  0.80194  Biso   1.000  H
  H41      1.0000 0.43917  0.38697  0.03139  Biso   1.000  H
  H42      1.0000 0.61303  0.05219  0.03139  Biso   1.000  H
  H43      1.0000 0.94781  0.56083  0.03139  Biso   1.000  H
  H44      1.0000 0.72031  0.10583  0.13527  Biso   1.000  H
  H45      1.0000 0.10583  0.72031  0.36473  Biso   1.000  H
  H46      1.0000 0.38697  0.43917  0.46861  Biso   1.000  H
  H47      1.0000 0.71886  0.94636  0.80194  Biso   1.000  H
  H48      1.0000 0.22750  0.28114  0.80194  Biso   1.000  H
  H49      1.0000 0.27969  0.38553  0.36473  Biso   1.000  H
  H50      1.0000 0.61447  0.89417  0.36473  Biso   1.000  H
  H51      1.0000 0.05219  0.61303  0.46861  Biso   1.000  H
  H52      1.0000 0.56083  0.94781  0.46861  Biso   1.000  H
  H53      1.0000 0.38553  0.27969  0.13527  Biso   1.000  H
  H54      1.0000 0.89417  0.61447  0.13527  Biso   1.000  H
  H55      1.0000 0.22750  0.94636  0.30194  Biso   1.000  H
  H56      1.0000 0.05364  0.28114  0.30194  Biso   1.000  H
  H57      1.0000 0.71886  0.77250  0.30194  Biso   1.000  H
  H58      1.0000 0.94636  0.22750  0.19806  Biso   1.000  H
  H59      1.0000 0.89417  0.27969  0.63527  Biso   1.000  H
  H60      1.0000 0.72031  0.61447  0.63527  Biso   1.000  H
  H61      1.0000 0.38553  0.10583  0.63527  Biso   1.000  H
  H62      1.0000 0.61303  0.56083  0.53139  Biso   1.000  H
  H63      1.0000 0.56083  0.61303  0.96861  Biso   1.000  H
  H64      1.0000 0.27969  0.89417  0.86473  Biso   1.000  H
  H65      1.0000 0.28114  0.05364  0.19806  Biso   1.000  H
  H66      1.0000 0.77250  0.71886  0.19806  Biso   1.000  H
  H67      1.0000 0.38697  0.94781  0.96861  Biso   1.000  H
  H68      1.0000 0.05219  0.43917  0.96861  Biso   1.000  H
  H69      1.0000 0.61447  0.72031  0.86473  Biso   1.000  H
  H70      1.0000 0.10583  0.38553  0.86473  Biso   1.000  H
  H71      1.0000 0.94781  0.38697  0.53139  Biso   1.000  H
  H72      1.0000 0.43917  0.05219  0.53139  Biso   1.000  H
  N1       1.0000 0.70070  0.08810  0.45727  Biso   1.000  N
  N2       1.0000 0.91190  0.61260  0.45727  Biso   1.000  N
  N3       1.0000 0.38740  0.29930  0.45727  Biso   1.000  N
  N4       1.0000 0.08810  0.70070  0.04273  Biso   1.000  N
  N5       1.0000 0.36737  0.42143  0.79060  Biso   1.000  N
  N6       1.0000 0.57857  0.94593  0.79060  Biso   1.000  N
  N7       1.0000 0.05407  0.63263  0.79060  Biso   1.000  N
  N8       1.0000 0.75477  0.03403  0.37606  Biso   1.000  N
  N9       1.0000 0.03403  0.75477  0.12394  Biso   1.000  N
  N10      1.0000 0.42143  0.36737  0.70940  Biso   1.000  N
  N11      1.0000 0.61260  0.91190  0.04273  Biso   1.000  N
  N12      1.0000 0.29930  0.38740  0.04273  Biso   1.000  N
  N13      1.0000 0.24523  0.27927  0.12394  Biso   1.000  N
  N14      1.0000 0.72073  0.96597  0.12394  Biso   1.000  N
  N15      1.0000 0.94593  0.57857  0.70940  Biso   1.000  N
  N16      1.0000 0.63263  0.05407  0.70940  Biso   1.000  N
  N17      1.0000 0.27927  0.24523  0.37606  Biso   1.000  N
  N18      1.0000 0.96597  0.72073  0.37606  Biso   1.000  N
  N19      1.0000 0.29930  0.91190  0.54273  Biso   1.000  N
  N20      1.0000 0.08810  0.38740  0.54273  Biso   1.000  N
  N21      1.0000 0.61260  0.70070  0.54273  Biso   1.000  N
  N22      1.0000 0.91190  0.29930  0.95727  Biso   1.000  N
  N23      1.0000 0.96597  0.24523  0.87606  Biso   1.000  N
  N24      1.0000 0.75477  0.72073  0.87606  Biso   1.000  N
  N25      1.0000 0.27927  0.03403  0.87606  Biso   1.000  N
  N26      1.0000 0.57857  0.63263  0.29060  Biso   1.000  N
  N27      1.0000 0.63263  0.57857  0.20940  Biso   1.000  N
  N28      1.0000 0.24523  0.96597  0.62394  Biso   1.000  N
  N29      1.0000 0.38740  0.08810  0.95727  Biso   1.000  N
  N30      1.0000 0.70070  0.61260  0.95727  Biso   1.000  N
  N31      1.0000 0.42143  0.05407  0.20940  Biso   1.000  N
  N32      1.0000 0.94593  0.36737  0.20940  Biso   1.000  N
  N33      1.0000 0.72073  0.75477  0.62394  Biso   1.000  N
  N34      1.0000 0.03403  0.27927  0.62394  Biso   1.000  N
  N35      1.0000 0.05407  0.42143  0.29060  Biso   1.000  N
  N36      1.0000 0.36737  0.94593  0.29060  Biso   1.000  N
  N37      1.0000 0.68480  0.98530  0.52230  Biso   1.000  N
  N38      1.0000 0.01470  0.69950  0.52230  Biso   1.000  N
  N39      1.0000 0.30050  0.31520  0.52230  Biso   1.000  N
  N40      1.0000 0.98530  0.68480  0.97770  Biso   1.000  N
  N41      1.0000 0.35147  0.31863  0.85563  Biso   1.000  N
  N42      1.0000 0.68137  0.03283  0.85563  Biso   1.000  N
  N43      1.0000 0.96717  0.64853  0.85563  Biso   1.000  N
  N44      1.0000 0.65197  0.01813  0.31103  Biso   1.000  N
  N45      1.0000 0.01813  0.65197  0.18897  Biso   1.000  N
  N46      1.0000 0.31863  0.35147  0.64437  Biso   1.000  N
  N47      1.0000 0.69950  0.01470  0.97770  Biso   1.000  N
  N48      1.0000 0.31520  0.30050  0.97770  Biso   1.000  N
  N49      1.0000 0.34803  0.36617  0.18897  Biso   1.000  N
  N50      1.0000 0.63383  0.98187  0.18897  Biso   1.000  N
  N51      1.0000 0.03283  0.68137  0.64437  Biso   1.000  N
  N52      1.0000 0.64853  0.96717  0.64437  Biso   1.000  N
  N53      1.0000 0.36617  0.34803  0.31103  Biso   1.000  N
  N54      1.0000 0.98187  0.63383  0.31103  Biso   1.000  N
  N55      1.0000 0.31520  0.01470  0.47770  Biso   1.000  N
  N56      1.0000 0.98530  0.30050  0.47770  Biso   1.000  N
  N57      1.0000 0.69950  0.68480  0.47770  Biso   1.000  N
  N58      1.0000 0.01470  0.31520  0.02230  Biso   1.000  N
  N59      1.0000 0.98187  0.34803  0.81103  Biso   1.000  N
  N60      1.0000 0.65197  0.63383  0.81103  Biso   1.000  N
  N61      1.0000 0.36617  0.01813  0.81103  Biso   1.000  N
  N62      1.0000 0.68137  0.64853  0.35563  Biso   1.000  N
  N63      1.0000 0.64853  0.68137  0.14437  Biso   1.000  N
  N64      1.0000 0.34803  0.98187  0.68897  Biso   1.000  N
  N65      1.0000 0.30050  0.98530  0.02230  Biso   1.000  N
  N66      1.0000 0.68480  0.69950  0.02230  Biso   1.000  N
  N67      1.0000 0.31863  0.96717  0.14437  Biso   1.000  N
  N68      1.0000 0.03283  0.35147  0.14437  Biso   1.000  N
  N69      1.0000 0.63383  0.65197  0.68897  Biso   1.000  N
  N70      1.0000 0.01813  0.36617  0.68897  Biso   1.000  N
  N71      1.0000 0.96717  0.31863  0.35563  Biso   1.000  N
  N72      1.0000 0.35147  0.03283  0.35563  Biso   1.000  N
  C1       1.0000 0.72650  0.14220  0.42380  Biso   1.000  C
  C2       1.0000 0.85780  0.58430  0.42380  Biso   1.000  C
  C3       1.0000 0.41570  0.27350  0.42380  Biso   1.000  C
  C4       1.0000 0.14220  0.72650  0.07620  Biso   1.000  C
  C5       1.0000 0.39317  0.47553  0.75713  Biso   1.000  C
  C6       1.0000 0.52447  0.91763  0.75713  Biso   1.000  C
  C7       1.0000 0.08237  0.60683  0.75713  Biso   1.000  C
  C8       1.0000 0.80887  0.05983  0.40953  Biso   1.000  C
  C9       1.0000 0.05983  0.80887  0.09047  Biso   1.000  C
  C10      1.0000 0.47553  0.39317  0.74287  Biso   1.000  C
  C11      1.0000 0.58430  0.85780  0.07620  Biso   1.000  C
  C12      1.0000 0.27350  0.41570  0.07620  Biso   1.000  C
  C13      1.0000 0.19113  0.25097  0.09047  Biso   1.000  C
  C14      1.0000 0.74903  0.94017  0.09047  Biso   1.000  C
  C15      1.0000 0.91763  0.52447  0.74287  Biso   1.000  C
  C16      1.0000 0.60683  0.08237  0.74287  Biso   1.000  C
  C17      1.0000 0.25097  0.19113  0.40953  Biso   1.000  C
  C18      1.0000 0.94017  0.74903  0.40953  Biso   1.000  C
  C19      1.0000 0.27350  0.85780  0.57620  Biso   1.000  C
  C20      1.0000 0.14220  0.41570  0.57620  Biso   1.000  C
  C21      1.0000 0.58430  0.72650  0.57620  Biso   1.000  C
  C22      1.0000 0.85780  0.27350  0.92380  Biso   1.000  C
  C23      1.0000 0.94017  0.19113  0.90953  Biso   1.000  C
  C24      1.0000 0.80887  0.74903  0.90953  Biso   1.000  C
  C25      1.0000 0.25097  0.05983  0.90953  Biso   1.000  C
  C26      1.0000 0.52447  0.60683  0.25713  Biso   1.000  C
  C27      1.0000 0.60683  0.52447  0.24287  Biso   1.000  C
  C28      1.0000 0.19113  0.94017  0.59047  Biso   1.000  C
  C29      1.0000 0.41570  0.14220  0.92380  Biso   1.000  C
  C30      1.0000 0.72650  0.58430  0.92380  Biso   1.000  C
  C31      1.0000 0.47553  0.08237  0.24287  Biso   1.000  C
  C32      1.0000 0.91763  0.39317  0.24287  Biso   1.000  C
  C33      1.0000 0.74903  0.80887  0.59047  Biso   1.000  C
  C34      1.0000 0.05983  0.25097  0.59047  Biso   1.000  C
  C35      1.0000 0.08237  0.47553  0.25713  Biso   1.000  C
  C36      1.0000 0.39317  0.91763  0.25713  Biso   1.000  C
  H73      1.0000 0.72260  0.13900  0.38110  Biso   1.000  H
  H74      1.0000 0.86100  0.58360  0.38110  Biso   1.000  H
  H75      1.0000 0.41640  0.27740  0.38110  Biso   1.000  H
  H76      1.0000 0.13900  0.72260  0.11890  Biso   1.000  H
  H77      1.0000 0.38927  0.47233  0.71443  Biso   1.000  H
  H78      1.0000 0.52767  0.91693  0.71443  Biso   1.000  H
  H79      1.0000 0.08307  0.61073  0.71443  Biso   1.000  H
  H80      1.0000 0.80567  0.05593  0.45223  Biso   1.000  H
  H81      1.0000 0.05593  0.80567  0.04777  Biso   1.000  H
  H82      1.0000 0.47233  0.38927  0.78557  Biso   1.000  H
  H83      1.0000 0.58360  0.86100  0.11890  Biso   1.000  H
  H84      1.0000 0.27740  0.41640  0.11890  Biso   1.000  H
  H85      1.0000 0.19433  0.25027  0.04777  Biso   1.000  H
  H86      1.0000 0.74973  0.94407  0.04777  Biso   1.000  H
  H87      1.0000 0.91693  0.52767  0.78557  Biso   1.000  H
  H88      1.0000 0.61073  0.08307  0.78557  Biso   1.000  H
  H89      1.0000 0.25027  0.19433  0.45223  Biso   1.000  H
  H90      1.0000 0.94407  0.74973  0.45223  Biso   1.000  H
  H91      1.0000 0.27740  0.86100  0.61890  Biso   1.000  H
  H92      1.0000 0.13900  0.41640  0.61890  Biso   1.000  H
  H93      1.0000 0.58360  0.72260  0.61890  Biso   1.000  H
  H94      1.0000 0.86100  0.27740  0.88110  Biso   1.000  H
  H95      1.0000 0.94407  0.19433  0.95223  Biso   1.000  H
  H96      1.0000 0.80567  0.74973  0.95223  Biso   1.000  H
  H97      1.0000 0.25027  0.05593  0.95223  Biso   1.000  H
  H98      1.0000 0.52767  0.61073  0.21443  Biso   1.000  H
  H99      1.0000 0.61073  0.52767  0.28557  Biso   1.000  H
  H100     1.0000 0.19433  0.94407  0.54777  Biso   1.000  H
  H101     1.0000 0.41640  0.13900  0.88110  Biso   1.000  H
  H102     1.0000 0.72260  0.58360  0.88110  Biso   1.000  H
  H103     1.0000 0.47233  0.08307  0.28557  Biso   1.000  H
  H104     1.0000 0.91693  0.38927  0.28557  Biso   1.000  H
  H105     1.0000 0.74973  0.80567  0.54777  Biso   1.000  H
  H106     1.0000 0.05593  0.25027  0.54777  Biso   1.000  H
  H107     1.0000 0.08307  0.47233  0.21443  Biso   1.000  H
  H108     1.0000 0.38927  0.91693  0.21443  Biso   1.000  H
  C37      1.0000 0.75840  0.20230  0.45000  Biso   1.000  C
  C38      1.0000 0.79770  0.55610  0.45000  Biso   1.000  C
  C39      1.0000 0.44390  0.24160  0.45000  Biso   1.000  C
  C40      1.0000 0.20230  0.75840  0.05000  Biso   1.000  C
  C41      1.0000 0.42507  0.53563  0.78333  Biso   1.000  C
  C42      1.0000 0.46437  0.88943  0.78333  Biso   1.000  C
  C43      1.0000 0.11057  0.57493  0.78333  Biso   1.000  C
  C44      1.0000 0.86897  0.09173  0.38333  Biso   1.000  C
  C45      1.0000 0.09173  0.86897  0.11667  Biso   1.000  C
  C46      1.0000 0.53563  0.42507  0.71667  Biso   1.000  C
  C47      1.0000 0.55610  0.79770  0.05000  Biso   1.000  C
  C48      1.0000 0.24160  0.44390  0.05000  Biso   1.000  C
  C49      1.0000 0.13103  0.22277  0.11667  Biso   1.000  C
  C50      1.0000 0.77723  0.90827  0.11667  Biso   1.000  C
  C51      1.0000 0.88943  0.46437  0.71667  Biso   1.000  C
  C52      1.0000 0.57493  0.11057  0.71667  Biso   1.000  C
  C53      1.0000 0.22277  0.13103  0.38333  Biso   1.000  C
  C54      1.0000 0.90827  0.77723  0.38333  Biso   1.000  C
  C55      1.0000 0.24160  0.79770  0.55000  Biso   1.000  C
  C56      1.0000 0.20230  0.44390  0.55000  Biso   1.000  C
  C57      1.0000 0.55610  0.75840  0.55000  Biso   1.000  C
  C58      1.0000 0.79770  0.24160  0.95000  Biso   1.000  C
  C59      1.0000 0.90827  0.13103  0.88333  Biso   1.000  C
  C60      1.0000 0.86897  0.77723  0.88333  Biso   1.000  C
  C61      1.0000 0.22277  0.09173  0.88333  Biso   1.000  C
  C62      1.0000 0.46437  0.57493  0.28333  Biso   1.000  C
  C63      1.0000 0.57493  0.46437  0.21667  Biso   1.000  C
  C64      1.0000 0.13103  0.90827  0.61667  Biso   1.000  C
  C65      1.0000 0.44390  0.20230  0.95000  Biso   1.000  C
  C66      1.0000 0.75840  0.55610  0.95000  Biso   1.000  C
  C67      1.0000 0.53563  0.11057  0.21667  Biso   1.000  C
  C68      1.0000 0.88943  0.42507  0.21667  Biso   1.000  C
  C69      1.0000 0.77723  0.86897  0.61667  Biso   1.000  C
  C70      1.0000 0.09173  0.22277  0.61667  Biso   1.000  C
  C71      1.0000 0.11057  0.53563  0.28333  Biso   1.000  C
  C72      1.0000 0.42507  0.88943  0.28333  Biso   1.000  C
  H109     1.0000 0.77660  0.23890  0.42550  Biso   1.000  H
  H110     1.0000 0.76110  0.53770  0.42550  Biso   1.000  H
  H111     1.0000 0.46230  0.22340  0.42550  Biso   1.000  H
  H112     1.0000 0.23890  0.77660  0.07450  Biso   1.000  H
  H113     1.0000 0.44327  0.57223  0.75883  Biso   1.000  H
  H114     1.0000 0.42777  0.87103  0.75883  Biso   1.000  H
  H115     1.0000 0.12897  0.55673  0.75883  Biso   1.000  H
  H116     1.0000 0.90557  0.10993  0.40783  Biso   1.000  H
  H117     1.0000 0.10993  0.90557  0.09217  Biso   1.000  H
  H118     1.0000 0.57223  0.44327  0.74117  Biso   1.000  H
  H119     1.0000 0.53770  0.76110  0.07450  Biso   1.000  H
  H120     1.0000 0.22340  0.46230  0.07450  Biso   1.000  H
  H121     1.0000 0.09443  0.20437  0.09217  Biso   1.000  H
  H122     1.0000 0.79563  0.89007  0.09217  Biso   1.000  H
  H123     1.0000 0.87103  0.42777  0.74117  Biso   1.000  H
  H124     1.0000 0.55673  0.12897  0.74117  Biso   1.000  H
  H125     1.0000 0.20437  0.09443  0.40783  Biso   1.000  H
  H126     1.0000 0.89007  0.79563  0.40783  Biso   1.000  H
  H127     1.0000 0.22340  0.76110  0.57450  Biso   1.000  H
  H128     1.0000 0.23890  0.46230  0.57450  Biso   1.000  H
  H129     1.0000 0.53770  0.77660  0.57450  Biso   1.000  H
  H130     1.0000 0.76110  0.22340  0.92550  Biso   1.000  H
  H131     1.0000 0.89007  0.09443  0.90783  Biso   1.000  H
  H132     1.0000 0.90557  0.79563  0.90783  Biso   1.000  H
  H133     1.0000 0.20437  0.10993  0.90783  Biso   1.000  H
  H134     1.0000 0.42777  0.55673  0.25883  Biso   1.000  H
  H135     1.0000 0.55673  0.42777  0.24117  Biso   1.000  H
  H136     1.0000 0.09443  0.89007  0.59217  Biso   1.000  H
  H137     1.0000 0.46230  0.23890  0.92550  Biso   1.000  H
  H138     1.0000 0.77660  0.53770  0.92550  Biso   1.000  H
  H139     1.0000 0.57223  0.12897  0.24117  Biso   1.000  H
  H140     1.0000 0.87103  0.44327  0.24117  Biso   1.000  H
  H141     1.0000 0.79563  0.90557  0.59217  Biso   1.000  H
  H142     1.0000 0.10993  0.20437  0.59217  Biso   1.000  H
  H143     1.0000 0.12897  0.57223  0.25883  Biso   1.000  H
  H144     1.0000 0.44327  0.87103  0.25883  Biso   1.000  H
  C73      1.0000 0.76290  0.20710  0.51340  Biso   1.000  C
  C74      1.0000 0.79290  0.55580  0.51340  Biso   1.000  C
  C75      1.0000 0.44420  0.23710  0.51340  Biso   1.000  C
  C76      1.0000 0.20710  0.76290  0.98660  Biso   1.000  C
  C77      1.0000 0.42957  0.54043  0.84673  Biso   1.000  C
  C78      1.0000 0.45957  0.88913  0.84673  Biso   1.000  C
  C79      1.0000 0.11087  0.57043  0.84673  Biso   1.000  C
  C80      1.0000 0.87377  0.09623  0.31993  Biso   1.000  C
  C81      1.0000 0.09623  0.87377  0.18007  Biso   1.000  C
  C82      1.0000 0.54043  0.42957  0.65327  Biso   1.000  C
  C83      1.0000 0.55580  0.79290  0.98660  Biso   1.000  C
  C84      1.0000 0.23710  0.44420  0.98660  Biso   1.000  C
  C85      1.0000 0.12623  0.22247  0.18007  Biso   1.000  C
  C86      1.0000 0.77753  0.90377  0.18007  Biso   1.000  C
  C87      1.0000 0.88913  0.45957  0.65327  Biso   1.000  C
  C88      1.0000 0.57043  0.11087  0.65327  Biso   1.000  C
  C89      1.0000 0.22247  0.12623  0.31993  Biso   1.000  C
  C90      1.0000 0.90377  0.77753  0.31993  Biso   1.000  C
  C91      1.0000 0.23710  0.79290  0.48660  Biso   1.000  C
  C92      1.0000 0.20710  0.44420  0.48660  Biso   1.000  C
  C93      1.0000 0.55580  0.76290  0.48660  Biso   1.000  C
  C94      1.0000 0.79290  0.23710  0.01340  Biso   1.000  C
  C95      1.0000 0.90377  0.12623  0.81993  Biso   1.000  C
  C96      1.0000 0.87377  0.77753  0.81993  Biso   1.000  C
  C97      1.0000 0.22247  0.09623  0.81993  Biso   1.000  C
  C98      1.0000 0.45957  0.57043  0.34673  Biso   1.000  C
  C99      1.0000 0.57043  0.45957  0.15327  Biso   1.000  C
  C100     1.0000 0.12623  0.90377  0.68007  Biso   1.000  C
  C101     1.0000 0.44420  0.20710  0.01340  Biso   1.000  C
  C102     1.0000 0.76290  0.55580  0.01340  Biso   1.000  C
  C103     1.0000 0.54043  0.11087  0.15327  Biso   1.000  C
  C104     1.0000 0.88913  0.42957  0.15327  Biso   1.000  C
  C105     1.0000 0.77753  0.87377  0.68007  Biso   1.000  C
  C106     1.0000 0.09623  0.22247  0.68007  Biso   1.000  C
  C107     1.0000 0.11087  0.54043  0.34673  Biso   1.000  C
  C108     1.0000 0.42957  0.88913  0.34673  Biso   1.000  C
  H145     1.0000 0.78440  0.24710  0.53240  Biso   1.000  H
  H146     1.0000 0.75290  0.53730  0.53240  Biso   1.000  H
  H147     1.0000 0.46270  0.21560  0.53240  Biso   1.000  H
  H148     1.0000 0.24710  0.78440  0.96760  Biso   1.000  H
  H149     1.0000 0.45107  0.58043  0.86573  Biso   1.000  H
  H150     1.0000 0.41957  0.87063  0.86573  Biso   1.000  H
  H151     1.0000 0.12937  0.54893  0.86573  Biso   1.000  H
  H152     1.0000 0.91377  0.11773  0.30093  Biso   1.000  H
  H153     1.0000 0.11773  0.91377  0.19907  Biso   1.000  H
  H154     1.0000 0.58043  0.45107  0.63427  Biso   1.000  H
  H155     1.0000 0.53730  0.75290  0.96760  Biso   1.000  H
  H156     1.0000 0.21560  0.46270  0.96760  Biso   1.000  H
  H157     1.0000 0.08623  0.20397  0.19907  Biso   1.000  H
  H158     1.0000 0.79603  0.88227  0.19907  Biso   1.000  H
  H159     1.0000 0.87063  0.41957  0.63427  Biso   1.000  H
  H160     1.0000 0.54893  0.12937  0.63427  Biso   1.000  H
  H161     1.0000 0.20397  0.08623  0.30093  Biso   1.000  H
  H162     1.0000 0.88227  0.79603  0.30093  Biso   1.000  H
  H163     1.0000 0.21560  0.75290  0.46760  Biso   1.000  H
  H164     1.0000 0.24710  0.46270  0.46760  Biso   1.000  H
  H165     1.0000 0.53730  0.78440  0.46760  Biso   1.000  H
  H166     1.0000 0.75290  0.21560  0.03240  Biso   1.000  H
  H167     1.0000 0.88227  0.08623  0.80093  Biso   1.000  H
  H168     1.0000 0.91377  0.79603  0.80093  Biso   1.000  H
  H169     1.0000 0.20397  0.11773  0.80093  Biso   1.000  H
  H170     1.0000 0.41957  0.54893  0.36573  Biso   1.000  H
  H171     1.0000 0.54893  0.41957  0.13427  Biso   1.000  H
  H172     1.0000 0.08623  0.88227  0.69907  Biso   1.000  H
  H173     1.0000 0.46270  0.24710  0.03240  Biso   1.000  H
  H174     1.0000 0.78440  0.53730  0.03240  Biso   1.000  H
  H175     1.0000 0.58043  0.12937  0.13427  Biso   1.000  H
  H176     1.0000 0.87063  0.45107  0.13427  Biso   1.000  H
  H177     1.0000 0.79603  0.91377  0.69907  Biso   1.000  H
  H178     1.0000 0.11773  0.20397  0.69907  Biso   1.000  H
  H179     1.0000 0.12937  0.58043  0.36573  Biso   1.000  H
  H180     1.0000 0.45107  0.87063  0.36573  Biso   1.000  H
  C109     1.0000 0.73490  0.15150  0.54830  Biso   1.000  C
  C110     1.0000 0.84850  0.58340  0.54830  Biso   1.000  C
  C111     1.0000 0.41660  0.26510  0.54830  Biso   1.000  C
  C112     1.0000 0.15150  0.73490  0.95170  Biso   1.000  C
  C113     1.0000 0.40157  0.48483  0.88163  Biso   1.000  C
  C114     1.0000 0.51517  0.91673  0.88163  Biso   1.000  C
  C115     1.0000 0.08327  0.59843  0.88163  Biso   1.000  C
  C116     1.0000 0.81817  0.06823  0.28503  Biso   1.000  C
  C117     1.0000 0.06823  0.81817  0.21497  Biso   1.000  C
  C118     1.0000 0.48483  0.40157  0.61837  Biso   1.000  C
  C119     1.0000 0.58340  0.84850  0.95170  Biso   1.000  C
  C120     1.0000 0.26510  0.41660  0.95170  Biso   1.000  C
  C121     1.0000 0.18183  0.25007  0.21497  Biso   1.000  C
  C122     1.0000 0.74993  0.93177  0.21497  Biso   1.000  C
  C123     1.0000 0.91673  0.51517  0.61837  Biso   1.000  C
  C124     1.0000 0.59843  0.08327  0.61837  Biso   1.000  C
  C125     1.0000 0.25007  0.18183  0.28503  Biso   1.000  C
  C126     1.0000 0.93177  0.74993  0.28503  Biso   1.000  C
  C127     1.0000 0.26510  0.84850  0.45170  Biso   1.000  C
  C128     1.0000 0.15150  0.41660  0.45170  Biso   1.000  C
  C129     1.0000 0.58340  0.73490  0.45170  Biso   1.000  C
  C130     1.0000 0.84850  0.26510  0.04830  Biso   1.000  C
  C131     1.0000 0.93177  0.18183  0.78503  Biso   1.000  C
  C132     1.0000 0.81817  0.74993  0.78503  Biso   1.000  C
  C133     1.0000 0.25007  0.06823  0.78503  Biso   1.000  C
  C134     1.0000 0.51517  0.59843  0.38163  Biso   1.000  C
  C135     1.0000 0.59843  0.51517  0.11837  Biso   1.000  C
  C136     1.0000 0.18183  0.93177  0.71497  Biso   1.000  C
  C137     1.0000 0.41660  0.15150  0.04830  Biso   1.000  C
  C138     1.0000 0.73490  0.58340  0.04830  Biso   1.000  C
  C139     1.0000 0.48483  0.08327  0.11837  Biso   1.000  C
  C140     1.0000 0.91673  0.40157  0.11837  Biso   1.000  C
  C141     1.0000 0.74993  0.81817  0.71497  Biso   1.000  C
  C142     1.0000 0.06823  0.25007  0.71497  Biso   1.000  C
  C143     1.0000 0.08327  0.48483  0.38163  Biso   1.000  C
  C144     1.0000 0.40157  0.91673  0.38163  Biso   1.000  C
  H181     1.0000 0.73680  0.15380  0.59110  Biso   1.000  H
  H182     1.0000 0.84620  0.58300  0.59110  Biso   1.000  H
  H183     1.0000 0.41700  0.26320  0.59110  Biso   1.000  H
  H184     1.0000 0.15380  0.73680  0.90890  Biso   1.000  H
  H185     1.0000 0.40347  0.48713  0.92443  Biso   1.000  H
  H186     1.0000 0.51287  0.91633  0.92443  Biso   1.000  H
  H187     1.0000 0.08367  0.59653  0.92443  Biso   1.000  H
  H188     1.0000 0.82047  0.07013  0.24223  Biso   1.000  H
  H189     1.0000 0.07013  0.82047  0.25777  Biso   1.000  H
  H190     1.0000 0.48713  0.40347  0.57557  Biso   1.000  H
  H191     1.0000 0.58300  0.84620  0.90890  Biso   1.000  H
  H192     1.0000 0.26320  0.41700  0.90890  Biso   1.000  H
  H193     1.0000 0.17953  0.24967  0.25777  Biso   1.000  H
  H194     1.0000 0.75033  0.92987  0.25777  Biso   1.000  H
  H195     1.0000 0.91633  0.51287  0.57557  Biso   1.000  H
  H196     1.0000 0.59653  0.08367  0.57557  Biso   1.000  H
  H197     1.0000 0.24967  0.17953  0.24223  Biso   1.000  H
  H198     1.0000 0.92987  0.75033  0.24223  Biso   1.000  H
  H199     1.0000 0.26320  0.84620  0.40890  Biso   1.000  H
  H200     1.0000 0.15380  0.41700  0.40890  Biso   1.000  H
  H201     1.0000 0.58300  0.73680  0.40890  Biso   1.000  H
  H202     1.0000 0.84620  0.26320  0.09110  Biso   1.000  H
  H203     1.0000 0.92987  0.17953  0.74223  Biso   1.000  H
  H204     1.0000 0.82047  0.75033  0.74223  Biso   1.000  H
  H205     1.0000 0.24967  0.07013  0.74223  Biso   1.000  H
  H206     1.0000 0.51287  0.59653  0.42443  Biso   1.000  H
  H207     1.0000 0.59653  0.51287  0.07557  Biso   1.000  H
  H208     1.0000 0.17953  0.92987  0.75777  Biso   1.000  H
  H209     1.0000 0.41700  0.15380  0.09110  Biso   1.000  H
  H210     1.0000 0.73680  0.58300  0.09110  Biso   1.000  H
  H211     1.0000 0.48713  0.08367  0.07557  Biso   1.000  H
  H212     1.0000 0.91633  0.40347  0.07557  Biso   1.000  H
  H213     1.0000 0.75033  0.82047  0.75777  Biso   1.000  H
  H214     1.0000 0.07013  0.24967  0.75777  Biso   1.000  H
  H215     1.0000 0.08367  0.48713  0.42443  Biso   1.000  H
  H216     1.0000 0.40347  0.91633  0.42443  Biso   1.000  H
  C145     1.0000 0.70410  0.09260  0.51920  Biso   1.000  C
  C146     1.0000 0.90740  0.61150  0.51920  Biso   1.000  C
  C147     1.0000 0.38850  0.29590  0.51920  Biso   1.000  C
  C148     1.0000 0.09260  0.70410  0.98080  Biso   1.000  C
  C149     1.0000 0.37077  0.42593  0.85253  Biso   1.000  C
  C150     1.0000 0.57407  0.94483  0.85253  Biso   1.000  C
  C151     1.0000 0.05517  0.62923  0.85253  Biso   1.000  C
  C152     1.0000 0.75927  0.03743  0.31413  Biso   1.000  C
  C153     1.0000 0.03743  0.75927  0.18587  Biso   1.000  C
  C154     1.0000 0.42593  0.37077  0.64747  Biso   1.000  C
  C155     1.0000 0.61150  0.90740  0.98080  Biso   1.000  C
  C156     1.0000 0.29590  0.38850  0.98080  Biso   1.000  C
  C157     1.0000 0.24073  0.27817  0.18587  Biso   1.000  C
  C158     1.0000 0.72183  0.96257  0.18587  Biso   1.000  C
  C159     1.0000 0.94483  0.57407  0.64747  Biso   1.000  C
  C160     1.0000 0.62923  0.05517  0.64747  Biso   1.000  C
  C161     1.0000 0.27817  0.24073  0.31413  Biso   1.000  C
  C162     1.0000 0.96257  0.72183  0.31413  Biso   1.000  C
  C163     1.0000 0.29590  0.90740  0.48080  Biso   1.000  C
  C164     1.0000 0.09260  0.38850  0.48080  Biso   1.000  C
  C165     1.0000 0.61150  0.70410  0.48080  Biso   1.000  C
  C166     1.0000 0.90740  0.29590  0.01920  Biso   1.000  C
  C167     1.0000 0.96257  0.24073  0.81413  Biso   1.000  C
  C168     1.0000 0.75927  0.72183  0.81413  Biso   1.000  C
  C169     1.0000 0.27817  0.03743  0.81413  Biso   1.000  C
  C170     1.0000 0.57407  0.62923  0.35253  Biso   1.000  C
  C171     1.0000 0.62923  0.57407  0.14747  Biso   1.000  C
  C172     1.0000 0.24073  0.96257  0.68587  Biso   1.000  C
  C173     1.0000 0.38850  0.09260  0.01920  Biso   1.000  C
  C174     1.0000 0.70410  0.61150  0.01920  Biso   1.000  C
  C175     1.0000 0.42593  0.05517  0.14747  Biso   1.000  C
  C176     1.0000 0.94483  0.37077  0.14747  Biso   1.000  C
  C177     1.0000 0.72183  0.75927  0.68587  Biso   1.000  C
  C178     1.0000 0.03743  0.27817  0.68587  Biso   1.000  C
  C179     1.0000 0.05517  0.42593  0.35253  Biso   1.000  C
  C180     1.0000 0.37077  0.94483  0.35253  Biso   1.000  C
  C181     1.0000 0.67880  0.03080  0.55310  Biso   1.000  C
  C182     1.0000 0.96920  0.64800  0.55310  Biso   1.000  C
  C183     1.0000 0.35200  0.32120  0.55310  Biso   1.000  C
  C184     1.0000 0.03080  0.67880  0.94690  Biso   1.000  C
  C185     1.0000 0.34547  0.36413  0.88643  Biso   1.000  C
  C186     1.0000 0.63587  0.98133  0.88643  Biso   1.000  C
  C187     1.0000 0.01867  0.65453  0.88643  Biso   1.000  C
  C188     1.0000 0.69747  0.01213  0.28023  Biso   1.000  C
  C189     1.0000 0.01213  0.69747  0.21977  Biso   1.000  C
  C190     1.0000 0.36413  0.34547  0.61357  Biso   1.000  C
  C191     1.0000 0.64800  0.96920  0.94690  Biso   1.000  C
  C192     1.0000 0.32120  0.35200  0.94690  Biso   1.000  C
  C193     1.0000 0.30253  0.31467  0.21977  Biso   1.000  C
  C194     1.0000 0.68533  0.98787  0.21977  Biso   1.000  C
  C195     1.0000 0.98133  0.63587  0.61357  Biso   1.000  C
  C196     1.0000 0.65453  0.01867  0.61357  Biso   1.000  C
  C197     1.0000 0.31467  0.30253  0.28023  Biso   1.000  C
  C198     1.0000 0.98787  0.68533  0.28023  Biso   1.000  C
  C199     1.0000 0.32120  0.96920  0.44690  Biso   1.000  C
  C200     1.0000 0.03080  0.35200  0.44690  Biso   1.000  C
  C201     1.0000 0.64800  0.67880  0.44690  Biso   1.000  C
  C202     1.0000 0.96920  0.32120  0.05310  Biso   1.000  C
  C203     1.0000 0.98787  0.30253  0.78023  Biso   1.000  C
  C204     1.0000 0.69747  0.68533  0.78023  Biso   1.000  C
  C205     1.0000 0.31467  0.01213  0.78023  Biso   1.000  C
  C206     1.0000 0.63587  0.65453  0.38643  Biso   1.000  C
  C207     1.0000 0.65453  0.63587  0.11357  Biso   1.000  C
  C208     1.0000 0.30253  0.98787  0.71977  Biso   1.000  C
  C209     1.0000 0.35200  0.03080  0.05310  Biso   1.000  C
  C210     1.0000 0.67880  0.64800  0.05310  Biso   1.000  C
  C211     1.0000 0.36413  0.01867  0.11357  Biso   1.000  C
  C212     1.0000 0.98133  0.34547  0.11357  Biso   1.000  C
  C213     1.0000 0.68533  0.69747  0.71977  Biso   1.000  C
  C214     1.0000 0.01213  0.31467  0.71977  Biso   1.000  C
  C215     1.0000 0.01867  0.36413  0.38643  Biso   1.000  C
  C216     1.0000 0.34547  0.98133  0.38643  Biso   1.000  C
  C217     1.0000 0.67380  0.93300  0.55180  Biso   1.000  C
  C218     1.0000 0.06700  0.74080  0.55180  Biso   1.000  C
  C219     1.0000 0.25920  0.32620  0.55180  Biso   1.000  C
  C220     1.0000 0.93300  0.67380  0.94820  Biso   1.000  C
  C221     1.0000 0.34047  0.26633  0.88513  Biso   1.000  C
  C222     1.0000 0.73367  0.07413  0.88513  Biso   1.000  C
  C223     1.0000 0.92587  0.65953  0.88513  Biso   1.000  C
  C224     1.0000 0.59967  0.00713  0.28153  Biso   1.000  C
  C225     1.0000 0.00713  0.59967  0.21847  Biso   1.000  C
  C226     1.0000 0.26633  0.34047  0.61487  Biso   1.000  C
  C227     1.0000 0.74080  0.06700  0.94820  Biso   1.000  C
  C228     1.0000 0.32620  0.25920  0.94820  Biso   1.000  C
  C229     1.0000 0.40033  0.40747  0.21847  Biso   1.000  C
  C230     1.0000 0.59253  0.99287  0.21847  Biso   1.000  C
  C231     1.0000 0.07413  0.73367  0.61487  Biso   1.000  C
  C232     1.0000 0.65953  0.92587  0.61487  Biso   1.000  C
  C233     1.0000 0.40747  0.40033  0.28153  Biso   1.000  C
  C234     1.0000 0.99287  0.59253  0.28153  Biso   1.000  C
  C235     1.0000 0.32620  0.06700  0.44820  Biso   1.000  C
  C236     1.0000 0.93300  0.25920  0.44820  Biso   1.000  C
  C237     1.0000 0.74080  0.67380  0.44820  Biso   1.000  C
  C238     1.0000 0.06700  0.32620  0.05180  Biso   1.000  C
  C239     1.0000 0.99287  0.40033  0.78153  Biso   1.000  C
  C240     1.0000 0.59967  0.59253  0.78153  Biso   1.000  C
  C241     1.0000 0.40747  0.00713  0.78153  Biso   1.000  C
  C242     1.0000 0.73367  0.65953  0.38513  Biso   1.000  C
  C243     1.0000 0.65953  0.73367  0.11487  Biso   1.000  C
  C244     1.0000 0.40033  0.99287  0.71847  Biso   1.000  C
  C245     1.0000 0.25920  0.93300  0.05180  Biso   1.000  C
  C246     1.0000 0.67380  0.74080  0.05180  Biso   1.000  C
  C247     1.0000 0.26633  0.92587  0.11487  Biso   1.000  C
  C248     1.0000 0.07413  0.34047  0.11487  Biso   1.000  C
  C249     1.0000 0.59253  0.59967  0.71847  Biso   1.000  C
  C250     1.0000 0.00713  0.40747  0.71847  Biso   1.000  C
  C251     1.0000 0.92587  0.26633  0.38513  Biso   1.000  C
  C252     1.0000 0.34047  0.07413  0.38513  Biso   1.000  C
  H217     1.0000 0.65790  0.89150  0.63620  Biso   1.000  H
  H218     1.0000 0.10850  0.76640  0.63620  Biso   1.000  H
  H219     1.0000 0.23360  0.34210  0.63620  Biso   1.000  H
  H220     1.0000 0.89150  0.65790  0.86380  Biso   1.000  H
  H221     1.0000 0.32457  0.22483  0.96953  Biso   1.000  H
  H222     1.0000 0.77517  0.09973  0.96953  Biso   1.000  H
  H223     1.0000 0.90027  0.67543  0.96953  Biso   1.000  H
  H224     1.0000 0.55817  0.99123  0.19713  Biso   1.000  H
  H225     1.0000 0.99123  0.55817  0.30287  Biso   1.000  H
  H226     1.0000 0.22483  0.32457  0.53047  Biso   1.000  H
  H227     1.0000 0.76640  0.10850  0.86380  Biso   1.000  H
  H228     1.0000 0.34210  0.23360  0.86380  Biso   1.000  H
  H229     1.0000 0.44183  0.43307  0.30287  Biso   1.000  H
  H230     1.0000 0.56693  0.00877  0.30287  Biso   1.000  H
  H231     1.0000 0.09973  0.77517  0.53047  Biso   1.000  H
  H232     1.0000 0.67543  0.90027  0.53047  Biso   1.000  H
  H233     1.0000 0.43307  0.44183  0.19713  Biso   1.000  H
  H234     1.0000 0.00877  0.56693  0.19713  Biso   1.000  H
  H235     1.0000 0.34210  0.10850  0.36380  Biso   1.000  H
  H236     1.0000 0.89150  0.23360  0.36380  Biso   1.000  H
  H237     1.0000 0.76640  0.65790  0.36380  Biso   1.000  H
  H238     1.0000 0.10850  0.34210  0.13620  Biso   1.000  H
  H239     1.0000 0.00877  0.44183  0.69713  Biso   1.000  H
  H240     1.0000 0.55817  0.56693  0.69713  Biso   1.000  H
  H241     1.0000 0.43307  0.99123  0.69713  Biso   1.000  H
  H242     1.0000 0.77517  0.67543  0.46953  Biso   1.000  H
  H243     1.0000 0.67543  0.77517  0.03047  Biso   1.000  H
  H244     1.0000 0.44183  0.00877  0.80287  Biso   1.000  H
  H245     1.0000 0.23360  0.89150  0.13620  Biso   1.000  H
  H246     1.0000 0.65790  0.76640  0.13620  Biso   1.000  H
  H247     1.0000 0.22483  0.90027  0.03047  Biso   1.000  H
  H248     1.0000 0.09973  0.32457  0.03047  Biso   1.000  H
  H249     1.0000 0.56693  0.55817  0.80287  Biso   1.000  H
  H250     1.0000 0.99123  0.43307  0.80287  Biso   1.000  H
  H251     1.0000 0.90027  0.22483  0.46953  Biso   1.000  H
  H252     1.0000 0.32457  0.09973  0.46953  Biso   1.000  H
  S1       1.0000 0.86404  0.09221  0.60443  Biso   1.000  S
  S2       1.0000 0.90779  0.77183  0.60443  Biso   1.000  S
  S3       1.0000 0.22817  0.13596  0.60443  Biso   1.000  S
  S4       1.0000 0.09221  0.86404  0.89557  Biso   1.000  S
  S5       1.0000 0.53071  0.42554  0.93776  Biso   1.000  S
  S6       1.0000 0.57446  0.10516  0.93776  Biso   1.000  S
  S7       1.0000 0.89484  0.46929  0.93776  Biso   1.000  S
  S8       1.0000 0.75888  0.19737  0.22890  Biso   1.000  S
  S9       1.0000 0.19737  0.75888  0.27110  Biso   1.000  S
  S10      1.0000 0.42554  0.53071  0.56224  Biso   1.000  S
  S11      1.0000 0.77183  0.90779  0.89557  Biso   1.000  S
  S12      1.0000 0.13596  0.22817  0.89557  Biso   1.000  S
  S13      1.0000 0.24112  0.43850  0.27110  Biso   1.000  S
  S14      1.0000 0.56150  0.80263  0.27110  Biso   1.000  S
  S15      1.0000 0.10516  0.57446  0.56224  Biso   1.000  S
  S16      1.0000 0.46929  0.89484  0.56224  Biso   1.000  S
  S17      1.0000 0.43850  0.24112  0.22890  Biso   1.000  S
  S18      1.0000 0.80263  0.56150  0.22890  Biso   1.000  S
  S19      1.0000 0.13596  0.90779  0.39557  Biso   1.000  S
  S20      1.0000 0.09221  0.22817  0.39557  Biso   1.000  S
  S21      1.0000 0.77183  0.86404  0.39557  Biso   1.000  S
  S22      1.0000 0.90779  0.13596  0.10443  Biso   1.000  S
  S23      1.0000 0.80263  0.24112  0.72890  Biso   1.000  S
  S24      1.0000 0.75888  0.56150  0.72890  Biso   1.000  S
  S25      1.0000 0.43850  0.19737  0.72890  Biso   1.000  S
  S26      1.0000 0.57446  0.46929  0.43776  Biso   1.000  S
  S27      1.0000 0.46929  0.57446  0.06224  Biso   1.000  S
  S28      1.0000 0.24112  0.80263  0.77110  Biso   1.000  S
  S29      1.0000 0.22817  0.09221  0.10443  Biso   1.000  S
  S30      1.0000 0.86404  0.77183  0.10443  Biso   1.000  S
  S31      1.0000 0.42554  0.89484  0.06224  Biso   1.000  S
  S32      1.0000 0.10516  0.53071  0.06224  Biso   1.000  S
  S33      1.0000 0.56150  0.75888  0.77110  Biso   1.000  S
  S34      1.0000 0.19737  0.43850  0.77110  Biso   1.000  S
  S35      1.0000 0.89484  0.42554  0.43776  Biso   1.000  S
  S36      1.0000 0.53071  0.10516  0.43776  Biso   1.000  S
  F1       1.0000 0.94080  0.06500  0.65190  Biso   1.000  F
  F2       1.0000 0.93500  0.87580  0.65190  Biso   1.000  F
  F3       1.0000 0.12420  0.05920  0.65190  Biso   1.000  F
  F4       1.0000 0.06500  0.94080  0.84810  Biso   1.000  F
  F5       1.0000 0.60747  0.39833  0.98523  Biso   1.000  F
  F6       1.0000 0.60167  0.20913  0.98523  Biso   1.000  F
  F7       1.0000 0.79087  0.39253  0.98523  Biso   1.000  F
  F8       1.0000 0.73167  0.27413  0.18143  Biso   1.000  F
  F9       1.0000 0.27413  0.73167  0.31857  Biso   1.000  F
  F10      1.0000 0.39833  0.60747  0.51477  Biso   1.000  F
  F11      1.0000 0.87580  0.93500  0.84810  Biso   1.000  F
  F12      1.0000 0.05920  0.12420  0.84810  Biso   1.000  F
  F13      1.0000 0.26833  0.54247  0.31857  Biso   1.000  F
  F14      1.0000 0.45753  0.72587  0.31857  Biso   1.000  F
  F15      1.0000 0.20913  0.60167  0.51477  Biso   1.000  F
  F16      1.0000 0.39253  0.79087  0.51477  Biso   1.000  F
  F17      1.0000 0.54247  0.26833  0.18143  Biso   1.000  F
  F18      1.0000 0.72587  0.45753  0.18143  Biso   1.000  F
  F19      1.0000 0.05920  0.93500  0.34810  Biso   1.000  F
  F20      1.0000 0.06500  0.12420  0.34810  Biso   1.000  F
  F21      1.0000 0.87580  0.94080  0.34810  Biso   1.000  F
  F22      1.0000 0.93500  0.05920  0.15190  Biso   1.000  F
  F23      1.0000 0.72587  0.26833  0.68143  Biso   1.000  F
  F24      1.0000 0.73167  0.45753  0.68143  Biso   1.000  F
  F25      1.0000 0.54247  0.27413  0.68143  Biso   1.000  F
  F26      1.0000 0.60167  0.39253  0.48523  Biso   1.000  F
  F27      1.0000 0.39253  0.60167  0.01477  Biso   1.000  F
  F28      1.0000 0.26833  0.72587  0.81857  Biso   1.000  F
  F29      1.0000 0.12420  0.06500  0.15190  Biso   1.000  F
  F30      1.0000 0.94080  0.87580  0.15190  Biso   1.000  F
  F31      1.0000 0.39833  0.79087  0.01477  Biso   1.000  F
  F32      1.0000 0.20913  0.60747  0.01477  Biso   1.000  F
  F33      1.0000 0.45753  0.73167  0.81857  Biso   1.000  F
  F34      1.0000 0.27413  0.54247  0.81857  Biso   1.000  F
  F35      1.0000 0.79087  0.39833  0.48523  Biso   1.000  F
  F36      1.0000 0.60747  0.20913  0.48523  Biso   1.000  F
  F37      1.0000 0.96800  0.10220  0.56530  Biso   1.000  F
  F38      1.0000 0.89780  0.86580  0.56530  Biso   1.000  F
  F39      1.0000 0.13420  0.03200  0.56530  Biso   1.000  F
  F40      1.0000 0.10220  0.96800  0.93470  Biso   1.000  F
  F41      1.0000 0.63467  0.43553  0.89863  Biso   1.000  F
  F42      1.0000 0.56447  0.19913  0.89863  Biso   1.000  F
  F43      1.0000 0.80087  0.36533  0.89863  Biso   1.000  F
  F44      1.0000 0.76887  0.30133  0.26803  Biso   1.000  F
  F45      1.0000 0.30133  0.76887  0.23197  Biso   1.000  F
  F46      1.0000 0.43553  0.63467  0.60137  Biso   1.000  F
  F47      1.0000 0.86580  0.89780  0.93470  Biso   1.000  F
  F48      1.0000 0.03200  0.13420  0.93470  Biso   1.000  F
  F49      1.0000 0.23113  0.53247  0.23197  Biso   1.000  F
  F50      1.0000 0.46753  0.69867  0.23197  Biso   1.000  F
  F51      1.0000 0.19913  0.56447  0.60137  Biso   1.000  F
  F52      1.0000 0.36533  0.80087  0.60137  Biso   1.000  F
  F53      1.0000 0.53247  0.23113  0.26803  Biso   1.000  F
  F54      1.0000 0.69867  0.46753  0.26803  Biso   1.000  F
  F55      1.0000 0.03200  0.89780  0.43470  Biso   1.000  F
  F56      1.0000 0.10220  0.13420  0.43470  Biso   1.000  F
  F57      1.0000 0.86580  0.96800  0.43470  Biso   1.000  F
  F58      1.0000 0.89780  0.03200  0.06530  Biso   1.000  F
  F59      1.0000 0.69867  0.23113  0.76803  Biso   1.000  F
  F60      1.0000 0.76887  0.46753  0.76803  Biso   1.000  F
  F61      1.0000 0.53247  0.30133  0.76803  Biso   1.000  F
  F62      1.0000 0.56447  0.36533  0.39863  Biso   1.000  F
  F63      1.0000 0.36533  0.56447  0.10137  Biso   1.000  F
  F64      1.0000 0.23113  0.69867  0.73197  Biso   1.000  F
  F65      1.0000 0.13420  0.10220  0.06530  Biso   1.000  F
  F66      1.0000 0.96800  0.86580  0.06530  Biso   1.000  F
  F67      1.0000 0.43553  0.80087  0.10137  Biso   1.000  F
  F68      1.0000 0.19913  0.63467  0.10137  Biso   1.000  F
  F69      1.0000 0.46753  0.76887  0.73197  Biso   1.000  F
  F70      1.0000 0.30133  0.53247  0.73197  Biso   1.000  F
  F71      1.0000 0.80087  0.43553  0.39863  Biso   1.000  F
  F72      1.0000 0.63467  0.19913  0.39863  Biso   1.000  F
  F73      1.0000 0.89760  0.00980  0.57640  Biso   1.000  F
  F74      1.0000 0.99020  0.88780  0.57640  Biso   1.000  F
  F75      1.0000 0.11220  0.10240  0.57640  Biso   1.000  F
  F76      1.0000 0.00980  0.89760  0.92360  Biso   1.000  F
  F77      1.0000 0.56427  0.34313  0.90973  Biso   1.000  F
  F78      1.0000 0.65687  0.22113  0.90973  Biso   1.000  F
  F79      1.0000 0.77887  0.43573  0.90973  Biso   1.000  F
  F80      1.0000 0.67647  0.23093  0.25693  Biso   1.000  F
  F81      1.0000 0.23093  0.67647  0.24307  Biso   1.000  F
  F82      1.0000 0.34313  0.56427  0.59027  Biso   1.000  F
  F83      1.0000 0.88780  0.99020  0.92360  Biso   1.000  F
  F84      1.0000 0.10240  0.11220  0.92360  Biso   1.000  F
  F85      1.0000 0.32353  0.55447  0.24307  Biso   1.000  F
  F86      1.0000 0.44553  0.76907  0.24307  Biso   1.000  F
  F87      1.0000 0.22113  0.65687  0.59027  Biso   1.000  F
  F88      1.0000 0.43573  0.77887  0.59027  Biso   1.000  F
  F89      1.0000 0.55447  0.32353  0.25693  Biso   1.000  F
  F90      1.0000 0.76907  0.44553  0.25693  Biso   1.000  F
  F91      1.0000 0.10240  0.99020  0.42360  Biso   1.000  F
  F92      1.0000 0.00980  0.11220  0.42360  Biso   1.000  F
  F93      1.0000 0.88780  0.89760  0.42360  Biso   1.000  F
  F94      1.0000 0.99020  0.10240  0.07640  Biso   1.000  F
  F95      1.0000 0.76907  0.32353  0.75693  Biso   1.000  F
  F96      1.0000 0.67647  0.44553  0.75693  Biso   1.000  F
  F97      1.0000 0.55447  0.23093  0.75693  Biso   1.000  F
  F98      1.0000 0.65687  0.43573  0.40973  Biso   1.000  F
  F99      1.0000 0.43573  0.65687  0.09027  Biso   1.000  F
  F100     1.0000 0.32353  0.76907  0.74307  Biso   1.000  F
  F101     1.0000 0.11220  0.00980  0.07640  Biso   1.000  F
  F102     1.0000 0.89760  0.88780  0.07640  Biso   1.000  F
  F103     1.0000 0.34313  0.77887  0.09027  Biso   1.000  F
  F104     1.0000 0.22113  0.56427  0.09027  Biso   1.000  F
  F105     1.0000 0.44553  0.67647  0.74307  Biso   1.000  F
  F106     1.0000 0.23093  0.55447  0.74307  Biso   1.000  F
  F107     1.0000 0.77887  0.34313  0.40973  Biso   1.000  F
  F108     1.0000 0.56427  0.22113  0.40973  Biso   1.000  F
  O37      1.0000 0.85370  0.10180  0.54280  Biso   1.000  O
  O38      1.0000 0.89820  0.75190  0.54280  Biso   1.000  O
  O39      1.0000 0.24810  0.14630  0.54280  Biso   1.000  O
  O40      1.0000 0.10180  0.85370  0.95720  Biso   1.000  O
  O41      1.0000 0.52037  0.43513  0.87613  Biso   1.000  O
  O42      1.0000 0.56487  0.08523  0.87613  Biso   1.000  O
  O43      1.0000 0.91477  0.47963  0.87613  Biso   1.000  O
  O44      1.0000 0.76847  0.18703  0.29053  Biso   1.000  O
  O45      1.0000 0.18703  0.76847  0.20947  Biso   1.000  O
  O46      1.0000 0.43513  0.52037  0.62387  Biso   1.000  O
  O47      1.0000 0.75190  0.89820  0.95720  Biso   1.000  O
  O48      1.0000 0.14630  0.24810  0.95720  Biso   1.000  O
  O49      1.0000 0.23153  0.41857  0.20947  Biso   1.000  O
  O50      1.0000 0.58143  0.81297  0.20947  Biso   1.000  O
  O51      1.0000 0.08523  0.56487  0.62387  Biso   1.000  O
  O52      1.0000 0.47963  0.91477  0.62387  Biso   1.000  O
  O53      1.0000 0.41857  0.23153  0.29053  Biso   1.000  O
  O54      1.0000 0.81297  0.58143  0.29053  Biso   1.000  O
  O55      1.0000 0.14630  0.89820  0.45720  Biso   1.000  O
  O56      1.0000 0.10180  0.24810  0.45720  Biso   1.000  O
  O57      1.0000 0.75190  0.85370  0.45720  Biso   1.000  O
  O58      1.0000 0.89820  0.14630  0.04280  Biso   1.000  O
  O59      1.0000 0.81297  0.23153  0.79053  Biso   1.000  O
  O60      1.0000 0.76847  0.58143  0.79053  Biso   1.000  O
  O61      1.0000 0.41857  0.18703  0.79053  Biso   1.000  O
  O62      1.0000 0.56487  0.47963  0.37613  Biso   1.000  O
  O63      1.0000 0.47963  0.56487  0.12387  Biso   1.000  O
  O64      1.0000 0.23153  0.81297  0.70947  Biso   1.000  O
  O65      1.0000 0.24810  0.10180  0.04280  Biso   1.000  O
  O66      1.0000 0.85370  0.75190  0.04280  Biso   1.000  O
  O67      1.0000 0.43513  0.91477  0.12387  Biso   1.000  O
  O68      1.0000 0.08523  0.52037  0.12387  Biso   1.000  O
  O69      1.0000 0.58143  0.76847  0.70947  Biso   1.000  O
  O70      1.0000 0.18703  0.41857  0.70947  Biso   1.000  O
  O71      1.0000 0.91477  0.43513  0.37613  Biso   1.000  O
  O72      1.0000 0.52037  0.08523  0.37613  Biso   1.000  O
  O73      1.0000 0.81180  0.04230  0.63530  Biso   1.000  O
  O74      1.0000 0.95770  0.76950  0.63530  Biso   1.000  O
  O75      1.0000 0.23050  0.18820  0.63530  Biso   1.000  O
  O76      1.0000 0.04230  0.81180  0.86470  Biso   1.000  O
  O77      1.0000 0.47847  0.37563  0.96863  Biso   1.000  O
  O78      1.0000 0.62437  0.10283  0.96863  Biso   1.000  O
  O79      1.0000 0.89717  0.52153  0.96863  Biso   1.000  O
  O80      1.0000 0.70897  0.14513  0.19803  Biso   1.000  O
  O81      1.0000 0.14513  0.70897  0.30197  Biso   1.000  O
  O82      1.0000 0.37563  0.47847  0.53137  Biso   1.000  O
  O83      1.0000 0.76950  0.95770  0.86470  Biso   1.000  O
  O84      1.0000 0.18820  0.23050  0.86470  Biso   1.000  O
  O85      1.0000 0.29103  0.43617  0.30197  Biso   1.000  O
  O86      1.0000 0.56383  0.85487  0.30197  Biso   1.000  O
  O87      1.0000 0.10283  0.62437  0.53137  Biso   1.000  O
  O88      1.0000 0.52153  0.89717  0.53137  Biso   1.000  O
  O89      1.0000 0.43617  0.29103  0.19803  Biso   1.000  O
  O90      1.0000 0.85487  0.56383  0.19803  Biso   1.000  O
  O91      1.0000 0.18820  0.95770  0.36470  Biso   1.000  O
  O92      1.0000 0.04230  0.23050  0.36470  Biso   1.000  O
  O93      1.0000 0.76950  0.81180  0.36470  Biso   1.000  O
  O94      1.0000 0.95770  0.18820  0.13530  Biso   1.000  O
  O95      1.0000 0.85487  0.29103  0.69803  Biso   1.000  O
  O96      1.0000 0.70897  0.56383  0.69803  Biso   1.000  O
  O97      1.0000 0.43617  0.14513  0.69803  Biso   1.000  O
  O98      1.0000 0.62437  0.52153  0.46863  Biso   1.000  O
  O99      1.0000 0.52153  0.62437  0.03137  Biso   1.000  O
  O100     1.0000 0.29103  0.85487  0.80197  Biso   1.000  O
  O101     1.0000 0.23050  0.04230  0.13530  Biso   1.000  O
  O102     1.0000 0.81180  0.76950  0.13530  Biso   1.000  O
  O103     1.0000 0.37563  0.89717  0.03137  Biso   1.000  O
  O104     1.0000 0.10283  0.47847  0.03137  Biso   1.000  O
  O105     1.0000 0.56383  0.70897  0.80197  Biso   1.000  O
  O106     1.0000 0.14513  0.43617  0.80197  Biso   1.000  O
  O107     1.0000 0.89717  0.37563  0.46863  Biso   1.000  O
  O108     1.0000 0.47847  0.10283  0.46863  Biso   1.000  O
  O109     1.0000 0.89610  0.15140  0.63610  Biso   1.000  O
  O110     1.0000 0.84860  0.74470  0.63610  Biso   1.000  O
  O111     1.0000 0.25530  0.10390  0.63610  Biso   1.000  O
  O112     1.0000 0.15140  0.89610  0.86390  Biso   1.000  O
  O113     1.0000 0.56277  0.48473  0.96943  Biso   1.000  O
  O114     1.0000 0.51527  0.07803  0.96943  Biso   1.000  O
  O115     1.0000 0.92197  0.43723  0.96943  Biso   1.000  O
  O116     1.0000 0.81807  0.22943  0.19723  Biso   1.000  O
  O117     1.0000 0.22943  0.81807  0.30277  Biso   1.000  O
  O118     1.0000 0.48473  0.56277  0.53057  Biso   1.000  O
  O119     1.0000 0.74470  0.84860  0.86390  Biso   1.000  O
  O120     1.0000 0.10390  0.25530  0.86390  Biso   1.000  O
  O121     1.0000 0.18193  0.41137  0.30277  Biso   1.000  O
  O122     1.0000 0.58863  0.77057  0.30277  Biso   1.000  O
  O123     1.0000 0.07803  0.51527  0.53057  Biso   1.000  O
  O124     1.0000 0.43723  0.92197  0.53057  Biso   1.000  O
  O125     1.0000 0.41137  0.18193  0.19723  Biso   1.000  O
  O126     1.0000 0.77057  0.58863  0.19723  Biso   1.000  O
  O127     1.0000 0.10390  0.84860  0.36390  Biso   1.000  O
  O128     1.0000 0.15140  0.25530  0.36390  Biso   1.000  O
  O129     1.0000 0.74470  0.89610  0.36390  Biso   1.000  O
  O130     1.0000 0.84860  0.10390  0.13610  Biso   1.000  O
  O131     1.0000 0.77057  0.18193  0.69723  Biso   1.000  O
  O132     1.0000 0.81807  0.58863  0.69723  Biso   1.000  O
  O133     1.0000 0.41137  0.22943  0.69723  Biso   1.000  O
  O134     1.0000 0.51527  0.43723  0.46943  Biso   1.000  O
  O135     1.0000 0.43723  0.51527  0.03057  Biso   1.000  O
  O136     1.0000 0.18193  0.77057  0.80277  Biso   1.000  O
  O137     1.0000 0.25530  0.15140  0.13610  Biso   1.000  O
  O138     1.0000 0.89610  0.74470  0.13610  Biso   1.000  O
  O139     1.0000 0.48473  0.92197  0.03057  Biso   1.000  O
  O140     1.0000 0.07803  0.56277  0.03057  Biso   1.000  O
  O141     1.0000 0.58863  0.81807  0.80277  Biso   1.000  O
  O142     1.0000 0.22943  0.41137  0.80277  Biso   1.000  O
  O143     1.0000 0.92197  0.48473  0.46943  Biso   1.000  O
  O144     1.0000 0.56277  0.07803  0.46943  Biso   1.000  O
  C253     1.0000 0.91960  0.06350  0.59860  Biso   1.000  C
  C254     1.0000 0.93650  0.85610  0.59860  Biso   1.000  C
  C255     1.0000 0.14390  0.08040  0.59860  Biso   1.000  C
  C256     1.0000 0.06350  0.91960  0.90140  Biso   1.000  C
  C257     1.0000 0.58627  0.39683  0.93193  Biso   1.000  C
  C258     1.0000 0.60317  0.18943  0.93193  Biso   1.000  C
  C259     1.0000 0.81057  0.41373  0.93193  Biso   1.000  C
  C260     1.0000 0.73017  0.25293  0.23473  Biso   1.000  C
  C261     1.0000 0.25293  0.73017  0.26527  Biso   1.000  C
  C262     1.0000 0.39683  0.58627  0.56807  Biso   1.000  C
  C263     1.0000 0.85610  0.93650  0.90140  Biso   1.000  C
  C264     1.0000 0.08040  0.14390  0.90140  Biso   1.000  C
  C265     1.0000 0.26983  0.52277  0.26527  Biso   1.000  C
  C266     1.0000 0.47723  0.74707  0.26527  Biso   1.000  C
  C267     1.0000 0.18943  0.60317  0.56807  Biso   1.000  C
  C268     1.0000 0.41373  0.81057  0.56807  Biso   1.000  C
  C269     1.0000 0.52277  0.26983  0.23473  Biso   1.000  C
  C270     1.0000 0.74707  0.47723  0.23473  Biso   1.000  C
  C271     1.0000 0.08040  0.93650  0.40140  Biso   1.000  C
  C272     1.0000 0.06350  0.14390  0.40140  Biso   1.000  C
  C273     1.0000 0.85610  0.91960  0.40140  Biso   1.000  C
  C274     1.0000 0.93650  0.08040  0.09860  Biso   1.000  C
  C275     1.0000 0.74707  0.26983  0.73473  Biso   1.000  C
  C276     1.0000 0.73017  0.47723  0.73473  Biso   1.000  C
  C277     1.0000 0.52277  0.25293  0.73473  Biso   1.000  C
  C278     1.0000 0.60317  0.41373  0.43193  Biso   1.000  C
  C279     1.0000 0.41373  0.60317  0.06807  Biso   1.000  C
  C280     1.0000 0.26983  0.74707  0.76527  Biso   1.000  C
  C281     1.0000 0.14390  0.06350  0.09860  Biso   1.000  C
  C282     1.0000 0.91960  0.85610  0.09860  Biso   1.000  C
  C283     1.0000 0.39683  0.81057  0.06807  Biso   1.000  C
  C284     1.0000 0.18943  0.58627  0.06807  Biso   1.000  C
  C285     1.0000 0.47723  0.73017  0.76527  Biso   1.000  C
  C286     1.0000 0.25293  0.52277  0.76527  Biso   1.000  C
  C287     1.0000 0.81057  0.39683  0.43193  Biso   1.000  C
  C288     1.0000 0.58627  0.18943  0.43193  Biso   1.000  C
