data_image0
_cell_length_a       22.0922
_cell_length_b       22.0922
_cell_length_c       21.3917
_cell_angle_alpha    90
_cell_angle_beta     90
_cell_angle_gamma    120

_symmetry_space_group_name_H-M    "P 1"
_symmetry_int_tables_number       1

loop_
  _symmetry_equiv_pos_as_xyz
  'x, y, z'

loop_
  _atom_site_label
  _atom_site_occupancy
  _atom_site_fract_x
  _atom_site_fract_y
  _atom_site_fract_z
  _atom_site_thermal_displace_type
  _atom_site_B_iso_or_equiv
  _atom_site_type_symbol
  Cu1      1.0000 0.32880  0.32873  0.75000  Biso   1.000  Cu
  Cu2      1.0000 0.67127  0.00007  0.75000  Biso   1.000  Cu
  Cu3      1.0000 0.99993  0.67120  0.75000  Biso   1.000  Cu
  Cu4      1.0000 0.99547  0.66206  0.08333  Biso   1.000  Cu
  Cu5      1.0000 0.33794  0.33340  0.08333  Biso   1.000  Cu
  Cu6      1.0000 0.66660  0.00453  0.08333  Biso   1.000  Cu
  Cu7      1.0000 0.66213  0.99540  0.41667  Biso   1.000  Cu
  Cu8      1.0000 0.00460  0.66674  0.41667  Biso   1.000  Cu
  Cu9      1.0000 0.33326  0.33787  0.41667  Biso   1.000  Cu
  Cu10     1.0000 0.67120  0.67127  0.25000  Biso   1.000  Cu
  Cu11     1.0000 0.32873  0.99993  0.25000  Biso   1.000  Cu
  Cu12     1.0000 0.00007  0.32880  0.25000  Biso   1.000  Cu
  Cu13     1.0000 0.33787  0.00460  0.58333  Biso   1.000  Cu
  Cu14     1.0000 0.99540  0.33326  0.58333  Biso   1.000  Cu
  Cu15     1.0000 0.66674  0.66213  0.58333  Biso   1.000  Cu
  Cu16     1.0000 0.00453  0.33794  0.91667  Biso   1.000  Cu
  Cu17     1.0000 0.66206  0.66660  0.91667  Biso   1.000  Cu
  Cu18     1.0000 0.33340  0.99547  0.91667  Biso   1.000  Cu
  O1       1.0000 0.29800  0.22890  0.73330  Biso   1.000  O
  O2       1.0000 0.77110  0.06910  0.73330  Biso   1.000  O
  O3       1.0000 0.93090  0.70200  0.73330  Biso   1.000  O
  O4       1.0000 0.22890  0.29800  0.76670  Biso   1.000  O
  O5       1.0000 0.96467  0.56223  0.06663  Biso   1.000  O
  O6       1.0000 0.43777  0.40243  0.06663  Biso   1.000  O
  O7       1.0000 0.59757  0.03533  0.06663  Biso   1.000  O
  O8       1.0000 0.89557  0.63133  0.10003  Biso   1.000  O
  O9       1.0000 0.63133  0.89557  0.39997  Biso   1.000  O
  O10      1.0000 0.56223  0.96467  0.43337  Biso   1.000  O
  O11      1.0000 0.06910  0.77110  0.76670  Biso   1.000  O
  O12      1.0000 0.70200  0.93090  0.76670  Biso   1.000  O
  O13      1.0000 0.10443  0.73577  0.39997  Biso   1.000  O
  O14      1.0000 0.26423  0.36867  0.39997  Biso   1.000  O
  O15      1.0000 0.40243  0.43777  0.43337  Biso   1.000  O
  O16      1.0000 0.03533  0.59757  0.43337  Biso   1.000  O
  O17      1.0000 0.73577  0.10443  0.10003  Biso   1.000  O
  O18      1.0000 0.36867  0.26423  0.10003  Biso   1.000  O
  O19      1.0000 0.70200  0.77110  0.26670  Biso   1.000  O
  O20      1.0000 0.22890  0.93090  0.26670  Biso   1.000  O
  O21      1.0000 0.06910  0.29800  0.26670  Biso   1.000  O
  O22      1.0000 0.77110  0.70200  0.23330  Biso   1.000  O
  O23      1.0000 0.36867  0.10443  0.60003  Biso   1.000  O
  O24      1.0000 0.89557  0.26423  0.60003  Biso   1.000  O
  O25      1.0000 0.73577  0.63133  0.60003  Biso   1.000  O
  O26      1.0000 0.43777  0.03533  0.56663  Biso   1.000  O
  O27      1.0000 0.03533  0.43777  0.93337  Biso   1.000  O
  O28      1.0000 0.10443  0.36867  0.89997  Biso   1.000  O
  O29      1.0000 0.93090  0.22890  0.23330  Biso   1.000  O
  O30      1.0000 0.29800  0.06910  0.23330  Biso   1.000  O
  O31      1.0000 0.56223  0.59757  0.93337  Biso   1.000  O
  O32      1.0000 0.40243  0.96467  0.93337  Biso   1.000  O
  O33      1.0000 0.26423  0.89557  0.89997  Biso   1.000  O
  O34      1.0000 0.63133  0.73577  0.89997  Biso   1.000  O
  O35      1.0000 0.59757  0.56223  0.56663  Biso   1.000  O
  O36      1.0000 0.96467  0.40243  0.56663  Biso   1.000  O
  H1       1.0000 0.32480  0.22430  0.72770  Biso   1.000  H
  H2       1.0000 0.77570  0.10050  0.72770  Biso   1.000  H
  H3       1.0000 0.89950  0.67520  0.72770  Biso   1.000  H
  H4       1.0000 0.22430  0.32480  0.77230  Biso   1.000  H
  H5       1.0000 0.99147  0.55763  0.06103  Biso   1.000  H
  H6       1.0000 0.44237  0.43383  0.06103  Biso   1.000  H
  H7       1.0000 0.56617  0.00853  0.06103  Biso   1.000  H
  H8       1.0000 0.89097  0.65813  0.10563  Biso   1.000  H
  H9       1.0000 0.65813  0.89097  0.39437  Biso   1.000  H
  H10      1.0000 0.55763  0.99147  0.43897  Biso   1.000  H
  H11      1.0000 0.10050  0.77570  0.77230  Biso   1.000  H
  H12      1.0000 0.67520  0.89950  0.77230  Biso   1.000  H
  H13      1.0000 0.10903  0.76717  0.39437  Biso   1.000  H
  H14      1.0000 0.23283  0.34187  0.39437  Biso   1.000  H
  H15      1.0000 0.43383  0.44237  0.43897  Biso   1.000  H
  H16      1.0000 0.00853  0.56617  0.43897  Biso   1.000  H
  H17      1.0000 0.76717  0.10903  0.10563  Biso   1.000  H
  H18      1.0000 0.34187  0.23283  0.10563  Biso   1.000  H
  H19      1.0000 0.67520  0.77570  0.27230  Biso   1.000  H
  H20      1.0000 0.22430  0.89950  0.27230  Biso   1.000  H
  H21      1.0000 0.10050  0.32480  0.27230  Biso   1.000  H
  H22      1.0000 0.77570  0.67520  0.22770  Biso   1.000  H
  H23      1.0000 0.34187  0.10903  0.60563  Biso   1.000  H
  H24      1.0000 0.89097  0.23283  0.60563  Biso   1.000  H
  H25      1.0000 0.76717  0.65813  0.60563  Biso   1.000  H
  H26      1.0000 0.44237  0.00853  0.56103  Biso   1.000  H
  H27      1.0000 0.00853  0.44237  0.93897  Biso   1.000  H
  H28      1.0000 0.10903  0.34187  0.89437  Biso   1.000  H
  H29      1.0000 0.89950  0.22430  0.22770  Biso   1.000  H
  H30      1.0000 0.32480  0.10050  0.22770  Biso   1.000  H
  H31      1.0000 0.55763  0.56617  0.93897  Biso   1.000  H
  H32      1.0000 0.43383  0.99147  0.93897  Biso   1.000  H
  H33      1.0000 0.23283  0.89097  0.89437  Biso   1.000  H
  H34      1.0000 0.65813  0.76717  0.89437  Biso   1.000  H
  H35      1.0000 0.56617  0.55763  0.56103  Biso   1.000  H
  H36      1.0000 0.99147  0.43383  0.56103  Biso   1.000  H
  H37      1.0000 0.26080  0.20270  0.70830  Biso   1.000  H
  H38      1.0000 0.79730  0.05810  0.70830  Biso   1.000  H
  H39      1.0000 0.94190  0.73920  0.70830  Biso   1.000  H
  H40      1.0000 0.20270  0.26080  0.79170  Biso   1.000  H
  H41      1.0000 0.92747  0.53603  0.04163  Biso   1.000  H
  H42      1.0000 0.46397  0.39143  0.04163  Biso   1.000  H
  H43      1.0000 0.60857  0.07253  0.04163  Biso   1.000  H
  H44      1.0000 0.86937  0.59413  0.12503  Biso   1.000  H
  H45      1.0000 0.59413  0.86937  0.37497  Biso   1.000  H
  H46      1.0000 0.53603  0.92747  0.45837  Biso   1.000  H
  H47      1.0000 0.05810  0.79730  0.79170  Biso   1.000  H
  H48      1.0000 0.73920  0.94190  0.79170  Biso   1.000  H
  H49      1.0000 0.13063  0.72477  0.37497  Biso   1.000  H
  H50      1.0000 0.27523  0.40587  0.37497  Biso   1.000  H
  H51      1.0000 0.39143  0.46397  0.45837  Biso   1.000  H
  H52      1.0000 0.07253  0.60857  0.45837  Biso   1.000  H
  H53      1.0000 0.72477  0.13063  0.12503  Biso   1.000  H
  H54      1.0000 0.40587  0.27523  0.12503  Biso   1.000  H
  H55      1.0000 0.73920  0.79730  0.29170  Biso   1.000  H
  H56      1.0000 0.20270  0.94190  0.29170  Biso   1.000  H
  H57      1.0000 0.05810  0.26080  0.29170  Biso   1.000  H
  H58      1.0000 0.79730  0.73920  0.20830  Biso   1.000  H
  H59      1.0000 0.40587  0.13063  0.62503  Biso   1.000  H
  H60      1.0000 0.86937  0.27523  0.62503  Biso   1.000  H
  H61      1.0000 0.72477  0.59413  0.62503  Biso   1.000  H
  H62      1.0000 0.46397  0.07253  0.54163  Biso   1.000  H
  H63      1.0000 0.07253  0.46397  0.95837  Biso   1.000  H
  H64      1.0000 0.13063  0.40587  0.87497  Biso   1.000  H
  H65      1.0000 0.94190  0.20270  0.20830  Biso   1.000  H
  H66      1.0000 0.26080  0.05810  0.20830  Biso   1.000  H
  H67      1.0000 0.53603  0.60857  0.95837  Biso   1.000  H
  H68      1.0000 0.39143  0.92747  0.95837  Biso   1.000  H
  H69      1.0000 0.27523  0.86937  0.87497  Biso   1.000  H
  H70      1.0000 0.59413  0.72477  0.87497  Biso   1.000  H
  H71      1.0000 0.60857  0.53603  0.54163  Biso   1.000  H
  H72      1.0000 0.92747  0.39143  0.54163  Biso   1.000  H
  N1       1.0000 0.39780  0.30670  0.45300  Biso   1.000  N
  N2       1.0000 0.69330  0.09110  0.45300  Biso   1.000  N
  N3       1.0000 0.90890  0.60220  0.45300  Biso   1.000  N
  N4       1.0000 0.30670  0.39780  0.04700  Biso   1.000  N
  N5       1.0000 0.06447  0.64003  0.78633  Biso   1.000  N
  N6       1.0000 0.35997  0.42443  0.78633  Biso   1.000  N
  N7       1.0000 0.57557  0.93553  0.78633  Biso   1.000  N
  N8       1.0000 0.97337  0.73113  0.38033  Biso   1.000  N
  N9       1.0000 0.73113  0.97337  0.11967  Biso   1.000  N
  N10      1.0000 0.64003  0.06447  0.71367  Biso   1.000  N
  N11      1.0000 0.09110  0.69330  0.04700  Biso   1.000  N
  N12      1.0000 0.60220  0.90890  0.04700  Biso   1.000  N
  N13      1.0000 0.02663  0.75777  0.11967  Biso   1.000  N
  N14      1.0000 0.24223  0.26887  0.11967  Biso   1.000  N
  N15      1.0000 0.42443  0.35997  0.71367  Biso   1.000  N
  N16      1.0000 0.93553  0.57557  0.71367  Biso   1.000  N
  N17      1.0000 0.75777  0.02663  0.38033  Biso   1.000  N
  N18      1.0000 0.26887  0.24223  0.38033  Biso   1.000  N
  N19      1.0000 0.60220  0.69330  0.54700  Biso   1.000  N
  N20      1.0000 0.30670  0.90890  0.54700  Biso   1.000  N
  N21      1.0000 0.09110  0.39780  0.54700  Biso   1.000  N
  N22      1.0000 0.69330  0.60220  0.95300  Biso   1.000  N
  N23      1.0000 0.26887  0.02663  0.88033  Biso   1.000  N
  N24      1.0000 0.97337  0.24223  0.88033  Biso   1.000  N
  N25      1.0000 0.75777  0.73113  0.88033  Biso   1.000  N
  N26      1.0000 0.35997  0.93553  0.28633  Biso   1.000  N
  N27      1.0000 0.93553  0.35997  0.21367  Biso   1.000  N
  N28      1.0000 0.02663  0.26887  0.61967  Biso   1.000  N
  N29      1.0000 0.90890  0.30670  0.95300  Biso   1.000  N
  N30      1.0000 0.39780  0.09110  0.95300  Biso   1.000  N
  N31      1.0000 0.64003  0.57557  0.21367  Biso   1.000  N
  N32      1.0000 0.42443  0.06447  0.21367  Biso   1.000  N
  N33      1.0000 0.24223  0.97337  0.61967  Biso   1.000  N
  N34      1.0000 0.73113  0.75777  0.61967  Biso   1.000  N
  N35      1.0000 0.57557  0.64003  0.28633  Biso   1.000  N
  N36      1.0000 0.06447  0.42443  0.28633  Biso   1.000  N
  N37      1.0000 0.30120  0.31700  0.52130  Biso   1.000  N
  N38      1.0000 0.68300  0.98420  0.52130  Biso   1.000  N
  N39      1.0000 0.01580  0.69880  0.52130  Biso   1.000  N
  N40      1.0000 0.31700  0.30120  0.97870  Biso   1.000  N
  N41      1.0000 0.96787  0.65033  0.85463  Biso   1.000  N
  N42      1.0000 0.34967  0.31753  0.85463  Biso   1.000  N
  N43      1.0000 0.68247  0.03213  0.85463  Biso   1.000  N
  N44      1.0000 0.98367  0.63453  0.31203  Biso   1.000  N
  N45      1.0000 0.63453  0.98367  0.18797  Biso   1.000  N
  N46      1.0000 0.65033  0.96787  0.64537  Biso   1.000  N
  N47      1.0000 0.98420  0.68300  0.97870  Biso   1.000  N
  N48      1.0000 0.69880  0.01580  0.97870  Biso   1.000  N
  N49      1.0000 0.01633  0.65087  0.18797  Biso   1.000  N
  N50      1.0000 0.34913  0.36547  0.18797  Biso   1.000  N
  N51      1.0000 0.31753  0.34967  0.64537  Biso   1.000  N
  N52      1.0000 0.03213  0.68247  0.64537  Biso   1.000  N
  N53      1.0000 0.65087  0.01633  0.31203  Biso   1.000  N
  N54      1.0000 0.36547  0.34913  0.31203  Biso   1.000  N
  N55      1.0000 0.69880  0.68300  0.47870  Biso   1.000  N
  N56      1.0000 0.31700  0.01580  0.47870  Biso   1.000  N
  N57      1.0000 0.98420  0.30120  0.47870  Biso   1.000  N
  N58      1.0000 0.68300  0.69880  0.02130  Biso   1.000  N
  N59      1.0000 0.36547  0.01633  0.81203  Biso   1.000  N
  N60      1.0000 0.98367  0.34913  0.81203  Biso   1.000  N
  N61      1.0000 0.65087  0.63453  0.81203  Biso   1.000  N
  N62      1.0000 0.34967  0.03213  0.35463  Biso   1.000  N
  N63      1.0000 0.03213  0.34967  0.14537  Biso   1.000  N
  N64      1.0000 0.01633  0.36547  0.68797  Biso   1.000  N
  N65      1.0000 0.01580  0.31700  0.02130  Biso   1.000  N
  N66      1.0000 0.30120  0.98420  0.02130  Biso   1.000  N
  N67      1.0000 0.65033  0.68247  0.14537  Biso   1.000  N
  N68      1.0000 0.31753  0.96787  0.14537  Biso   1.000  N
  N69      1.0000 0.34913  0.98367  0.68797  Biso   1.000  N
  N70      1.0000 0.63453  0.65087  0.68797  Biso   1.000  N
  N71      1.0000 0.68247  0.65033  0.35463  Biso   1.000  N
  N72      1.0000 0.96787  0.31753  0.35463  Biso   1.000  N
  C1       1.0000 0.43310  0.28560  0.41650  Biso   1.000  C
  C2       1.0000 0.71440  0.14750  0.41650  Biso   1.000  C
  C3       1.0000 0.85250  0.56690  0.41650  Biso   1.000  C
  C4       1.0000 0.28560  0.43310  0.08350  Biso   1.000  C
  C5       1.0000 0.09977  0.61893  0.74983  Biso   1.000  C
  C6       1.0000 0.38107  0.48083  0.74983  Biso   1.000  C
  C7       1.0000 0.51917  0.90023  0.74983  Biso   1.000  C
  C8       1.0000 0.95227  0.76643  0.41683  Biso   1.000  C
  C9       1.0000 0.76643  0.95227  0.08317  Biso   1.000  C
  C10      1.0000 0.61893  0.09977  0.75017  Biso   1.000  C
  C11      1.0000 0.14750  0.71440  0.08350  Biso   1.000  C
  C12      1.0000 0.56690  0.85250  0.08350  Biso   1.000  C
  C13      1.0000 0.04773  0.81417  0.08317  Biso   1.000  C
  C14      1.0000 0.18583  0.23357  0.08317  Biso   1.000  C
  C15      1.0000 0.48083  0.38107  0.75017  Biso   1.000  C
  C16      1.0000 0.90023  0.51917  0.75017  Biso   1.000  C
  C17      1.0000 0.81417  0.04773  0.41683  Biso   1.000  C
  C18      1.0000 0.23357  0.18583  0.41683  Biso   1.000  C
  C19      1.0000 0.56690  0.71440  0.58350  Biso   1.000  C
  C20      1.0000 0.28560  0.85250  0.58350  Biso   1.000  C
  C21      1.0000 0.14750  0.43310  0.58350  Biso   1.000  C
  C22      1.0000 0.71440  0.56690  0.91650  Biso   1.000  C
  C23      1.0000 0.23357  0.04773  0.91683  Biso   1.000  C
  C24      1.0000 0.95227  0.18583  0.91683  Biso   1.000  C
  C25      1.0000 0.81417  0.76643  0.91683  Biso   1.000  C
  C26      1.0000 0.38107  0.90023  0.24983  Biso   1.000  C
  C27      1.0000 0.90023  0.38107  0.25017  Biso   1.000  C
  C28      1.0000 0.04773  0.23357  0.58317  Biso   1.000  C
  C29      1.0000 0.85250  0.28560  0.91650  Biso   1.000  C
  C30      1.0000 0.43310  0.14750  0.91650  Biso   1.000  C
  C31      1.0000 0.61893  0.51917  0.25017  Biso   1.000  C
  C32      1.0000 0.48083  0.09977  0.25017  Biso   1.000  C
  C33      1.0000 0.18583  0.95227  0.58317  Biso   1.000  C
  C34      1.0000 0.76643  0.81417  0.58317  Biso   1.000  C
  C35      1.0000 0.51917  0.61893  0.24983  Biso   1.000  C
  C36      1.0000 0.09977  0.48083  0.24983  Biso   1.000  C
  H73      1.0000 0.43280  0.29160  0.37340  Biso   1.000  H
  H74      1.0000 0.70840  0.14120  0.37340  Biso   1.000  H
  H75      1.0000 0.85880  0.56720  0.37340  Biso   1.000  H
  H76      1.0000 0.29160  0.43280  0.12660  Biso   1.000  H
  H77      1.0000 0.09947  0.62493  0.70673  Biso   1.000  H
  H78      1.0000 0.37507  0.47453  0.70673  Biso   1.000  H
  H79      1.0000 0.52547  0.90053  0.70673  Biso   1.000  H
  H80      1.0000 0.95827  0.76613  0.45993  Biso   1.000  H
  H81      1.0000 0.76613  0.95827  0.04007  Biso   1.000  H
  H82      1.0000 0.62493  0.09947  0.79327  Biso   1.000  H
  H83      1.0000 0.14120  0.70840  0.12660  Biso   1.000  H
  H84      1.0000 0.56720  0.85880  0.12660  Biso   1.000  H
  H85      1.0000 0.04173  0.80787  0.04007  Biso   1.000  H
  H86      1.0000 0.19213  0.23387  0.04007  Biso   1.000  H
  H87      1.0000 0.47453  0.37507  0.79327  Biso   1.000  H
  H88      1.0000 0.90053  0.52547  0.79327  Biso   1.000  H
  H89      1.0000 0.80787  0.04173  0.45993  Biso   1.000  H
  H90      1.0000 0.23387  0.19213  0.45993  Biso   1.000  H
  H91      1.0000 0.56720  0.70840  0.62660  Biso   1.000  H
  H92      1.0000 0.29160  0.85880  0.62660  Biso   1.000  H
  H93      1.0000 0.14120  0.43280  0.62660  Biso   1.000  H
  H94      1.0000 0.70840  0.56720  0.87340  Biso   1.000  H
  H95      1.0000 0.23387  0.04173  0.95993  Biso   1.000  H
  H96      1.0000 0.95827  0.19213  0.95993  Biso   1.000  H
  H97      1.0000 0.80787  0.76613  0.95993  Biso   1.000  H
  H98      1.0000 0.37507  0.90053  0.20673  Biso   1.000  H
  H99      1.0000 0.90053  0.37507  0.29327  Biso   1.000  H
  H100     1.0000 0.04173  0.23387  0.54007  Biso   1.000  H
  H101     1.0000 0.85880  0.29160  0.87340  Biso   1.000  H
  H102     1.0000 0.43280  0.14120  0.87340  Biso   1.000  H
  H103     1.0000 0.62493  0.52547  0.29327  Biso   1.000  H
  H104     1.0000 0.47453  0.09947  0.29327  Biso   1.000  H
  H105     1.0000 0.19213  0.95827  0.54007  Biso   1.000  H
  H106     1.0000 0.76613  0.80787  0.54007  Biso   1.000  H
  H107     1.0000 0.52547  0.62493  0.20673  Biso   1.000  H
  H108     1.0000 0.09947  0.47453  0.20673  Biso   1.000  H
  C37      1.0000 0.46990  0.25580  0.44020  Biso   1.000  C
  C38      1.0000 0.74420  0.21410  0.44020  Biso   1.000  C
  C39      1.0000 0.78590  0.53010  0.44020  Biso   1.000  C
  C40      1.0000 0.25580  0.46990  0.05980  Biso   1.000  C
  C41      1.0000 0.13657  0.58913  0.77353  Biso   1.000  C
  C42      1.0000 0.41087  0.54743  0.77353  Biso   1.000  C
  C43      1.0000 0.45257  0.86343  0.77353  Biso   1.000  C
  C44      1.0000 0.92247  0.80323  0.39313  Biso   1.000  C
  C45      1.0000 0.80323  0.92247  0.10687  Biso   1.000  C
  C46      1.0000 0.58913  0.13657  0.72647  Biso   1.000  C
  C47      1.0000 0.21410  0.74420  0.05980  Biso   1.000  C
  C48      1.0000 0.53010  0.78590  0.05980  Biso   1.000  C
  C49      1.0000 0.07753  0.88077  0.10687  Biso   1.000  C
  C50      1.0000 0.11923  0.19677  0.10687  Biso   1.000  C
  C51      1.0000 0.54743  0.41087  0.72647  Biso   1.000  C
  C52      1.0000 0.86343  0.45257  0.72647  Biso   1.000  C
  C53      1.0000 0.88077  0.07753  0.39313  Biso   1.000  C
  C54      1.0000 0.19677  0.11923  0.39313  Biso   1.000  C
  C55      1.0000 0.53010  0.74420  0.55980  Biso   1.000  C
  C56      1.0000 0.25580  0.78590  0.55980  Biso   1.000  C
  C57      1.0000 0.21410  0.46990  0.55980  Biso   1.000  C
  C58      1.0000 0.74420  0.53010  0.94020  Biso   1.000  C
  C59      1.0000 0.19677  0.07753  0.89313  Biso   1.000  C
  C60      1.0000 0.92247  0.11923  0.89313  Biso   1.000  C
  C61      1.0000 0.88077  0.80323  0.89313  Biso   1.000  C
  C62      1.0000 0.41087  0.86343  0.27353  Biso   1.000  C
  C63      1.0000 0.86343  0.41087  0.22647  Biso   1.000  C
  C64      1.0000 0.07753  0.19677  0.60687  Biso   1.000  C
  C65      1.0000 0.78590  0.25580  0.94020  Biso   1.000  C
  C66      1.0000 0.46990  0.21410  0.94020  Biso   1.000  C
  C67      1.0000 0.58913  0.45257  0.22647  Biso   1.000  C
  C68      1.0000 0.54743  0.13657  0.22647  Biso   1.000  C
  C69      1.0000 0.11923  0.92247  0.60687  Biso   1.000  C
  C70      1.0000 0.80323  0.88077  0.60687  Biso   1.000  C
  C71      1.0000 0.45257  0.58913  0.27353  Biso   1.000  C
  C72      1.0000 0.13657  0.54743  0.27353  Biso   1.000  C
  H109     1.0000 0.49540  0.24310  0.41420  Biso   1.000  H
  H110     1.0000 0.75690  0.25230  0.41420  Biso   1.000  H
  H111     1.0000 0.74770  0.50460  0.41420  Biso   1.000  H
  H112     1.0000 0.24310  0.49540  0.08580  Biso   1.000  H
  H113     1.0000 0.16207  0.57643  0.74753  Biso   1.000  H
  H114     1.0000 0.42357  0.58563  0.74753  Biso   1.000  H
  H115     1.0000 0.41437  0.83793  0.74753  Biso   1.000  H
  H116     1.0000 0.90977  0.82873  0.41913  Biso   1.000  H
  H117     1.0000 0.82873  0.90977  0.08087  Biso   1.000  H
  H118     1.0000 0.57643  0.16207  0.75247  Biso   1.000  H
  H119     1.0000 0.25230  0.75690  0.08580  Biso   1.000  H
  H120     1.0000 0.50460  0.74770  0.08580  Biso   1.000  H
  H121     1.0000 0.09023  0.91897  0.08087  Biso   1.000  H
  H122     1.0000 0.08103  0.17127  0.08087  Biso   1.000  H
  H123     1.0000 0.58563  0.42357  0.75247  Biso   1.000  H
  H124     1.0000 0.83793  0.41437  0.75247  Biso   1.000  H
  H125     1.0000 0.91897  0.09023  0.41913  Biso   1.000  H
  H126     1.0000 0.17127  0.08103  0.41913  Biso   1.000  H
  H127     1.0000 0.50460  0.75690  0.58580  Biso   1.000  H
  H128     1.0000 0.24310  0.74770  0.58580  Biso   1.000  H
  H129     1.0000 0.25230  0.49540  0.58580  Biso   1.000  H
  H130     1.0000 0.75690  0.50460  0.91420  Biso   1.000  H
  H131     1.0000 0.17127  0.09023  0.91913  Biso   1.000  H
  H132     1.0000 0.90977  0.08103  0.91913  Biso   1.000  H
  H133     1.0000 0.91897  0.82873  0.91913  Biso   1.000  H
  H134     1.0000 0.42357  0.83793  0.24753  Biso   1.000  H
  H135     1.0000 0.83793  0.42357  0.25247  Biso   1.000  H
  H136     1.0000 0.09023  0.17127  0.58087  Biso   1.000  H
  H137     1.0000 0.74770  0.24310  0.91420  Biso   1.000  H
  H138     1.0000 0.49540  0.25230  0.91420  Biso   1.000  H
  H139     1.0000 0.57643  0.41437  0.25247  Biso   1.000  H
  H140     1.0000 0.58563  0.16207  0.25247  Biso   1.000  H
  H141     1.0000 0.08103  0.90977  0.58087  Biso   1.000  H
  H142     1.0000 0.82873  0.91897  0.58087  Biso   1.000  H
  H143     1.0000 0.41437  0.57643  0.24753  Biso   1.000  H
  H144     1.0000 0.16207  0.58563  0.24753  Biso   1.000  H
  C73      1.0000 0.46780  0.24520  0.50380  Biso   1.000  C
  C74      1.0000 0.75480  0.22260  0.50380  Biso   1.000  C
  C75      1.0000 0.77740  0.53220  0.50380  Biso   1.000  C
  C76      1.0000 0.24520  0.46780  0.99620  Biso   1.000  C
  C77      1.0000 0.13447  0.57853  0.83713  Biso   1.000  C
  C78      1.0000 0.42147  0.55593  0.83713  Biso   1.000  C
  C79      1.0000 0.44407  0.86553  0.83713  Biso   1.000  C
  C80      1.0000 0.91187  0.80113  0.32953  Biso   1.000  C
  C81      1.0000 0.80113  0.91187  0.17047  Biso   1.000  C
  C82      1.0000 0.57853  0.13447  0.66287  Biso   1.000  C
  C83      1.0000 0.22260  0.75480  0.99620  Biso   1.000  C
  C84      1.0000 0.53220  0.77740  0.99620  Biso   1.000  C
  C85      1.0000 0.08813  0.88927  0.17047  Biso   1.000  C
  C86      1.0000 0.11073  0.19887  0.17047  Biso   1.000  C
  C87      1.0000 0.55593  0.42147  0.66287  Biso   1.000  C
  C88      1.0000 0.86553  0.44407  0.66287  Biso   1.000  C
  C89      1.0000 0.88927  0.08813  0.32953  Biso   1.000  C
  C90      1.0000 0.19887  0.11073  0.32953  Biso   1.000  C
  C91      1.0000 0.53220  0.75480  0.49620  Biso   1.000  C
  C92      1.0000 0.24520  0.77740  0.49620  Biso   1.000  C
  C93      1.0000 0.22260  0.46780  0.49620  Biso   1.000  C
  C94      1.0000 0.75480  0.53220  0.00380  Biso   1.000  C
  C95      1.0000 0.19887  0.08813  0.82953  Biso   1.000  C
  C96      1.0000 0.91187  0.11073  0.82953  Biso   1.000  C
  C97      1.0000 0.88927  0.80113  0.82953  Biso   1.000  C
  C98      1.0000 0.42147  0.86553  0.33713  Biso   1.000  C
  C99      1.0000 0.86553  0.42147  0.16287  Biso   1.000  C
  C100     1.0000 0.08813  0.19887  0.67047  Biso   1.000  C
  C101     1.0000 0.77740  0.24520  0.00380  Biso   1.000  C
  C102     1.0000 0.46780  0.22260  0.00380  Biso   1.000  C
  C103     1.0000 0.57853  0.44407  0.16287  Biso   1.000  C
  C104     1.0000 0.55593  0.13447  0.16287  Biso   1.000  C
  C105     1.0000 0.11073  0.91187  0.67047  Biso   1.000  C
  C106     1.0000 0.80113  0.88927  0.67047  Biso   1.000  C
  C107     1.0000 0.44407  0.57853  0.33713  Biso   1.000  C
  C108     1.0000 0.13447  0.55593  0.33713  Biso   1.000  C
  H145     1.0000 0.48990  0.22260  0.52090  Biso   1.000  H
  H146     1.0000 0.77740  0.26730  0.52090  Biso   1.000  H
  H147     1.0000 0.73270  0.51010  0.52090  Biso   1.000  H
  H148     1.0000 0.22260  0.48990  0.97910  Biso   1.000  H
  H149     1.0000 0.15657  0.55593  0.85423  Biso   1.000  H
  H150     1.0000 0.44407  0.60063  0.85423  Biso   1.000  H
  H151     1.0000 0.39937  0.84343  0.85423  Biso   1.000  H
  H152     1.0000 0.88927  0.82323  0.31243  Biso   1.000  H
  H153     1.0000 0.82323  0.88927  0.18757  Biso   1.000  H
  H154     1.0000 0.55593  0.15657  0.64577  Biso   1.000  H
  H155     1.0000 0.26730  0.77740  0.97910  Biso   1.000  H
  H156     1.0000 0.51010  0.73270  0.97910  Biso   1.000  H
  H157     1.0000 0.11073  0.93397  0.18757  Biso   1.000  H
  H158     1.0000 0.06603  0.17677  0.18757  Biso   1.000  H
  H159     1.0000 0.60063  0.44407  0.64577  Biso   1.000  H
  H160     1.0000 0.84343  0.39937  0.64577  Biso   1.000  H
  H161     1.0000 0.93397  0.11073  0.31243  Biso   1.000  H
  H162     1.0000 0.17677  0.06603  0.31243  Biso   1.000  H
  H163     1.0000 0.51010  0.77740  0.47910  Biso   1.000  H
  H164     1.0000 0.22260  0.73270  0.47910  Biso   1.000  H
  H165     1.0000 0.26730  0.48990  0.47910  Biso   1.000  H
  H166     1.0000 0.77740  0.51010  0.02090  Biso   1.000  H
  H167     1.0000 0.17677  0.11073  0.81243  Biso   1.000  H
  H168     1.0000 0.88927  0.06603  0.81243  Biso   1.000  H
  H169     1.0000 0.93397  0.82323  0.81243  Biso   1.000  H
  H170     1.0000 0.44407  0.84343  0.35423  Biso   1.000  H
  H171     1.0000 0.84343  0.44407  0.14577  Biso   1.000  H
  H172     1.0000 0.11073  0.17677  0.68757  Biso   1.000  H
  H173     1.0000 0.73270  0.22260  0.02090  Biso   1.000  H
  H174     1.0000 0.48990  0.26730  0.02090  Biso   1.000  H
  H175     1.0000 0.55593  0.39937  0.14577  Biso   1.000  H
  H176     1.0000 0.60063  0.15657  0.14577  Biso   1.000  H
  H177     1.0000 0.06603  0.88927  0.68757  Biso   1.000  H
  H178     1.0000 0.82323  0.93397  0.68757  Biso   1.000  H
  H179     1.0000 0.39937  0.55593  0.35423  Biso   1.000  H
  H180     1.0000 0.15657  0.60063  0.35423  Biso   1.000  H
  C109     1.0000 0.43290  0.26770  0.54200  Biso   1.000  C
  C110     1.0000 0.73230  0.16520  0.54200  Biso   1.000  C
  C111     1.0000 0.83480  0.56710  0.54200  Biso   1.000  C
  C112     1.0000 0.26770  0.43290  0.95800  Biso   1.000  C
  C113     1.0000 0.09957  0.60103  0.87533  Biso   1.000  C
  C114     1.0000 0.39897  0.49853  0.87533  Biso   1.000  C
  C115     1.0000 0.50147  0.90043  0.87533  Biso   1.000  C
  C116     1.0000 0.93437  0.76623  0.29133  Biso   1.000  C
  C117     1.0000 0.76623  0.93437  0.20867  Biso   1.000  C
  C118     1.0000 0.60103  0.09957  0.62467  Biso   1.000  C
  C119     1.0000 0.16520  0.73230  0.95800  Biso   1.000  C
  C120     1.0000 0.56710  0.83480  0.95800  Biso   1.000  C
  C121     1.0000 0.06563  0.83187  0.20867  Biso   1.000  C
  C122     1.0000 0.16813  0.23377  0.20867  Biso   1.000  C
  C123     1.0000 0.49853  0.39897  0.62467  Biso   1.000  C
  C124     1.0000 0.90043  0.50147  0.62467  Biso   1.000  C
  C125     1.0000 0.83187  0.06563  0.29133  Biso   1.000  C
  C126     1.0000 0.23377  0.16813  0.29133  Biso   1.000  C
  C127     1.0000 0.56710  0.73230  0.45800  Biso   1.000  C
  C128     1.0000 0.26770  0.83480  0.45800  Biso   1.000  C
  C129     1.0000 0.16520  0.43290  0.45800  Biso   1.000  C
  C130     1.0000 0.73230  0.56710  0.04200  Biso   1.000  C
  C131     1.0000 0.23377  0.06563  0.79133  Biso   1.000  C
  C132     1.0000 0.93437  0.16813  0.79133  Biso   1.000  C
  C133     1.0000 0.83187  0.76623  0.79133  Biso   1.000  C
  C134     1.0000 0.39897  0.90043  0.37533  Biso   1.000  C
  C135     1.0000 0.90043  0.39897  0.12467  Biso   1.000  C
  C136     1.0000 0.06563  0.23377  0.70867  Biso   1.000  C
  C137     1.0000 0.83480  0.26770  0.04200  Biso   1.000  C
  C138     1.0000 0.43290  0.16520  0.04200  Biso   1.000  C
  C139     1.0000 0.60103  0.50147  0.12467  Biso   1.000  C
  C140     1.0000 0.49853  0.09957  0.12467  Biso   1.000  C
  C141     1.0000 0.16813  0.93437  0.70867  Biso   1.000  C
  C142     1.0000 0.76623  0.83187  0.70867  Biso   1.000  C
  C143     1.0000 0.50147  0.60103  0.37533  Biso   1.000  C
  C144     1.0000 0.09957  0.49853  0.37533  Biso   1.000  C
  H181     1.0000 0.43260  0.26180  0.58510  Biso   1.000  H
  H182     1.0000 0.73820  0.17080  0.58510  Biso   1.000  H
  H183     1.0000 0.82920  0.56740  0.58510  Biso   1.000  H
  H184     1.0000 0.26180  0.43260  0.91490  Biso   1.000  H
  H185     1.0000 0.09927  0.59513  0.91843  Biso   1.000  H
  H186     1.0000 0.40487  0.50413  0.91843  Biso   1.000  H
  H187     1.0000 0.49587  0.90073  0.91843  Biso   1.000  H
  H188     1.0000 0.92847  0.76593  0.24823  Biso   1.000  H
  H189     1.0000 0.76593  0.92847  0.25177  Biso   1.000  H
  H190     1.0000 0.59513  0.09927  0.58157  Biso   1.000  H
  H191     1.0000 0.17080  0.73820  0.91490  Biso   1.000  H
  H192     1.0000 0.56740  0.82920  0.91490  Biso   1.000  H
  H193     1.0000 0.07153  0.83747  0.25177  Biso   1.000  H
  H194     1.0000 0.16253  0.23407  0.25177  Biso   1.000  H
  H195     1.0000 0.50413  0.40487  0.58157  Biso   1.000  H
  H196     1.0000 0.90073  0.49587  0.58157  Biso   1.000  H
  H197     1.0000 0.83747  0.07153  0.24823  Biso   1.000  H
  H198     1.0000 0.23407  0.16253  0.24823  Biso   1.000  H
  H199     1.0000 0.56740  0.73820  0.41490  Biso   1.000  H
  H200     1.0000 0.26180  0.82920  0.41490  Biso   1.000  H
  H201     1.0000 0.17080  0.43260  0.41490  Biso   1.000  H
  H202     1.0000 0.73820  0.56740  0.08510  Biso   1.000  H
  H203     1.0000 0.23407  0.07153  0.74823  Biso   1.000  H
  H204     1.0000 0.92847  0.16253  0.74823  Biso   1.000  H
  H205     1.0000 0.83747  0.76593  0.74823  Biso   1.000  H
  H206     1.0000 0.40487  0.90073  0.41843  Biso   1.000  H
  H207     1.0000 0.90073  0.40487  0.08157  Biso   1.000  H
  H208     1.0000 0.07153  0.23407  0.75177  Biso   1.000  H
  H209     1.0000 0.82920  0.26180  0.08510  Biso   1.000  H
  H210     1.0000 0.43260  0.17080  0.08510  Biso   1.000  H
  H211     1.0000 0.59513  0.49587  0.08157  Biso   1.000  H
  H212     1.0000 0.50413  0.09927  0.08157  Biso   1.000  H
  H213     1.0000 0.16253  0.92847  0.75177  Biso   1.000  H
  H214     1.0000 0.76593  0.83747  0.75177  Biso   1.000  H
  H215     1.0000 0.49587  0.59513  0.41843  Biso   1.000  H
  H216     1.0000 0.09927  0.50413  0.41843  Biso   1.000  H
  C145     1.0000 0.39880  0.29900  0.51590  Biso   1.000  C
  C146     1.0000 0.70100  0.09980  0.51590  Biso   1.000  C
  C147     1.0000 0.90020  0.60120  0.51590  Biso   1.000  C
  C148     1.0000 0.29900  0.39880  0.98410  Biso   1.000  C
  C149     1.0000 0.06547  0.63233  0.84923  Biso   1.000  C
  C150     1.0000 0.36767  0.43313  0.84923  Biso   1.000  C
  C151     1.0000 0.56687  0.93453  0.84923  Biso   1.000  C
  C152     1.0000 0.96567  0.73213  0.31743  Biso   1.000  C
  C153     1.0000 0.73213  0.96567  0.18257  Biso   1.000  C
  C154     1.0000 0.63233  0.06547  0.65077  Biso   1.000  C
  C155     1.0000 0.09980  0.70100  0.98410  Biso   1.000  C
  C156     1.0000 0.60120  0.90020  0.98410  Biso   1.000  C
  C157     1.0000 0.03433  0.76647  0.18257  Biso   1.000  C
  C158     1.0000 0.23353  0.26787  0.18257  Biso   1.000  C
  C159     1.0000 0.43313  0.36767  0.65077  Biso   1.000  C
  C160     1.0000 0.93453  0.56687  0.65077  Biso   1.000  C
  C161     1.0000 0.76647  0.03433  0.31743  Biso   1.000  C
  C162     1.0000 0.26787  0.23353  0.31743  Biso   1.000  C
  C163     1.0000 0.60120  0.70100  0.48410  Biso   1.000  C
  C164     1.0000 0.29900  0.90020  0.48410  Biso   1.000  C
  C165     1.0000 0.09980  0.39880  0.48410  Biso   1.000  C
  C166     1.0000 0.70100  0.60120  0.01590  Biso   1.000  C
  C167     1.0000 0.26787  0.03433  0.81743  Biso   1.000  C
  C168     1.0000 0.96567  0.23353  0.81743  Biso   1.000  C
  C169     1.0000 0.76647  0.73213  0.81743  Biso   1.000  C
  C170     1.0000 0.36767  0.93453  0.34923  Biso   1.000  C
  C171     1.0000 0.93453  0.36767  0.15077  Biso   1.000  C
  C172     1.0000 0.03433  0.26787  0.68257  Biso   1.000  C
  C173     1.0000 0.90020  0.29900  0.01590  Biso   1.000  C
  C174     1.0000 0.39880  0.09980  0.01590  Biso   1.000  C
  C175     1.0000 0.63233  0.56687  0.15077  Biso   1.000  C
  C176     1.0000 0.43313  0.06547  0.15077  Biso   1.000  C
  C177     1.0000 0.23353  0.96567  0.68257  Biso   1.000  C
  C178     1.0000 0.73213  0.76647  0.68257  Biso   1.000  C
  C179     1.0000 0.56687  0.63233  0.34923  Biso   1.000  C
  C180     1.0000 0.06547  0.43313  0.34923  Biso   1.000  C
  C181     1.0000 0.35630  0.32200  0.55180  Biso   1.000  C
  C182     1.0000 0.67800  0.03430  0.55180  Biso   1.000  C
  C183     1.0000 0.96570  0.64370  0.55180  Biso   1.000  C
  C184     1.0000 0.32200  0.35630  0.94820  Biso   1.000  C
  C185     1.0000 0.02297  0.65533  0.88513  Biso   1.000  C
  C186     1.0000 0.34467  0.36763  0.88513  Biso   1.000  C
  C187     1.0000 0.63237  0.97703  0.88513  Biso   1.000  C
  C188     1.0000 0.98867  0.68963  0.28153  Biso   1.000  C
  C189     1.0000 0.68963  0.98867  0.21847  Biso   1.000  C
  C190     1.0000 0.65533  0.02297  0.61487  Biso   1.000  C
  C191     1.0000 0.03430  0.67800  0.94820  Biso   1.000  C
  C192     1.0000 0.64370  0.96570  0.94820  Biso   1.000  C
  C193     1.0000 0.01133  0.70097  0.21847  Biso   1.000  C
  C194     1.0000 0.29903  0.31037  0.21847  Biso   1.000  C
  C195     1.0000 0.36763  0.34467  0.61487  Biso   1.000  C
  C196     1.0000 0.97703  0.63237  0.61487  Biso   1.000  C
  C197     1.0000 0.70097  0.01133  0.28153  Biso   1.000  C
  C198     1.0000 0.31037  0.29903  0.28153  Biso   1.000  C
  C199     1.0000 0.64370  0.67800  0.44820  Biso   1.000  C
  C200     1.0000 0.32200  0.96570  0.44820  Biso   1.000  C
  C201     1.0000 0.03430  0.35630  0.44820  Biso   1.000  C
  C202     1.0000 0.67800  0.64370  0.05180  Biso   1.000  C
  C203     1.0000 0.31037  0.01133  0.78153  Biso   1.000  C
  C204     1.0000 0.98867  0.29903  0.78153  Biso   1.000  C
  C205     1.0000 0.70097  0.68963  0.78153  Biso   1.000  C
  C206     1.0000 0.34467  0.97703  0.38513  Biso   1.000  C
  C207     1.0000 0.97703  0.34467  0.11487  Biso   1.000  C
  C208     1.0000 0.01133  0.31037  0.71847  Biso   1.000  C
  C209     1.0000 0.96570  0.32200  0.05180  Biso   1.000  C
  C210     1.0000 0.35630  0.03430  0.05180  Biso   1.000  C
  C211     1.0000 0.65533  0.63237  0.11487  Biso   1.000  C
  C212     1.0000 0.36763  0.02297  0.11487  Biso   1.000  C
  C213     1.0000 0.29903  0.98867  0.71847  Biso   1.000  C
  C214     1.0000 0.68963  0.70097  0.71847  Biso   1.000  C
  C215     1.0000 0.63237  0.65533  0.38513  Biso   1.000  C
  C216     1.0000 0.02297  0.36763  0.38513  Biso   1.000  C
  C217     1.0000 0.25490  0.32680  0.55130  Biso   1.000  C
  C218     1.0000 0.67320  0.92810  0.55130  Biso   1.000  C
  C219     1.0000 0.07190  0.74510  0.55130  Biso   1.000  C
  C220     1.0000 0.32680  0.25490  0.94870  Biso   1.000  C
  C221     1.0000 0.92157  0.66013  0.88463  Biso   1.000  C
  C222     1.0000 0.33987  0.26143  0.88463  Biso   1.000  C
  C223     1.0000 0.73857  0.07843  0.88463  Biso   1.000  C
  C224     1.0000 0.99347  0.58823  0.28203  Biso   1.000  C
  C225     1.0000 0.58823  0.99347  0.21797  Biso   1.000  C
  C226     1.0000 0.66013  0.92157  0.61537  Biso   1.000  C
  C227     1.0000 0.92810  0.67320  0.94870  Biso   1.000  C
  C228     1.0000 0.74510  0.07190  0.94870  Biso   1.000  C
  C229     1.0000 0.00653  0.59477  0.21797  Biso   1.000  C
  C230     1.0000 0.40523  0.41177  0.21797  Biso   1.000  C
  C231     1.0000 0.26143  0.33987  0.61537  Biso   1.000  C
  C232     1.0000 0.07843  0.73857  0.61537  Biso   1.000  C
  C233     1.0000 0.59477  0.00653  0.28203  Biso   1.000  C
  C234     1.0000 0.41177  0.40523  0.28203  Biso   1.000  C
  C235     1.0000 0.74510  0.67320  0.44870  Biso   1.000  C
  C236     1.0000 0.32680  0.07190  0.44870  Biso   1.000  C
  C237     1.0000 0.92810  0.25490  0.44870  Biso   1.000  C
  C238     1.0000 0.67320  0.74510  0.05130  Biso   1.000  C
  C239     1.0000 0.41177  0.00653  0.78203  Biso   1.000  C
  C240     1.0000 0.99347  0.40523  0.78203  Biso   1.000  C
  C241     1.0000 0.59477  0.58823  0.78203  Biso   1.000  C
  C242     1.0000 0.33987  0.07843  0.38463  Biso   1.000  C
  C243     1.0000 0.07843  0.33987  0.11537  Biso   1.000  C
  C244     1.0000 0.00653  0.41177  0.71797  Biso   1.000  C
  C245     1.0000 0.07190  0.32680  0.05130  Biso   1.000  C
  C246     1.0000 0.25490  0.92810  0.05130  Biso   1.000  C
  C247     1.0000 0.66013  0.73857  0.11537  Biso   1.000  C
  C248     1.0000 0.26143  0.92157  0.11537  Biso   1.000  C
  C249     1.0000 0.40523  0.99347  0.71797  Biso   1.000  C
  C250     1.0000 0.58823  0.59477  0.71797  Biso   1.000  C
  C251     1.0000 0.73857  0.66013  0.38463  Biso   1.000  C
  C252     1.0000 0.92157  0.26143  0.38463  Biso   1.000  C
  H217     1.0000 0.22580  0.34150  0.63690  Biso   1.000  H
  H218     1.0000 0.65850  0.88430  0.63690  Biso   1.000  H
  H219     1.0000 0.11570  0.77420  0.63690  Biso   1.000  H
  H220     1.0000 0.34150  0.22580  0.86310  Biso   1.000  H
  H221     1.0000 0.89247  0.67483  0.97023  Biso   1.000  H
  H222     1.0000 0.32517  0.21763  0.97023  Biso   1.000  H
  H223     1.0000 0.78237  0.10753  0.97023  Biso   1.000  H
  H224     1.0000 0.00817  0.55913  0.19643  Biso   1.000  H
  H225     1.0000 0.55913  0.00817  0.30357  Biso   1.000  H
  H226     1.0000 0.67483  0.89247  0.52977  Biso   1.000  H
  H227     1.0000 0.88430  0.65850  0.86310  Biso   1.000  H
  H228     1.0000 0.77420  0.11570  0.86310  Biso   1.000  H
  H229     1.0000 0.99183  0.55097  0.30357  Biso   1.000  H
  H230     1.0000 0.44903  0.44087  0.30357  Biso   1.000  H
  H231     1.0000 0.21763  0.32517  0.52977  Biso   1.000  H
  H232     1.0000 0.10753  0.78237  0.52977  Biso   1.000  H
  H233     1.0000 0.55097  0.99183  0.19643  Biso   1.000  H
  H234     1.0000 0.44087  0.44903  0.19643  Biso   1.000  H
  H235     1.0000 0.77420  0.65850  0.36310  Biso   1.000  H
  H236     1.0000 0.34150  0.11570  0.36310  Biso   1.000  H
  H237     1.0000 0.88430  0.22580  0.36310  Biso   1.000  H
  H238     1.0000 0.65850  0.77420  0.13690  Biso   1.000  H
  H239     1.0000 0.44087  0.99183  0.69643  Biso   1.000  H
  H240     1.0000 0.00817  0.44903  0.69643  Biso   1.000  H
  H241     1.0000 0.55097  0.55913  0.69643  Biso   1.000  H
  H242     1.0000 0.32517  0.10753  0.47023  Biso   1.000  H
  H243     1.0000 0.10753  0.32517  0.02977  Biso   1.000  H
  H244     1.0000 0.99183  0.44087  0.80357  Biso   1.000  H
  H245     1.0000 0.11570  0.34150  0.13690  Biso   1.000  H
  H246     1.0000 0.22580  0.88430  0.13690  Biso   1.000  H
  H247     1.0000 0.67483  0.78237  0.02977  Biso   1.000  H
  H248     1.0000 0.21763  0.89247  0.02977  Biso   1.000  H
  H249     1.0000 0.44903  0.00817  0.80357  Biso   1.000  H
  H250     1.0000 0.55913  0.55097  0.80357  Biso   1.000  H
  H251     1.0000 0.78237  0.67483  0.47023  Biso   1.000  H
  H252     1.0000 0.89247  0.21763  0.47023  Biso   1.000  H
  N73      1.0000 0.23690  0.42820  0.26800  Biso   1.000  N
  N74      1.0000 0.57180  0.80870  0.26800  Biso   1.000  N
  N75      1.0000 0.19130  0.76310  0.26800  Biso   1.000  N
  N76      1.0000 0.42820  0.23690  0.23200  Biso   1.000  N
  N77      1.0000 0.90357  0.76153  0.60133  Biso   1.000  N
  N78      1.0000 0.23847  0.14203  0.60133  Biso   1.000  N
  N79      1.0000 0.85797  0.09643  0.60133  Biso   1.000  N
  N80      1.0000 0.09487  0.57023  0.56533  Biso   1.000  N
  N81      1.0000 0.57023  0.09487  0.93467  Biso   1.000  N
  N82      1.0000 0.76153  0.90357  0.89867  Biso   1.000  N
  N83      1.0000 0.80870  0.57180  0.23200  Biso   1.000  N
  N84      1.0000 0.76310  0.19130  0.23200  Biso   1.000  N
  N85      1.0000 0.90513  0.47537  0.93467  Biso   1.000  N
  N86      1.0000 0.52463  0.42977  0.93467  Biso   1.000  N
  N87      1.0000 0.14203  0.23847  0.89867  Biso   1.000  N
  N88      1.0000 0.09643  0.85797  0.89867  Biso   1.000  N
  N89      1.0000 0.47537  0.90513  0.56533  Biso   1.000  N
  N90      1.0000 0.42977  0.52463  0.56533  Biso   1.000  N
  N91      1.0000 0.76310  0.57180  0.73200  Biso   1.000  N
  N92      1.0000 0.42820  0.19130  0.73200  Biso   1.000  N
  N93      1.0000 0.80870  0.23690  0.73200  Biso   1.000  N
  N94      1.0000 0.57180  0.76310  0.76800  Biso   1.000  N
  N95      1.0000 0.42977  0.90513  0.06533  Biso   1.000  N
  N96      1.0000 0.09487  0.52463  0.06533  Biso   1.000  N
  N97      1.0000 0.47537  0.57023  0.06533  Biso   1.000  N
  N98      1.0000 0.23847  0.09643  0.10133  Biso   1.000  N
  N99      1.0000 0.09643  0.23847  0.39867  Biso   1.000  N
  N100     1.0000 0.90513  0.42977  0.43467  Biso   1.000  N
  N101     1.0000 0.19130  0.42820  0.76800  Biso   1.000  N
  N102     1.0000 0.23690  0.80870  0.76800  Biso   1.000  N
  N103     1.0000 0.76153  0.85797  0.39867  Biso   1.000  N
  N104     1.0000 0.14203  0.90357  0.39867  Biso   1.000  N
  N105     1.0000 0.52463  0.09487  0.43467  Biso   1.000  N
  N106     1.0000 0.57023  0.47537  0.43467  Biso   1.000  N
  N107     1.0000 0.85797  0.76153  0.10133  Biso   1.000  N
  N108     1.0000 0.90357  0.14203  0.10133  Biso   1.000  N
  O37      1.0000 0.29880  0.45070  0.28360  Biso   1.000  O
  O38      1.0000 0.54930  0.84810  0.28360  Biso   1.000  O
  O39      1.0000 0.15190  0.70120  0.28360  Biso   1.000  O
  O40      1.0000 0.45070  0.29880  0.21640  Biso   1.000  O
  O41      1.0000 0.96547  0.78403  0.61693  Biso   1.000  O
  O42      1.0000 0.21597  0.18143  0.61693  Biso   1.000  O
  O43      1.0000 0.81857  0.03453  0.61693  Biso   1.000  O
  O44      1.0000 0.11737  0.63213  0.54973  Biso   1.000  O
  O45      1.0000 0.63213  0.11737  0.95027  Biso   1.000  O
  O46      1.0000 0.78403  0.96547  0.88307  Biso   1.000  O
  O47      1.0000 0.84810  0.54930  0.21640  Biso   1.000  O
  O48      1.0000 0.70120  0.15190  0.21640  Biso   1.000  O
  O49      1.0000 0.88263  0.51477  0.95027  Biso   1.000  O
  O50      1.0000 0.48523  0.36787  0.95027  Biso   1.000  O
  O51      1.0000 0.18143  0.21597  0.88307  Biso   1.000  O
  O52      1.0000 0.03453  0.81857  0.88307  Biso   1.000  O
  O53      1.0000 0.51477  0.88263  0.54973  Biso   1.000  O
  O54      1.0000 0.36787  0.48523  0.54973  Biso   1.000  O
  O55      1.0000 0.70120  0.54930  0.71640  Biso   1.000  O
  O56      1.0000 0.45070  0.15190  0.71640  Biso   1.000  O
  O57      1.0000 0.84810  0.29880  0.71640  Biso   1.000  O
  O58      1.0000 0.54930  0.70120  0.78360  Biso   1.000  O
  O59      1.0000 0.36787  0.88263  0.04973  Biso   1.000  O
  O60      1.0000 0.11737  0.48523  0.04973  Biso   1.000  O
  O61      1.0000 0.51477  0.63213  0.04973  Biso   1.000  O
  O62      1.0000 0.21597  0.03453  0.11693  Biso   1.000  O
  O63      1.0000 0.03453  0.21597  0.38307  Biso   1.000  O
  O64      1.0000 0.88263  0.36787  0.45027  Biso   1.000  O
  O65      1.0000 0.15190  0.45070  0.78360  Biso   1.000  O
  O66      1.0000 0.29880  0.84810  0.78360  Biso   1.000  O
  O67      1.0000 0.78403  0.81857  0.38307  Biso   1.000  O
  O68      1.0000 0.18143  0.96547  0.38307  Biso   1.000  O
  O69      1.0000 0.48523  0.11737  0.45027  Biso   1.000  O
  O70      1.0000 0.63213  0.51477  0.45027  Biso   1.000  O
  O71      1.0000 0.81857  0.78403  0.11693  Biso   1.000  O
  O72      1.0000 0.96547  0.18143  0.11693  Biso   1.000  O
  O73      1.0000 0.18960  0.40160  0.30790  Biso   1.000  O
  O74      1.0000 0.59840  0.78800  0.30790  Biso   1.000  O
  O75      1.0000 0.21200  0.81040  0.30790  Biso   1.000  O
  O76      1.0000 0.40160  0.18960  0.19210  Biso   1.000  O
  O77      1.0000 0.85627  0.73493  0.64123  Biso   1.000  O
  O78      1.0000 0.26507  0.12133  0.64123  Biso   1.000  O
  O79      1.0000 0.87867  0.14373  0.64123  Biso   1.000  O
  O80      1.0000 0.06827  0.52293  0.52543  Biso   1.000  O
  O81      1.0000 0.52293  0.06827  0.97457  Biso   1.000  O
  O82      1.0000 0.73493  0.85627  0.85877  Biso   1.000  O
  O83      1.0000 0.78800  0.59840  0.19210  Biso   1.000  O
  O84      1.0000 0.81040  0.21200  0.19210  Biso   1.000  O
  O85      1.0000 0.93173  0.45467  0.97457  Biso   1.000  O
  O86      1.0000 0.54533  0.47707  0.97457  Biso   1.000  O
  O87      1.0000 0.12133  0.26507  0.85877  Biso   1.000  O
  O88      1.0000 0.14373  0.87867  0.85877  Biso   1.000  O
  O89      1.0000 0.45467  0.93173  0.52543  Biso   1.000  O
  O90      1.0000 0.47707  0.54533  0.52543  Biso   1.000  O
  O91      1.0000 0.81040  0.59840  0.69210  Biso   1.000  O
  O92      1.0000 0.40160  0.21200  0.69210  Biso   1.000  O
  O93      1.0000 0.78800  0.18960  0.69210  Biso   1.000  O
  O94      1.0000 0.59840  0.81040  0.80790  Biso   1.000  O
  O95      1.0000 0.47707  0.93173  0.02543  Biso   1.000  O
  O96      1.0000 0.06827  0.54533  0.02543  Biso   1.000  O
  O97      1.0000 0.45467  0.52293  0.02543  Biso   1.000  O
  O98      1.0000 0.26507  0.14373  0.14123  Biso   1.000  O
  O99      1.0000 0.14373  0.26507  0.35877  Biso   1.000  O
  O100     1.0000 0.93173  0.47707  0.47457  Biso   1.000  O
  O101     1.0000 0.21200  0.40160  0.80790  Biso   1.000  O
  O102     1.0000 0.18960  0.78800  0.80790  Biso   1.000  O
  O103     1.0000 0.73493  0.87867  0.35877  Biso   1.000  O
  O104     1.0000 0.12133  0.85627  0.35877  Biso   1.000  O
  O105     1.0000 0.54533  0.06827  0.47457  Biso   1.000  O
  O106     1.0000 0.52293  0.45467  0.47457  Biso   1.000  O
  O107     1.0000 0.87867  0.73493  0.14123  Biso   1.000  O
  O108     1.0000 0.85627  0.12133  0.14123  Biso   1.000  O
  O109     1.0000 0.22220  0.43220  0.21260  Biso   1.000  O
  O110     1.0000 0.56780  0.79000  0.21260  Biso   1.000  O
  O111     1.0000 0.21000  0.77780  0.21260  Biso   1.000  O
  O112     1.0000 0.43220  0.22220  0.28740  Biso   1.000  O
  O113     1.0000 0.88887  0.76553  0.54593  Biso   1.000  O
  O114     1.0000 0.23447  0.12333  0.54593  Biso   1.000  O
  O115     1.0000 0.87667  0.11113  0.54593  Biso   1.000  O
  O116     1.0000 0.09887  0.55553  0.62073  Biso   1.000  O
  O117     1.0000 0.55553  0.09887  0.87927  Biso   1.000  O
  O118     1.0000 0.76553  0.88887  0.95407  Biso   1.000  O
  O119     1.0000 0.79000  0.56780  0.28740  Biso   1.000  O
  O120     1.0000 0.77780  0.21000  0.28740  Biso   1.000  O
  O121     1.0000 0.90113  0.45667  0.87927  Biso   1.000  O
  O122     1.0000 0.54333  0.44447  0.87927  Biso   1.000  O
  O123     1.0000 0.12333  0.23447  0.95407  Biso   1.000  O
  O124     1.0000 0.11113  0.87667  0.95407  Biso   1.000  O
  O125     1.0000 0.45667  0.90113  0.62073  Biso   1.000  O
  O126     1.0000 0.44447  0.54333  0.62073  Biso   1.000  O
  O127     1.0000 0.77780  0.56780  0.78740  Biso   1.000  O
  O128     1.0000 0.43220  0.21000  0.78740  Biso   1.000  O
  O129     1.0000 0.79000  0.22220  0.78740  Biso   1.000  O
  O130     1.0000 0.56780  0.77780  0.71260  Biso   1.000  O
  O131     1.0000 0.44447  0.90113  0.12073  Biso   1.000  O
  O132     1.0000 0.09887  0.54333  0.12073  Biso   1.000  O
  O133     1.0000 0.45667  0.55553  0.12073  Biso   1.000  O
  O134     1.0000 0.23447  0.11113  0.04593  Biso   1.000  O
  O135     1.0000 0.11113  0.23447  0.45407  Biso   1.000  O
  O136     1.0000 0.90113  0.44447  0.37927  Biso   1.000  O
  O137     1.0000 0.21000  0.43220  0.71260  Biso   1.000  O
  O138     1.0000 0.22220  0.79000  0.71260  Biso   1.000  O
  O139     1.0000 0.76553  0.87667  0.45407  Biso   1.000  O
  O140     1.0000 0.12333  0.88887  0.45407  Biso   1.000  O
  O141     1.0000 0.54333  0.09887  0.37927  Biso   1.000  O
  O142     1.0000 0.55553  0.45667  0.37927  Biso   1.000  O
  O143     1.0000 0.87667  0.76553  0.04593  Biso   1.000  O
  O144     1.0000 0.88887  0.12333  0.04593  Biso   1.000  O
  O145     1.0000 0.00000  0.00000  0.25000  Biso   1.000  O
  O146     1.0000 0.66667  0.33333  0.58333  Biso   1.000  O
  O147     1.0000 0.33333  0.66667  0.91667  Biso   1.000  O
  O148     1.0000 0.00000  0.00000  0.75000  Biso   1.000  O
  O149     1.0000 0.66667  0.33333  0.08333  Biso   1.000  O
  O150     1.0000 0.33333  0.66667  0.41667  Biso   1.000  O
  O151     1.0000 0.33330  0.66670  0.16670  Biso   1.000  O
  O152     1.0000 0.66670  0.33330  0.33330  Biso   1.000  O
  O153     1.0000 0.99997  0.00003  0.50003  Biso   1.000  O
  O154     1.0000 0.33337  0.66663  0.66663  Biso   1.000  O
  O155     1.0000 0.66663  0.33337  0.83337  Biso   1.000  O
  O156     1.0000 0.00003  0.99997  0.99997  Biso   1.000  O
  N109     1.0000 0.24870  0.44800  0.26340  Biso   1.000  N
  N110     1.0000 0.55200  0.80070  0.26340  Biso   1.000  N
  N111     1.0000 0.19930  0.75130  0.26340  Biso   1.000  N
  N112     1.0000 0.44800  0.24870  0.23660  Biso   1.000  N
  N113     1.0000 0.91537  0.78133  0.59673  Biso   1.000  N
  N114     1.0000 0.21867  0.13403  0.59673  Biso   1.000  N
  N115     1.0000 0.86597  0.08463  0.59673  Biso   1.000  N
  N116     1.0000 0.11467  0.58203  0.56993  Biso   1.000  N
  N117     1.0000 0.58203  0.11467  0.93007  Biso   1.000  N
  N118     1.0000 0.78133  0.91537  0.90327  Biso   1.000  N
  N119     1.0000 0.80070  0.55200  0.23660  Biso   1.000  N
  N120     1.0000 0.75130  0.19930  0.23660  Biso   1.000  N
  N121     1.0000 0.88533  0.46737  0.93007  Biso   1.000  N
  N122     1.0000 0.53263  0.41797  0.93007  Biso   1.000  N
  N123     1.0000 0.13403  0.21867  0.90327  Biso   1.000  N
  N124     1.0000 0.08463  0.86597  0.90327  Biso   1.000  N
  N125     1.0000 0.46737  0.88533  0.56993  Biso   1.000  N
  N126     1.0000 0.41797  0.53263  0.56993  Biso   1.000  N
  N127     1.0000 0.75130  0.55200  0.73660  Biso   1.000  N
  N128     1.0000 0.44800  0.19930  0.73660  Biso   1.000  N
  N129     1.0000 0.80070  0.24870  0.73660  Biso   1.000  N
  N130     1.0000 0.55200  0.75130  0.76340  Biso   1.000  N
  N131     1.0000 0.41797  0.88533  0.06993  Biso   1.000  N
  N132     1.0000 0.11467  0.53263  0.06993  Biso   1.000  N
  N133     1.0000 0.46737  0.58203  0.06993  Biso   1.000  N
  N134     1.0000 0.21867  0.08463  0.09673  Biso   1.000  N
  N135     1.0000 0.08463  0.21867  0.40327  Biso   1.000  N
  N136     1.0000 0.88533  0.41797  0.43007  Biso   1.000  N
  N137     1.0000 0.19930  0.44800  0.76340  Biso   1.000  N
  N138     1.0000 0.24870  0.80070  0.76340  Biso   1.000  N
  N139     1.0000 0.78133  0.86597  0.40327  Biso   1.000  N
  N140     1.0000 0.13403  0.91537  0.40327  Biso   1.000  N
  N141     1.0000 0.53263  0.11467  0.43007  Biso   1.000  N
  N142     1.0000 0.58203  0.46737  0.43007  Biso   1.000  N
  N143     1.0000 0.86597  0.78133  0.09673  Biso   1.000  N
  N144     1.0000 0.91537  0.13403  0.09673  Biso   1.000  N
  O157     1.0000 0.25680  0.46050  0.32050  Biso   1.000  O
  O158     1.0000 0.53950  0.79630  0.32050  Biso   1.000  O
  O159     1.0000 0.20370  0.74320  0.32050  Biso   1.000  O
  O160     1.0000 0.46050  0.25680  0.17950  Biso   1.000  O
  O161     1.0000 0.92347  0.79383  0.65383  Biso   1.000  O
  O162     1.0000 0.20617  0.12963  0.65383  Biso   1.000  O
  O163     1.0000 0.87037  0.07653  0.65383  Biso   1.000  O
  O164     1.0000 0.12717  0.59013  0.51283  Biso   1.000  O
  O165     1.0000 0.59013  0.12717  0.98717  Biso   1.000  O
  O166     1.0000 0.79383  0.92347  0.84617  Biso   1.000  O
  O167     1.0000 0.79630  0.53950  0.17950  Biso   1.000  O
  O168     1.0000 0.74320  0.20370  0.17950  Biso   1.000  O
  O169     1.0000 0.87283  0.46297  0.98717  Biso   1.000  O
  O170     1.0000 0.53703  0.40987  0.98717  Biso   1.000  O
  O171     1.0000 0.12963  0.20617  0.84617  Biso   1.000  O
  O172     1.0000 0.07653  0.87037  0.84617  Biso   1.000  O
  O173     1.0000 0.46297  0.87283  0.51283  Biso   1.000  O
  O174     1.0000 0.40987  0.53703  0.51283  Biso   1.000  O
  O175     1.0000 0.74320  0.53950  0.67950  Biso   1.000  O
  O176     1.0000 0.46050  0.20370  0.67950  Biso   1.000  O
  O177     1.0000 0.79630  0.25680  0.67950  Biso   1.000  O
  O178     1.0000 0.53950  0.74320  0.82050  Biso   1.000  O
  O179     1.0000 0.40987  0.87283  0.01283  Biso   1.000  O
  O180     1.0000 0.12717  0.53703  0.01283  Biso   1.000  O
  O181     1.0000 0.46297  0.59013  0.01283  Biso   1.000  O
  O182     1.0000 0.20617  0.07653  0.15383  Biso   1.000  O
  O183     1.0000 0.07653  0.20617  0.34617  Biso   1.000  O
  O184     1.0000 0.87283  0.40987  0.48717  Biso   1.000  O
  O185     1.0000 0.20370  0.46050  0.82050  Biso   1.000  O
  O186     1.0000 0.25680  0.79630  0.82050  Biso   1.000  O
  O187     1.0000 0.79383  0.87037  0.34617  Biso   1.000  O
  O188     1.0000 0.12963  0.92347  0.34617  Biso   1.000  O
  O189     1.0000 0.53703  0.12717  0.48717  Biso   1.000  O
  O190     1.0000 0.59013  0.46297  0.48717  Biso   1.000  O
  O191     1.0000 0.87037  0.79383  0.15383  Biso   1.000  O
  O192     1.0000 0.92347  0.12963  0.15383  Biso   1.000  O
  O193     1.0000 0.20860  0.38730  0.24480  Biso   1.000  O
  O194     1.0000 0.61270  0.82130  0.24480  Biso   1.000  O
  O195     1.0000 0.17870  0.79140  0.24480  Biso   1.000  O
  O196     1.0000 0.38730  0.20860  0.25520  Biso   1.000  O
  O197     1.0000 0.87527  0.72063  0.57813  Biso   1.000  O
  O198     1.0000 0.27937  0.15463  0.57813  Biso   1.000  O
  O199     1.0000 0.84537  0.12473  0.57813  Biso   1.000  O
  O200     1.0000 0.05397  0.54193  0.58853  Biso   1.000  O
  O201     1.0000 0.54193  0.05397  0.91147  Biso   1.000  O
  O202     1.0000 0.72063  0.87527  0.92187  Biso   1.000  O
  O203     1.0000 0.82130  0.61270  0.25520  Biso   1.000  O
  O204     1.0000 0.79140  0.17870  0.25520  Biso   1.000  O
  O205     1.0000 0.94603  0.48797  0.91147  Biso   1.000  O
  O206     1.0000 0.51203  0.45807  0.91147  Biso   1.000  O
  O207     1.0000 0.15463  0.27937  0.92187  Biso   1.000  O
  O208     1.0000 0.12473  0.84537  0.92187  Biso   1.000  O
  O209     1.0000 0.48797  0.94603  0.58853  Biso   1.000  O
  O210     1.0000 0.45807  0.51203  0.58853  Biso   1.000  O
  O211     1.0000 0.79140  0.61270  0.75520  Biso   1.000  O
  O212     1.0000 0.38730  0.17870  0.75520  Biso   1.000  O
  O213     1.0000 0.82130  0.20860  0.75520  Biso   1.000  O
  O214     1.0000 0.61270  0.79140  0.74480  Biso   1.000  O
  O215     1.0000 0.45807  0.94603  0.08853  Biso   1.000  O
  O216     1.0000 0.05397  0.51203  0.08853  Biso   1.000  O
  O217     1.0000 0.48797  0.54193  0.08853  Biso   1.000  O
  O218     1.0000 0.27937  0.12473  0.07813  Biso   1.000  O
  O219     1.0000 0.12473  0.27937  0.42187  Biso   1.000  O
  O220     1.0000 0.94603  0.45807  0.41147  Biso   1.000  O
  O221     1.0000 0.17870  0.38730  0.74480  Biso   1.000  O
  O222     1.0000 0.20860  0.82130  0.74480  Biso   1.000  O
  O223     1.0000 0.72063  0.84537  0.42187  Biso   1.000  O
  O224     1.0000 0.15463  0.87527  0.42187  Biso   1.000  O
  O225     1.0000 0.51203  0.05397  0.41147  Biso   1.000  O
  O226     1.0000 0.54193  0.48797  0.41147  Biso   1.000  O
  O227     1.0000 0.84537  0.72063  0.07813  Biso   1.000  O
  O228     1.0000 0.87527  0.15463  0.07813  Biso   1.000  O
  O229     1.0000 0.28050  0.49600  0.22500  Biso   1.000  O
  O230     1.0000 0.50400  0.78450  0.22500  Biso   1.000  O
  O231     1.0000 0.21550  0.71950  0.22500  Biso   1.000  O
  O232     1.0000 0.49600  0.28050  0.27500  Biso   1.000  O
  O233     1.0000 0.94717  0.82933  0.55833  Biso   1.000  O
  O234     1.0000 0.17067  0.11783  0.55833  Biso   1.000  O
  O235     1.0000 0.88217  0.05283  0.55833  Biso   1.000  O
  O236     1.0000 0.16267  0.61383  0.60833  Biso   1.000  O
  O237     1.0000 0.61383  0.16267  0.89167  Biso   1.000  O
  O238     1.0000 0.82933  0.94717  0.94167  Biso   1.000  O
  O239     1.0000 0.78450  0.50400  0.27500  Biso   1.000  O
  O240     1.0000 0.71950  0.21550  0.27500  Biso   1.000  O
  O241     1.0000 0.83733  0.45117  0.89167  Biso   1.000  O
  O242     1.0000 0.54883  0.38617  0.89167  Biso   1.000  O
  O243     1.0000 0.11783  0.17067  0.94167  Biso   1.000  O
  O244     1.0000 0.05283  0.88217  0.94167  Biso   1.000  O
  O245     1.0000 0.45117  0.83733  0.60833  Biso   1.000  O
  O246     1.0000 0.38617  0.54883  0.60833  Biso   1.000  O
  O247     1.0000 0.71950  0.50400  0.77500  Biso   1.000  O
  O248     1.0000 0.49600  0.21550  0.77500  Biso   1.000  O
  O249     1.0000 0.78450  0.28050  0.77500  Biso   1.000  O
  O250     1.0000 0.50400  0.71950  0.72500  Biso   1.000  O
  O251     1.0000 0.38617  0.83733  0.10833  Biso   1.000  O
  O252     1.0000 0.16267  0.54883  0.10833  Biso   1.000  O
  O253     1.0000 0.45117  0.61383  0.10833  Biso   1.000  O
  O254     1.0000 0.17067  0.05283  0.05833  Biso   1.000  O
  O255     1.0000 0.05283  0.17067  0.44167  Biso   1.000  O
  O256     1.0000 0.83733  0.38617  0.39167  Biso   1.000  O
  O257     1.0000 0.21550  0.49600  0.72500  Biso   1.000  O
  O258     1.0000 0.28050  0.78450  0.72500  Biso   1.000  O
  O259     1.0000 0.82933  0.88217  0.44167  Biso   1.000  O
  O260     1.0000 0.11783  0.94717  0.44167  Biso   1.000  O
  O261     1.0000 0.54883  0.16267  0.39167  Biso   1.000  O
  O262     1.0000 0.61383  0.45117  0.39167  Biso   1.000  O
  O263     1.0000 0.88217  0.82933  0.05833  Biso   1.000  O
  O264     1.0000 0.94717  0.11783  0.05833  Biso   1.000  O
