data_image0
_cell_length_a       27.462
_cell_length_b       15.0421
_cell_length_c       16.4251
_cell_angle_alpha    90
_cell_angle_beta     107.459
_cell_angle_gamma    90

_symmetry_space_group_name_H-M    "P 1"
_symmetry_int_tables_number       1

loop_
  _symmetry_equiv_pos_as_xyz
  'x, y, z'

loop_
  _atom_site_label
  _atom_site_occupancy
  _atom_site_fract_x
  _atom_site_fract_y
  _atom_site_fract_z
  _atom_site_thermal_displace_type
  _atom_site_B_iso_or_equiv
  _atom_site_type_symbol
  Cu1      1.0000 0.62850  0.74944  0.62272  Biso   1.000  Cu
  Cu2      1.0000 0.37150  0.74944  0.87728  Biso   1.000  Cu
  Cu3      1.0000 0.12850  0.24944  0.62272  Biso   1.000  Cu
  Cu4      1.0000 0.87150  0.24944  0.87728  Biso   1.000  Cu
  Cu5      1.0000 0.37150  0.25056  0.37728  Biso   1.000  Cu
  Cu6      1.0000 0.62850  0.25056  0.12272  Biso   1.000  Cu
  Cu7      1.0000 0.87150  0.75056  0.37728  Biso   1.000  Cu
  Cu8      1.0000 0.12850  0.75056  0.12272  Biso   1.000  Cu
  S1       1.0000 0.48287  0.76119  0.56782  Biso   1.000  S
  S2       1.0000 0.51713  0.76119  0.93218  Biso   1.000  S
  S3       1.0000 0.98287  0.26119  0.56782  Biso   1.000  S
  S4       1.0000 0.01713  0.26119  0.93218  Biso   1.000  S
  S5       1.0000 0.51713  0.23881  0.43218  Biso   1.000  S
  S6       1.0000 0.48287  0.23881  0.06782  Biso   1.000  S
  S7       1.0000 0.01713  0.73881  0.43218  Biso   1.000  S
  S8       1.0000 0.98287  0.73881  0.06782  Biso   1.000  S
  F1       1.0000 0.46334  0.85980  0.42970  Biso   1.000  F
  F2       1.0000 0.53666  0.85980  0.07030  Biso   1.000  F
  F3       1.0000 0.96334  0.35980  0.42970  Biso   1.000  F
  F4       1.0000 0.03666  0.35980  0.07030  Biso   1.000  F
  F5       1.0000 0.53666  0.14020  0.57030  Biso   1.000  F
  F6       1.0000 0.46334  0.14020  0.92970  Biso   1.000  F
  F7       1.0000 0.03666  0.64020  0.57030  Biso   1.000  F
  F8       1.0000 0.96334  0.64020  0.92970  Biso   1.000  F
  F9       1.0000 0.40476  0.86320  0.49150  Biso   1.000  F
  F10      1.0000 0.59524  0.86320  0.00850  Biso   1.000  F
  F11      1.0000 0.90476  0.36320  0.49150  Biso   1.000  F
  F12      1.0000 0.09524  0.36320  0.00850  Biso   1.000  F
  F13      1.0000 0.59524  0.13680  0.50850  Biso   1.000  F
  F14      1.0000 0.40476  0.13680  0.99150  Biso   1.000  F
  F15      1.0000 0.09524  0.63680  0.50850  Biso   1.000  F
  F16      1.0000 0.90476  0.63680  0.99150  Biso   1.000  F
  O1       1.0000 0.47222  0.77470  0.64800  Biso   1.000  O
  O2       1.0000 0.52778  0.77470  0.85200  Biso   1.000  O
  O3       1.0000 0.97222  0.27470  0.64800  Biso   1.000  O
  O4       1.0000 0.02778  0.27470  0.85200  Biso   1.000  O
  O5       1.0000 0.52778  0.22530  0.35200  Biso   1.000  O
  O6       1.0000 0.47222  0.22530  0.14800  Biso   1.000  O
  O7       1.0000 0.02778  0.72530  0.35200  Biso   1.000  O
  O8       1.0000 0.97222  0.72530  0.14800  Biso   1.000  O
  O9       1.0000 0.46190  0.68330  0.52270  Biso   1.000  O
  O10      1.0000 0.53810  0.68330  0.97730  Biso   1.000  O
  O11      1.0000 0.96190  0.18330  0.52270  Biso   1.000  O
  O12      1.0000 0.03810  0.18330  0.97730  Biso   1.000  O
  O13      1.0000 0.53810  0.31670  0.47730  Biso   1.000  O
  O14      1.0000 0.46190  0.31670  0.02270  Biso   1.000  O
  O15      1.0000 0.03810  0.81670  0.47730  Biso   1.000  O
  O16      1.0000 0.96190  0.81670  0.02270  Biso   1.000  O
  C1       1.0000 0.45480  0.85930  0.50480  Biso   1.000  C
  C2       1.0000 0.54520  0.85930  0.99520  Biso   1.000  C
  C3       1.0000 0.95480  0.35930  0.50480  Biso   1.000  C
  C4       1.0000 0.04520  0.35930  0.99520  Biso   1.000  C
  C5       1.0000 0.54520  0.14070  0.49520  Biso   1.000  C
  C6       1.0000 0.45480  0.14070  0.00480  Biso   1.000  C
  C7       1.0000 0.04520  0.64070  0.49520  Biso   1.000  C
  C8       1.0000 0.95480  0.64070  0.00480  Biso   1.000  C
  S9       1.0000 0.77208  0.73942  0.68785  Biso   1.000  S
  S10      1.0000 0.22792  0.73942  0.81215  Biso   1.000  S
  S11      1.0000 0.27208  0.23942  0.68785  Biso   1.000  S
  S12      1.0000 0.72792  0.23942  0.81215  Biso   1.000  S
  S13      1.0000 0.22792  0.26058  0.31215  Biso   1.000  S
  S14      1.0000 0.77208  0.26058  0.18785  Biso   1.000  S
  S15      1.0000 0.72792  0.76058  0.31215  Biso   1.000  S
  S16      1.0000 0.27208  0.76058  0.18785  Biso   1.000  S
  F17      1.0000 0.47375  0.93120  0.54750  Biso   1.000  F
  F18      1.0000 0.52625  0.93120  0.95250  Biso   1.000  F
  F19      1.0000 0.97375  0.43120  0.54750  Biso   1.000  F
  F20      1.0000 0.02625  0.43120  0.95250  Biso   1.000  F
  F21      1.0000 0.52625  0.06880  0.45250  Biso   1.000  F
  F22      1.0000 0.47375  0.06880  0.04750  Biso   1.000  F
  F23      1.0000 0.02625  0.56880  0.45250  Biso   1.000  F
  F24      1.0000 0.97375  0.56880  0.04750  Biso   1.000  F
  F25      1.0000 0.78403  0.65810  0.83290  Biso   1.000  F
  F26      1.0000 0.21597  0.65810  0.66710  Biso   1.000  F
  F27      1.0000 0.28403  0.15810  0.83290  Biso   1.000  F
  F28      1.0000 0.71597  0.15810  0.66710  Biso   1.000  F
  F29      1.0000 0.21597  0.34190  0.16710  Biso   1.000  F
  F30      1.0000 0.78403  0.34190  0.33290  Biso   1.000  F
  F31      1.0000 0.71597  0.84190  0.16710  Biso   1.000  F
  F32      1.0000 0.28403  0.84190  0.33290  Biso   1.000  F
  F33      1.0000 0.78201  0.57098  0.72830  Biso   1.000  F
  F34      1.0000 0.21799  0.57098  0.77170  Biso   1.000  F
  F35      1.0000 0.28201  0.07098  0.72830  Biso   1.000  F
  F36      1.0000 0.71799  0.07098  0.77170  Biso   1.000  F
  F37      1.0000 0.21799  0.42902  0.27170  Biso   1.000  F
  F38      1.0000 0.78201  0.42902  0.22830  Biso   1.000  F
  F39      1.0000 0.71799  0.92902  0.27170  Biso   1.000  F
  F40      1.0000 0.28201  0.92902  0.22830  Biso   1.000  F
  F41      1.0000 0.84904  0.64950  0.78580  Biso   1.000  F
  F42      1.0000 0.15096  0.64950  0.71420  Biso   1.000  F
  F43      1.0000 0.34904  0.14950  0.78580  Biso   1.000  F
  F44      1.0000 0.65096  0.14950  0.71420  Biso   1.000  F
  F45      1.0000 0.15096  0.35050  0.21420  Biso   1.000  F
  F46      1.0000 0.84904  0.35050  0.28580  Biso   1.000  F
  F47      1.0000 0.65096  0.85050  0.21420  Biso   1.000  F
  F48      1.0000 0.34904  0.85050  0.28580  Biso   1.000  F
  O17      1.0000 0.53733  0.76955  0.57525  Biso   1.000  O
  O18      1.0000 0.46267  0.76955  0.92475  Biso   1.000  O
  O19      1.0000 0.03733  0.26955  0.57525  Biso   1.000  O
  O20      1.0000 0.96267  0.26955  0.92475  Biso   1.000  O
  O21      1.0000 0.46267  0.23045  0.42475  Biso   1.000  O
  O22      1.0000 0.53733  0.23045  0.07525  Biso   1.000  O
  O23      1.0000 0.96267  0.73045  0.42475  Biso   1.000  O
  O24      1.0000 0.03733  0.73045  0.07525  Biso   1.000  O
  O25      1.0000 0.79354  0.81837  0.73295  Biso   1.000  O
  O26      1.0000 0.20646  0.81837  0.76705  Biso   1.000  O
  O27      1.0000 0.29354  0.31837  0.73295  Biso   1.000  O
  O28      1.0000 0.70646  0.31837  0.76705  Biso   1.000  O
  O29      1.0000 0.20646  0.18163  0.26705  Biso   1.000  O
  O30      1.0000 0.79354  0.18163  0.23295  Biso   1.000  O
  O31      1.0000 0.70646  0.68163  0.26705  Biso   1.000  O
  O32      1.0000 0.29354  0.68163  0.23295  Biso   1.000  O
  O33      1.0000 0.71804  0.72976  0.67474  Biso   1.000  O
  O34      1.0000 0.28196  0.72976  0.82526  Biso   1.000  O
  O35      1.0000 0.21804  0.22976  0.67474  Biso   1.000  O
  O36      1.0000 0.78196  0.22976  0.82526  Biso   1.000  O
  O37      1.0000 0.28196  0.27024  0.32526  Biso   1.000  O
  O38      1.0000 0.71804  0.27024  0.17474  Biso   1.000  O
  O39      1.0000 0.78196  0.77024  0.32526  Biso   1.000  O
  O40      1.0000 0.21804  0.77024  0.17474  Biso   1.000  O
  O41      1.0000 0.78879  0.71730  0.61520  Biso   1.000  O
  O42      1.0000 0.21121  0.71730  0.88480  Biso   1.000  O
  O43      1.0000 0.28879  0.21730  0.61520  Biso   1.000  O
  O44      1.0000 0.71121  0.21730  0.88480  Biso   1.000  O
  O45      1.0000 0.21121  0.28270  0.38480  Biso   1.000  O
  O46      1.0000 0.78879  0.28270  0.11520  Biso   1.000  O
  O47      1.0000 0.71121  0.78270  0.38480  Biso   1.000  O
  O48      1.0000 0.28879  0.78270  0.11520  Biso   1.000  O
  N1       1.0000 0.62152  0.65348  0.70500  Biso   1.000  N
  N2       1.0000 0.37848  0.65348  0.79500  Biso   1.000  N
  N3       1.0000 0.12152  0.15348  0.70500  Biso   1.000  N
  N4       1.0000 0.87848  0.15348  0.79500  Biso   1.000  N
  N5       1.0000 0.37848  0.34652  0.29500  Biso   1.000  N
  N6       1.0000 0.62152  0.34652  0.20500  Biso   1.000  N
  N7       1.0000 0.87848  0.84652  0.29500  Biso   1.000  N
  N8       1.0000 0.12152  0.84652  0.20500  Biso   1.000  N
  N9       1.0000 0.63352  0.84273  0.71400  Biso   1.000  N
  N10      1.0000 0.36648  0.84273  0.78600  Biso   1.000  N
  N11      1.0000 0.13352  0.34273  0.71400  Biso   1.000  N
  N12      1.0000 0.86648  0.34273  0.78600  Biso   1.000  N
  N13      1.0000 0.36648  0.15727  0.28600  Biso   1.000  N
  N14      1.0000 0.63352  0.15727  0.21400  Biso   1.000  N
  N15      1.0000 0.86648  0.65727  0.28600  Biso   1.000  N
  N16      1.0000 0.13352  0.65727  0.21400  Biso   1.000  N
  N17      1.0000 0.63254  0.15568  0.03712  Biso   1.000  N
  N18      1.0000 0.36746  0.15568  0.46288  Biso   1.000  N
  N19      1.0000 0.13254  0.65568  0.03712  Biso   1.000  N
  N20      1.0000 0.86746  0.65568  0.46288  Biso   1.000  N
  N21      1.0000 0.36746  0.84432  0.96288  Biso   1.000  N
  N22      1.0000 0.63254  0.84432  0.53712  Biso   1.000  N
  N23      1.0000 0.86746  0.34432  0.96288  Biso   1.000  N
  N24      1.0000 0.13254  0.34432  0.53712  Biso   1.000  N
  N25      1.0000 0.62551  0.34327  0.03169  Biso   1.000  N
  N26      1.0000 0.37449  0.34327  0.46831  Biso   1.000  N
  N27      1.0000 0.12551  0.84327  0.03169  Biso   1.000  N
  N28      1.0000 0.87449  0.84327  0.46831  Biso   1.000  N
  N29      1.0000 0.37449  0.65673  0.96831  Biso   1.000  N
  N30      1.0000 0.62551  0.65673  0.53169  Biso   1.000  N
  N31      1.0000 0.87449  0.15673  0.96831  Biso   1.000  N
  N32      1.0000 0.12551  0.15673  0.53169  Biso   1.000  N
  C9       1.0000 0.65175  0.58176  0.71805  Biso   1.000  C
  C10      1.0000 0.34825  0.58176  0.78195  Biso   1.000  C
  C11      1.0000 0.15175  0.08176  0.71805  Biso   1.000  C
  C12      1.0000 0.84825  0.08176  0.78195  Biso   1.000  C
  C13      1.0000 0.34825  0.41824  0.28195  Biso   1.000  C
  C14      1.0000 0.65175  0.41824  0.21805  Biso   1.000  C
  C15      1.0000 0.84825  0.91824  0.28195  Biso   1.000  C
  C16      1.0000 0.15175  0.91824  0.21805  Biso   1.000  C
  H1       1.0000 0.67370  0.57390  0.68350  Biso   1.000  H
  H2       1.0000 0.32630  0.57390  0.81650  Biso   1.000  H
  H3       1.0000 0.17370  0.07390  0.68350  Biso   1.000  H
  H4       1.0000 0.82630  0.07390  0.81650  Biso   1.000  H
  H5       1.0000 0.32630  0.42610  0.31650  Biso   1.000  H
  H6       1.0000 0.67370  0.42610  0.18350  Biso   1.000  H
  H7       1.0000 0.82630  0.92610  0.31650  Biso   1.000  H
  H8       1.0000 0.17370  0.92610  0.18350  Biso   1.000  H
  C17      1.0000 0.65251  0.51850  0.77967  Biso   1.000  C
  C18      1.0000 0.34749  0.51850  0.72033  Biso   1.000  C
  C19      1.0000 0.15251  0.01850  0.77967  Biso   1.000  C
  C20      1.0000 0.84749  0.01850  0.72033  Biso   1.000  C
  C21      1.0000 0.34749  0.48150  0.22033  Biso   1.000  C
  C22      1.0000 0.65251  0.48150  0.27967  Biso   1.000  C
  C23      1.0000 0.84749  0.98150  0.22033  Biso   1.000  C
  C24      1.0000 0.15251  0.98150  0.27967  Biso   1.000  C
  H9       1.0000 0.67420  0.46810  0.78650  Biso   1.000  H
  H10      1.0000 0.32580  0.46810  0.71350  Biso   1.000  H
  H11      1.0000 0.17420  0.96810  0.78650  Biso   1.000  H
  H12      1.0000 0.82580  0.96810  0.71350  Biso   1.000  H
  H13      1.0000 0.32580  0.53190  0.21350  Biso   1.000  H
  H14      1.0000 0.67420  0.53190  0.28650  Biso   1.000  H
  H15      1.0000 0.82580  0.03190  0.21350  Biso   1.000  H
  H16      1.0000 0.17420  0.03190  0.28650  Biso   1.000  H
  C25      1.0000 0.62089  0.52968  0.83172  Biso   1.000  C
  C26      1.0000 0.37911  0.52968  0.66828  Biso   1.000  C
  C27      1.0000 0.12089  0.02968  0.83172  Biso   1.000  C
  C28      1.0000 0.87911  0.02968  0.66828  Biso   1.000  C
  C29      1.0000 0.37911  0.47032  0.16828  Biso   1.000  C
  C30      1.0000 0.62089  0.47032  0.33172  Biso   1.000  C
  C31      1.0000 0.87911  0.97032  0.16828  Biso   1.000  C
  C32      1.0000 0.12089  0.97032  0.33172  Biso   1.000  C
  C33      1.0000 0.58820  0.60290  0.81563  Biso   1.000  C
  C34      1.0000 0.41180  0.60290  0.68437  Biso   1.000  C
  C35      1.0000 0.08820  0.10290  0.81563  Biso   1.000  C
  C36      1.0000 0.91180  0.10290  0.68437  Biso   1.000  C
  C37      1.0000 0.41180  0.39710  0.18437  Biso   1.000  C
  C38      1.0000 0.58820  0.39710  0.31563  Biso   1.000  C
  C39      1.0000 0.91180  0.89710  0.18437  Biso   1.000  C
  C40      1.0000 0.08820  0.89710  0.31563  Biso   1.000  C
  H17      1.0000 0.56500  0.61130  0.84780  Biso   1.000  H
  H18      1.0000 0.43500  0.61130  0.65220  Biso   1.000  H
  H19      1.0000 0.06500  0.11130  0.84780  Biso   1.000  H
  H20      1.0000 0.93500  0.11130  0.65220  Biso   1.000  H
  H21      1.0000 0.43500  0.38870  0.15220  Biso   1.000  H
  H22      1.0000 0.56500  0.38870  0.34780  Biso   1.000  H
  H23      1.0000 0.93500  0.88870  0.15220  Biso   1.000  H
  H24      1.0000 0.06500  0.88870  0.34780  Biso   1.000  H
  C41      1.0000 0.58962  0.66330  0.75278  Biso   1.000  C
  C42      1.0000 0.41038  0.66330  0.74722  Biso   1.000  C
  C43      1.0000 0.08962  0.16330  0.75278  Biso   1.000  C
  C44      1.0000 0.91038  0.16330  0.74722  Biso   1.000  C
  C45      1.0000 0.41038  0.33670  0.24722  Biso   1.000  C
  C46      1.0000 0.58962  0.33670  0.25278  Biso   1.000  C
  C47      1.0000 0.91038  0.83670  0.24722  Biso   1.000  C
  C48      1.0000 0.08962  0.83670  0.25278  Biso   1.000  C
  H25      1.0000 0.56740  0.71320  0.74300  Biso   1.000  H
  H26      1.0000 0.43260  0.71320  0.75700  Biso   1.000  H
  H27      1.0000 0.06740  0.21320  0.74300  Biso   1.000  H
  H28      1.0000 0.93260  0.21320  0.75700  Biso   1.000  H
  H29      1.0000 0.43260  0.28680  0.25700  Biso   1.000  H
  H30      1.0000 0.56740  0.28680  0.24300  Biso   1.000  H
  H31      1.0000 0.93260  0.78680  0.25700  Biso   1.000  H
  H32      1.0000 0.06740  0.78680  0.24300  Biso   1.000  H
  C49      1.0000 0.66606  0.83300  0.79310  Biso   1.000  C
  C50      1.0000 0.33394  0.83300  0.70690  Biso   1.000  C
  C51      1.0000 0.16606  0.33300  0.79310  Biso   1.000  C
  C52      1.0000 0.83394  0.33300  0.70690  Biso   1.000  C
  C53      1.0000 0.33394  0.16700  0.20690  Biso   1.000  C
  C54      1.0000 0.66606  0.16700  0.29310  Biso   1.000  C
  C55      1.0000 0.83394  0.66700  0.20690  Biso   1.000  C
  C56      1.0000 0.16606  0.66700  0.29310  Biso   1.000  C
  H33      1.0000 0.68900  0.78410  0.80440  Biso   1.000  H
  H34      1.0000 0.31100  0.78410  0.69560  Biso   1.000  H
  H35      1.0000 0.18900  0.28410  0.80440  Biso   1.000  H
  H36      1.0000 0.81100  0.28410  0.69560  Biso   1.000  H
  H37      1.0000 0.31100  0.21590  0.19560  Biso   1.000  H
  H38      1.0000 0.68900  0.21590  0.30440  Biso   1.000  H
  H39      1.0000 0.81100  0.71590  0.19560  Biso   1.000  H
  H40      1.0000 0.18900  0.71590  0.30440  Biso   1.000  H
  C57      1.0000 0.66729  0.89200  0.85880  Biso   1.000  C
  C58      1.0000 0.33271  0.89200  0.64120  Biso   1.000  C
  C59      1.0000 0.16729  0.39200  0.85880  Biso   1.000  C
  C60      1.0000 0.83271  0.39200  0.64120  Biso   1.000  C
  C61      1.0000 0.33271  0.10800  0.14120  Biso   1.000  C
  C62      1.0000 0.66729  0.10800  0.35880  Biso   1.000  C
  C63      1.0000 0.83271  0.60800  0.14120  Biso   1.000  C
  C64      1.0000 0.16729  0.60800  0.35880  Biso   1.000  C
  H41      1.0000 0.69050  0.88290  0.91400  Biso   1.000  H
  H42      1.0000 0.30950  0.88290  0.58600  Biso   1.000  H
  H43      1.0000 0.19050  0.38290  0.91400  Biso   1.000  H
  H44      1.0000 0.80950  0.38290  0.58600  Biso   1.000  H
  H45      1.0000 0.30950  0.11710  0.08600  Biso   1.000  H
  H46      1.0000 0.69050  0.11710  0.41400  Biso   1.000  H
  H47      1.0000 0.80950  0.61710  0.08600  Biso   1.000  H
  H48      1.0000 0.19050  0.61710  0.41400  Biso   1.000  H
  C65      1.0000 0.63402  0.96530  0.84310  Biso   1.000  C
  C66      1.0000 0.36598  0.96530  0.65690  Biso   1.000  C
  C67      1.0000 0.13402  0.46530  0.84310  Biso   1.000  C
  C68      1.0000 0.86598  0.46530  0.65690  Biso   1.000  C
  C69      1.0000 0.36598  0.03470  0.15690  Biso   1.000  C
  C70      1.0000 0.63402  0.03470  0.34310  Biso   1.000  C
  C71      1.0000 0.86598  0.53470  0.15690  Biso   1.000  C
  C72      1.0000 0.13402  0.53470  0.34310  Biso   1.000  C
  C73      1.0000 0.60124  0.97480  0.75990  Biso   1.000  C
  C74      1.0000 0.39876  0.97480  0.74010  Biso   1.000  C
  C75      1.0000 0.10124  0.47480  0.75990  Biso   1.000  C
  C76      1.0000 0.89876  0.47480  0.74010  Biso   1.000  C
  C77      1.0000 0.39876  0.02520  0.24010  Biso   1.000  C
  C78      1.0000 0.60124  0.02520  0.25990  Biso   1.000  C
  C79      1.0000 0.89876  0.52520  0.24010  Biso   1.000  C
  C80      1.0000 0.10124  0.52520  0.25990  Biso   1.000  C
  H49      1.0000 0.57860  0.02400  0.74560  Biso   1.000  H
  H50      1.0000 0.42140  0.02400  0.75440  Biso   1.000  H
  H51      1.0000 0.07860  0.52400  0.74560  Biso   1.000  H
  H52      1.0000 0.92140  0.52400  0.75440  Biso   1.000  H
  H53      1.0000 0.42140  0.97600  0.25440  Biso   1.000  H
  H54      1.0000 0.57860  0.97600  0.24560  Biso   1.000  H
  H55      1.0000 0.92140  0.47600  0.25440  Biso   1.000  H
  H56      1.0000 0.07860  0.47600  0.24560  Biso   1.000  H
  C81      1.0000 0.60199  0.91240  0.69870  Biso   1.000  C
  C82      1.0000 0.39801  0.91240  0.80130  Biso   1.000  C
  C83      1.0000 0.10199  0.41240  0.69870  Biso   1.000  C
  C84      1.0000 0.89801  0.41240  0.80130  Biso   1.000  C
  C85      1.0000 0.39801  0.08760  0.30130  Biso   1.000  C
  C86      1.0000 0.60199  0.08760  0.19870  Biso   1.000  C
  C87      1.0000 0.89801  0.58760  0.30130  Biso   1.000  C
  C88      1.0000 0.10199  0.58760  0.19870  Biso   1.000  C
  H57      1.0000 0.57890  0.91940  0.64290  Biso   1.000  H
  H58      1.0000 0.42110  0.91940  0.85710  Biso   1.000  H
  H59      1.0000 0.07890  0.41940  0.64290  Biso   1.000  H
  H60      1.0000 0.92110  0.41940  0.85710  Biso   1.000  H
  H61      1.0000 0.42110  0.08060  0.35710  Biso   1.000  H
  H62      1.0000 0.57890  0.08060  0.14290  Biso   1.000  H
  H63      1.0000 0.92110  0.58060  0.35710  Biso   1.000  H
  H64      1.0000 0.07890  0.58060  0.14290  Biso   1.000  H
  C89      1.0000 0.67041  0.09630  0.04970  Biso   1.000  C
  C90      1.0000 0.32959  0.09630  0.45030  Biso   1.000  C
  C91      1.0000 0.17041  0.59630  0.04970  Biso   1.000  C
  C92      1.0000 0.82959  0.59630  0.45030  Biso   1.000  C
  C93      1.0000 0.32959  0.90370  0.95030  Biso   1.000  C
  C94      1.0000 0.67041  0.90370  0.54970  Biso   1.000  C
  C95      1.0000 0.82959  0.40370  0.95030  Biso   1.000  C
  C96      1.0000 0.17041  0.40370  0.54970  Biso   1.000  C
  H65      1.0000 0.69680  0.09700  0.10260  Biso   1.000  H
  H66      1.0000 0.30320  0.09700  0.39740  Biso   1.000  H
  H67      1.0000 0.19680  0.59700  0.10260  Biso   1.000  H
  H68      1.0000 0.80320  0.59700  0.39740  Biso   1.000  H
  H69      1.0000 0.30320  0.90300  0.89740  Biso   1.000  H
  H70      1.0000 0.69680  0.90300  0.60260  Biso   1.000  H
  H71      1.0000 0.80320  0.40300  0.89740  Biso   1.000  H
  H72      1.0000 0.19680  0.40300  0.60260  Biso   1.000  H
  C97      1.0000 0.67303  0.03350  0.98900  Biso   1.000  C
  C98      1.0000 0.32697  0.03350  0.51100  Biso   1.000  C
  C99      1.0000 0.17303  0.53350  0.98900  Biso   1.000  C
  C100     1.0000 0.82697  0.53350  0.51100  Biso   1.000  C
  C101     1.0000 0.32697  0.96650  0.01100  Biso   1.000  C
  C102     1.0000 0.67303  0.96650  0.48900  Biso   1.000  C
  C103     1.0000 0.82697  0.46650  0.01100  Biso   1.000  C
  C104     1.0000 0.17303  0.46650  0.48900  Biso   1.000  C
  H73      1.0000 0.70090  0.99310  0.00020  Biso   1.000  H
  H74      1.0000 0.29910  0.99310  0.49980  Biso   1.000  H
  H75      1.0000 0.20090  0.49310  0.00020  Biso   1.000  H
  H76      1.0000 0.79910  0.49310  0.49980  Biso   1.000  H
  H77      1.0000 0.29910  0.00690  0.99980  Biso   1.000  H
  H78      1.0000 0.70090  0.00690  0.50020  Biso   1.000  H
  H79      1.0000 0.79910  0.50690  0.99980  Biso   1.000  H
  H80      1.0000 0.20090  0.50690  0.50020  Biso   1.000  H
  C105     1.0000 0.63390  0.03060  0.91090  Biso   1.000  C
  C106     1.0000 0.36610  0.03060  0.58910  Biso   1.000  C
  C107     1.0000 0.13390  0.53060  0.91090  Biso   1.000  C
  C108     1.0000 0.86610  0.53060  0.58910  Biso   1.000  C
  C109     1.0000 0.36610  0.96940  0.08910  Biso   1.000  C
  C110     1.0000 0.63390  0.96940  0.41090  Biso   1.000  C
  C111     1.0000 0.86610  0.46940  0.08910  Biso   1.000  C
  C112     1.0000 0.13390  0.46940  0.41090  Biso   1.000  C
  C113     1.0000 0.59448  0.09220  0.89840  Biso   1.000  C
  C114     1.0000 0.40552  0.09220  0.60160  Biso   1.000  C
  C115     1.0000 0.09448  0.59220  0.89840  Biso   1.000  C
  C116     1.0000 0.90552  0.59220  0.60160  Biso   1.000  C
  C117     1.0000 0.40552  0.90780  0.10160  Biso   1.000  C
  C118     1.0000 0.59448  0.90780  0.39840  Biso   1.000  C
  C119     1.0000 0.90552  0.40780  0.10160  Biso   1.000  C
  C120     1.0000 0.09448  0.40780  0.39840  Biso   1.000  C
  H81      1.0000 0.56720  0.09230  0.84670  Biso   1.000  H
  H82      1.0000 0.43280  0.09230  0.65330  Biso   1.000  H
  H83      1.0000 0.06720  0.59230  0.84670  Biso   1.000  H
  H84      1.0000 0.93280  0.59230  0.65330  Biso   1.000  H
  H85      1.0000 0.43280  0.90770  0.15330  Biso   1.000  H
  H86      1.0000 0.56720  0.90770  0.34670  Biso   1.000  H
  H87      1.0000 0.93280  0.40770  0.15330  Biso   1.000  H
  H88      1.0000 0.06720  0.40770  0.34670  Biso   1.000  H
  C121     1.0000 0.59539  0.15280  0.96140  Biso   1.000  C
  C122     1.0000 0.40461  0.15280  0.53860  Biso   1.000  C
  C123     1.0000 0.09539  0.65280  0.96140  Biso   1.000  C
  C124     1.0000 0.90461  0.65280  0.53860  Biso   1.000  C
  C125     1.0000 0.40461  0.84720  0.03860  Biso   1.000  C
  C126     1.0000 0.59539  0.84720  0.46140  Biso   1.000  C
  C127     1.0000 0.90461  0.34720  0.03860  Biso   1.000  C
  C128     1.0000 0.09539  0.34720  0.46140  Biso   1.000  C
  H89      1.0000 0.56840  0.19490  0.95120  Biso   1.000  H
  H90      1.0000 0.43160  0.19490  0.54880  Biso   1.000  H
  H91      1.0000 0.06840  0.69490  0.95120  Biso   1.000  H
  H92      1.0000 0.93160  0.69490  0.54880  Biso   1.000  H
  H93      1.0000 0.43160  0.80510  0.04880  Biso   1.000  H
  H94      1.0000 0.56840  0.80510  0.45120  Biso   1.000  H
  H95      1.0000 0.93160  0.30510  0.04880  Biso   1.000  H
  H96      1.0000 0.06840  0.30510  0.45120  Biso   1.000  H
  C129     1.0000 0.58585  0.39940  0.00310  Biso   1.000  C
  C130     1.0000 0.41415  0.39940  0.49690  Biso   1.000  C
  C131     1.0000 0.08585  0.89940  0.00310  Biso   1.000  C
  C132     1.0000 0.91415  0.89940  0.49690  Biso   1.000  C
  C133     1.0000 0.41415  0.60060  0.99690  Biso   1.000  C
  C134     1.0000 0.58585  0.60060  0.50310  Biso   1.000  C
  C135     1.0000 0.91415  0.10060  0.99690  Biso   1.000  C
  C136     1.0000 0.08585  0.10060  0.50310  Biso   1.000  C
  H97      1.0000 0.55880  0.39690  0.02810  Biso   1.000  H
  H98      1.0000 0.44120  0.39690  0.47190  Biso   1.000  H
  H99      1.0000 0.05880  0.89690  0.02810  Biso   1.000  H
  H100     1.0000 0.94120  0.89690  0.47190  Biso   1.000  H
  H101     1.0000 0.44120  0.60310  0.97190  Biso   1.000  H
  H102     1.0000 0.55880  0.60310  0.52810  Biso   1.000  H
  H103     1.0000 0.94120  0.10310  0.97190  Biso   1.000  H
  H104     1.0000 0.05880  0.10310  0.52810  Biso   1.000  H
  C137     1.0000 0.58285  0.46080  0.93890  Biso   1.000  C
  C138     1.0000 0.41715  0.46080  0.56110  Biso   1.000  C
  C139     1.0000 0.08285  0.96080  0.93890  Biso   1.000  C
  C140     1.0000 0.91715  0.96080  0.56110  Biso   1.000  C
  C141     1.0000 0.41715  0.53920  0.06110  Biso   1.000  C
  C142     1.0000 0.58285  0.53920  0.43890  Biso   1.000  C
  C143     1.0000 0.91715  0.03920  0.06110  Biso   1.000  C
  C144     1.0000 0.08285  0.03920  0.43890  Biso   1.000  C
  H105     1.0000 0.55430  0.49950  0.92060  Biso   1.000  H
  H106     1.0000 0.44570  0.49950  0.57940  Biso   1.000  H
  H107     1.0000 0.05430  0.99950  0.92060  Biso   1.000  H
  H108     1.0000 0.94570  0.99950  0.57940  Biso   1.000  H
  H109     1.0000 0.44570  0.50050  0.07940  Biso   1.000  H
  H110     1.0000 0.55430  0.50050  0.42060  Biso   1.000  H
  H111     1.0000 0.94570  0.00050  0.07940  Biso   1.000  H
  H112     1.0000 0.05430  0.00050  0.42060  Biso   1.000  H
  C145     1.0000 0.62226  0.46542  0.90084  Biso   1.000  C
  C146     1.0000 0.37774  0.46542  0.59916  Biso   1.000  C
  C147     1.0000 0.12226  0.96542  0.90084  Biso   1.000  C
  C148     1.0000 0.87774  0.96542  0.59916  Biso   1.000  C
  C149     1.0000 0.37774  0.53458  0.09916  Biso   1.000  C
  C150     1.0000 0.62226  0.53458  0.40084  Biso   1.000  C
  C151     1.0000 0.87774  0.03458  0.09916  Biso   1.000  C
  C152     1.0000 0.12226  0.03458  0.40084  Biso   1.000  C
  C153     1.0000 0.66293  0.40700  0.93178  Biso   1.000  C
  C154     1.0000 0.33707  0.40700  0.56822  Biso   1.000  C
  C155     1.0000 0.16293  0.90700  0.93178  Biso   1.000  C
  C156     1.0000 0.83707  0.90700  0.56822  Biso   1.000  C
  C157     1.0000 0.33707  0.59300  0.06822  Biso   1.000  C
  C158     1.0000 0.66293  0.59300  0.43178  Biso   1.000  C
  C159     1.0000 0.83707  0.09300  0.06822  Biso   1.000  C
  C160     1.0000 0.16293  0.09300  0.43178  Biso   1.000  C
  H113     1.0000 0.69080  0.40840  0.90870  Biso   1.000  H
  H114     1.0000 0.30920  0.40840  0.59130  Biso   1.000  H
  H115     1.0000 0.19080  0.90840  0.90870  Biso   1.000  H
  H116     1.0000 0.80920  0.90840  0.59130  Biso   1.000  H
  H117     1.0000 0.30920  0.59160  0.09130  Biso   1.000  H
  H118     1.0000 0.69080  0.59160  0.40870  Biso   1.000  H
  H119     1.0000 0.80920  0.09160  0.09130  Biso   1.000  H
  H120     1.0000 0.19080  0.09160  0.40870  Biso   1.000  H
  C161     1.0000 0.66331  0.34710  0.99549  Biso   1.000  C
  C162     1.0000 0.33669  0.34710  0.50451  Biso   1.000  C
  C163     1.0000 0.16331  0.84710  0.99549  Biso   1.000  C
  C164     1.0000 0.83669  0.84710  0.50451  Biso   1.000  C
  C165     1.0000 0.33669  0.65290  0.00451  Biso   1.000  C
  C166     1.0000 0.66331  0.65290  0.49549  Biso   1.000  C
  C167     1.0000 0.83669  0.15290  0.00451  Biso   1.000  C
  C168     1.0000 0.16331  0.15290  0.49549  Biso   1.000  C
  H121     1.0000 0.69120  0.30710  0.01440  Biso   1.000  H
  H122     1.0000 0.30880  0.30710  0.48560  Biso   1.000  H
  H123     1.0000 0.19120  0.80710  0.01440  Biso   1.000  H
  H124     1.0000 0.80880  0.80710  0.48560  Biso   1.000  H
  H125     1.0000 0.30880  0.69290  0.98560  Biso   1.000  H
  H126     1.0000 0.69120  0.69290  0.51440  Biso   1.000  H
  H127     1.0000 0.80880  0.19290  0.98560  Biso   1.000  H
  H128     1.0000 0.19120  0.19290  0.51440  Biso   1.000  H
  C169     1.0000 0.79822  0.64970  0.76340  Biso   1.000  C
  C170     1.0000 0.20178  0.64970  0.73660  Biso   1.000  C
  C171     1.0000 0.29822  0.14970  0.76340  Biso   1.000  C
  C172     1.0000 0.70178  0.14970  0.73660  Biso   1.000  C
  C173     1.0000 0.20178  0.35030  0.23660  Biso   1.000  C
  C174     1.0000 0.79822  0.35030  0.26340  Biso   1.000  C
  C175     1.0000 0.70178  0.85030  0.23660  Biso   1.000  C
  C176     1.0000 0.29822  0.85030  0.26340  Biso   1.000  C
  N33      1.0000 0.77430  0.87010  0.03360  Biso   1.000  N
  N34      1.0000 0.22570  0.87010  0.46640  Biso   1.000  N
  N35      1.0000 0.27430  0.37010  0.03360  Biso   1.000  N
  N36      1.0000 0.72570  0.37010  0.46640  Biso   1.000  N
  N37      1.0000 0.22570  0.12990  0.96640  Biso   1.000  N
  N38      1.0000 0.77430  0.12990  0.53360  Biso   1.000  N
  N39      1.0000 0.72570  0.62990  0.96640  Biso   1.000  N
  N40      1.0000 0.27430  0.62990  0.53360  Biso   1.000  N
  C177     1.0000 0.80000  0.85170  0.99750  Biso   1.000  C
  C178     1.0000 0.20000  0.85170  0.50250  Biso   1.000  C
  C179     1.0000 0.30000  0.35170  0.99750  Biso   1.000  C
  C180     1.0000 0.70000  0.35170  0.50250  Biso   1.000  C
  C181     1.0000 0.20000  0.14830  0.00250  Biso   1.000  C
  C182     1.0000 0.80000  0.14830  0.49750  Biso   1.000  C
  C183     1.0000 0.70000  0.64830  0.00250  Biso   1.000  C
  C184     1.0000 0.30000  0.64830  0.49750  Biso   1.000  C
  C185     1.0000 0.83480  0.86310  0.93890  Biso   1.000  C
  C186     1.0000 0.16520  0.86310  0.56110  Biso   1.000  C
  C187     1.0000 0.33480  0.36310  0.93890  Biso   1.000  C
  C188     1.0000 0.66520  0.36310  0.56110  Biso   1.000  C
  C189     1.0000 0.16520  0.13690  0.06110  Biso   1.000  C
  C190     1.0000 0.83480  0.13690  0.43890  Biso   1.000  C
  C191     1.0000 0.66520  0.63690  0.06110  Biso   1.000  C
  C192     1.0000 0.33480  0.63690  0.43890  Biso   1.000  C
  H129     1.0000 0.82910  0.92190  0.91210  Biso   1.000  H
  H130     1.0000 0.17090  0.92190  0.58790  Biso   1.000  H
  H131     1.0000 0.32910  0.42190  0.91210  Biso   1.000  H
  H132     1.0000 0.67090  0.42190  0.58790  Biso   1.000  H
  H133     1.0000 0.17090  0.07810  0.08790  Biso   1.000  H
  H134     1.0000 0.82910  0.07810  0.41210  Biso   1.000  H
  H135     1.0000 0.67090  0.57810  0.08790  Biso   1.000  H
  H136     1.0000 0.32910  0.57810  0.41210  Biso   1.000  H
  H137     1.0000 0.82660  0.81710  0.89470  Biso   1.000  H
  H138     1.0000 0.17340  0.81710  0.60530  Biso   1.000  H
  H139     1.0000 0.32660  0.31710  0.89470  Biso   1.000  H
  H140     1.0000 0.67340  0.31710  0.60530  Biso   1.000  H
  H141     1.0000 0.17340  0.18290  0.10530  Biso   1.000  H
  H142     1.0000 0.82660  0.18290  0.39470  Biso   1.000  H
  H143     1.0000 0.67340  0.68290  0.10530  Biso   1.000  H
  H144     1.0000 0.32660  0.68290  0.39470  Biso   1.000  H
  H145     1.0000 0.87070  0.85750  0.97320  Biso   1.000  H
  H146     1.0000 0.12930  0.85750  0.52680  Biso   1.000  H
  H147     1.0000 0.37070  0.35750  0.97320  Biso   1.000  H
  H148     1.0000 0.62930  0.35750  0.52680  Biso   1.000  H
  H149     1.0000 0.12930  0.14250  0.02680  Biso   1.000  H
  H150     1.0000 0.87070  0.14250  0.47320  Biso   1.000  H
  H151     1.0000 0.62930  0.64250  0.02680  Biso   1.000  H
  H152     1.0000 0.37070  0.64250  0.47320  Biso   1.000  H
  N41      1.0000 0.48440  0.80850  0.26380  Biso   1.000  N
  N42      1.0000 0.51560  0.80850  0.23620  Biso   1.000  N
  N43      1.0000 0.98440  0.30850  0.26380  Biso   1.000  N
  N44      1.0000 0.01560  0.30850  0.23620  Biso   1.000  N
  N45      1.0000 0.51560  0.19150  0.73620  Biso   1.000  N
  N46      1.0000 0.48440  0.19150  0.76380  Biso   1.000  N
  N47      1.0000 0.01560  0.69150  0.73620  Biso   1.000  N
  N48      1.0000 0.98440  0.69150  0.76380  Biso   1.000  N
  C193     1.0000 0.46030  0.74920  0.27490  Biso   1.000  C
  C194     1.0000 0.53970  0.74920  0.22510  Biso   1.000  C
  C195     1.0000 0.96030  0.24920  0.27490  Biso   1.000  C
  C196     1.0000 0.03970  0.24920  0.22510  Biso   1.000  C
  C197     1.0000 0.53970  0.25080  0.72510  Biso   1.000  C
  C198     1.0000 0.46030  0.25080  0.77490  Biso   1.000  C
  C199     1.0000 0.03970  0.75080  0.72510  Biso   1.000  C
  C200     1.0000 0.96030  0.75080  0.77490  Biso   1.000  C
  C201     1.0000 0.42770  0.68130  0.29600  Biso   1.000  C
  C202     1.0000 0.57230  0.68130  0.20400  Biso   1.000  C
  C203     1.0000 0.92770  0.18130  0.29600  Biso   1.000  C
  C204     1.0000 0.07230  0.18130  0.20400  Biso   1.000  C
  C205     1.0000 0.57230  0.31870  0.70400  Biso   1.000  C
  C206     1.0000 0.42770  0.31870  0.79600  Biso   1.000  C
  C207     1.0000 0.07230  0.81870  0.70400  Biso   1.000  C
  C208     1.0000 0.92770  0.81870  0.79600  Biso   1.000  C
  H153     1.0000 0.42310  0.69490  0.35160  Biso   1.000  H
  H154     1.0000 0.57690  0.69490  0.14840  Biso   1.000  H
  H155     1.0000 0.92310  0.19490  0.35160  Biso   1.000  H
  H156     1.0000 0.07690  0.19490  0.14840  Biso   1.000  H
  H157     1.0000 0.57690  0.30510  0.64840  Biso   1.000  H
  H158     1.0000 0.42310  0.30510  0.85160  Biso   1.000  H
  H159     1.0000 0.07690  0.80510  0.64840  Biso   1.000  H
  H160     1.0000 0.92310  0.80510  0.85160  Biso   1.000  H
  H161     1.0000 0.44390  0.62280  0.29850  Biso   1.000  H
  H162     1.0000 0.55610  0.62280  0.20150  Biso   1.000  H
  H163     1.0000 0.94390  0.12280  0.29850  Biso   1.000  H
  H164     1.0000 0.05610  0.12280  0.20150  Biso   1.000  H
  H165     1.0000 0.55610  0.37720  0.70150  Biso   1.000  H
  H166     1.0000 0.44390  0.37720  0.79850  Biso   1.000  H
  H167     1.0000 0.05610  0.87720  0.70150  Biso   1.000  H
  H168     1.0000 0.94390  0.87720  0.79850  Biso   1.000  H
  H169     1.0000 0.39440  0.68070  0.25220  Biso   1.000  H
  H170     1.0000 0.60560  0.68070  0.24780  Biso   1.000  H
  H171     1.0000 0.89440  0.18070  0.25220  Biso   1.000  H
  H172     1.0000 0.10560  0.18070  0.24780  Biso   1.000  H
  H173     1.0000 0.60560  0.31930  0.74780  Biso   1.000  H
  H174     1.0000 0.39440  0.31930  0.75220  Biso   1.000  H
  H175     1.0000 0.10560  0.81930  0.74780  Biso   1.000  H
  H176     1.0000 0.89440  0.81930  0.75220  Biso   1.000  H
  C209     1.0000 0.45620  0.84740  0.56240  Biso   1.000  C
  C210     1.0000 0.54380  0.84740  0.93760  Biso   1.000  C
  C211     1.0000 0.95620  0.34740  0.56240  Biso   1.000  C
  C212     1.0000 0.04380  0.34740  0.93760  Biso   1.000  C
  C213     1.0000 0.54380  0.15260  0.43760  Biso   1.000  C
  C214     1.0000 0.45620  0.15260  0.06240  Biso   1.000  C
  C215     1.0000 0.04380  0.65260  0.43760  Biso   1.000  C
  C216     1.0000 0.95620  0.65260  0.06240  Biso   1.000  C
  C217     1.0000 0.83180  0.79840  0.96400  Biso   1.000  C
  C218     1.0000 0.16820  0.79840  0.53600  Biso   1.000  C
  C219     1.0000 0.33180  0.29840  0.96400  Biso   1.000  C
  C220     1.0000 0.66820  0.29840  0.53600  Biso   1.000  C
  C221     1.0000 0.16820  0.20160  0.03600  Biso   1.000  C
  C222     1.0000 0.83180  0.20160  0.46400  Biso   1.000  C
  C223     1.0000 0.66820  0.70160  0.03600  Biso   1.000  C
  C224     1.0000 0.33180  0.70160  0.46400  Biso   1.000  C
  C225     1.0000 0.45770  0.61670  0.28640  Biso   1.000  C
  C226     1.0000 0.54230  0.61670  0.21360  Biso   1.000  C
  C227     1.0000 0.95770  0.11670  0.28640  Biso   1.000  C
  C228     1.0000 0.04230  0.11670  0.21360  Biso   1.000  C
  C229     1.0000 0.54230  0.38330  0.71360  Biso   1.000  C
  C230     1.0000 0.45770  0.38330  0.78640  Biso   1.000  C
  C231     1.0000 0.04230  0.88330  0.71360  Biso   1.000  C
  C232     1.0000 0.95770  0.88330  0.78640  Biso   1.000  C
  F49      1.0000 0.45620  0.82600  0.64390  Biso   1.000  F
  F50      1.0000 0.54380  0.82600  0.85610  Biso   1.000  F
  F51      1.0000 0.95620  0.32600  0.64390  Biso   1.000  F
  F52      1.0000 0.04380  0.32600  0.85610  Biso   1.000  F
  F53      1.0000 0.54380  0.17400  0.35610  Biso   1.000  F
  F54      1.0000 0.45620  0.17400  0.14390  Biso   1.000  F
  F55      1.0000 0.04380  0.67400  0.35610  Biso   1.000  F
  F56      1.0000 0.95620  0.67400  0.14390  Biso   1.000  F
  F57      1.0000 0.40540  0.83210  0.52170  Biso   1.000  F
  F58      1.0000 0.59460  0.83210  0.97830  Biso   1.000  F
  F59      1.0000 0.90540  0.33210  0.52170  Biso   1.000  F
  F60      1.0000 0.09460  0.33210  0.97830  Biso   1.000  F
  F61      1.0000 0.59460  0.16790  0.47830  Biso   1.000  F
  F62      1.0000 0.40540  0.16790  0.02170  Biso   1.000  F
  F63      1.0000 0.09460  0.66790  0.47830  Biso   1.000  F
  F64      1.0000 0.90540  0.66790  0.02170  Biso   1.000  F
  H177     1.0000 0.82920  0.81810  0.90610  Biso   1.000  H
  H178     1.0000 0.17080  0.81810  0.59390  Biso   1.000  H
  H179     1.0000 0.32920  0.31810  0.90610  Biso   1.000  H
  H180     1.0000 0.67080  0.31810  0.59390  Biso   1.000  H
  H181     1.0000 0.17080  0.18190  0.09390  Biso   1.000  H
  H182     1.0000 0.82920  0.18190  0.40610  Biso   1.000  H
  H183     1.0000 0.67080  0.68190  0.09390  Biso   1.000  H
  H184     1.0000 0.32920  0.68190  0.40610  Biso   1.000  H
  H185     1.0000 0.82100  0.73620  0.96260  Biso   1.000  H
  H186     1.0000 0.17900  0.73620  0.53740  Biso   1.000  H
  H187     1.0000 0.32100  0.23620  0.96260  Biso   1.000  H
  H188     1.0000 0.67900  0.23620  0.53740  Biso   1.000  H
  H189     1.0000 0.17900  0.26380  0.03740  Biso   1.000  H
  H190     1.0000 0.82100  0.26380  0.46260  Biso   1.000  H
  H191     1.0000 0.67900  0.76380  0.03740  Biso   1.000  H
  H192     1.0000 0.32100  0.76380  0.46260  Biso   1.000  H
  H193     1.0000 0.86720  0.80380  0.00030  Biso   1.000  H
  H194     1.0000 0.13280  0.80380  0.49970  Biso   1.000  H
  H195     1.0000 0.36720  0.30380  0.00030  Biso   1.000  H
  H196     1.0000 0.63280  0.30380  0.49970  Biso   1.000  H
  H197     1.0000 0.13280  0.19620  0.99970  Biso   1.000  H
  H198     1.0000 0.86720  0.19620  0.50030  Biso   1.000  H
  H199     1.0000 0.63280  0.69620  0.99970  Biso   1.000  H
  H200     1.0000 0.36720  0.69620  0.50030  Biso   1.000  H
  H201     1.0000 0.44200  0.70840  0.35240  Biso   1.000  H
  H202     1.0000 0.55800  0.70840  0.14760  Biso   1.000  H
  H203     1.0000 0.94200  0.20840  0.35240  Biso   1.000  H
  H204     1.0000 0.05800  0.20840  0.14760  Biso   1.000  H
  H205     1.0000 0.55800  0.29160  0.64760  Biso   1.000  H
  H206     1.0000 0.44200  0.29160  0.85240  Biso   1.000  H
  H207     1.0000 0.05800  0.79160  0.64760  Biso   1.000  H
  H208     1.0000 0.94200  0.79160  0.85240  Biso   1.000  H
  H209     1.0000 0.39380  0.65730  0.29110  Biso   1.000  H
  H210     1.0000 0.60620  0.65730  0.20890  Biso   1.000  H
  H211     1.0000 0.89380  0.15730  0.29110  Biso   1.000  H
  H212     1.0000 0.10620  0.15730  0.20890  Biso   1.000  H
  H213     1.0000 0.60620  0.34270  0.70890  Biso   1.000  H
  H214     1.0000 0.39380  0.34270  0.79110  Biso   1.000  H
  H215     1.0000 0.10620  0.84270  0.70890  Biso   1.000  H
  H216     1.0000 0.89380  0.84270  0.79110  Biso   1.000  H
  H217     1.0000 0.42500  0.72630  0.25180  Biso   1.000  H
  H218     1.0000 0.57500  0.72630  0.24820  Biso   1.000  H
  H219     1.0000 0.92500  0.22630  0.25180  Biso   1.000  H
  H220     1.0000 0.07500  0.22630  0.24820  Biso   1.000  H
  H221     1.0000 0.57500  0.27370  0.74820  Biso   1.000  H
  H222     1.0000 0.42500  0.27370  0.75180  Biso   1.000  H
  H223     1.0000 0.07500  0.77370  0.74820  Biso   1.000  H
  H224     1.0000 0.92500  0.77370  0.75180  Biso   1.000  H
  N49      1.0000 0.48530  0.56480  0.27710  Biso   1.000  N
  N50      1.0000 0.51470  0.56480  0.22290  Biso   1.000  N
  N51      1.0000 0.98530  0.06480  0.27710  Biso   1.000  N
  N52      1.0000 0.01470  0.06480  0.22290  Biso   1.000  N
  N53      1.0000 0.51470  0.43520  0.72290  Biso   1.000  N
  N54      1.0000 0.48530  0.43520  0.77710  Biso   1.000  N
  N55      1.0000 0.01470  0.93520  0.72290  Biso   1.000  N
  N56      1.0000 0.98530  0.93520  0.77710  Biso   1.000  N
  O49      1.0000 0.48420  0.77820  0.45070  Biso   1.000  O
  O50      1.0000 0.51580  0.77820  0.04930  Biso   1.000  O
  O51      1.0000 0.98420  0.27820  0.45070  Biso   1.000  O
  O52      1.0000 0.01580  0.27820  0.04930  Biso   1.000  O
  O53      1.0000 0.51580  0.22180  0.54930  Biso   1.000  O
  O54      1.0000 0.48420  0.22180  0.95070  Biso   1.000  O
  O55      1.0000 0.01580  0.72180  0.54930  Biso   1.000  O
  O56      1.0000 0.98420  0.72180  0.95070  Biso   1.000  O
  O57      1.0000 0.45000  0.68790  0.51980  Biso   1.000  O
  O58      1.0000 0.55000  0.68790  0.98020  Biso   1.000  O
  O59      1.0000 0.95000  0.18790  0.51980  Biso   1.000  O
  O60      1.0000 0.05000  0.18790  0.98020  Biso   1.000  O
  O61      1.0000 0.55000  0.31210  0.48020  Biso   1.000  O
  O62      1.0000 0.45000  0.31210  0.01980  Biso   1.000  O
  O63      1.0000 0.05000  0.81210  0.48020  Biso   1.000  O
  O64      1.0000 0.95000  0.81210  0.01980  Biso   1.000  O
  S17      1.0000 0.48967  0.75310  0.52940  Biso   1.000  S
  S18      1.0000 0.51033  0.75310  0.97060  Biso   1.000  S
  S19      1.0000 0.98967  0.25310  0.52940  Biso   1.000  S
  S20      1.0000 0.01033  0.25310  0.97060  Biso   1.000  S
  S21      1.0000 0.51033  0.24690  0.47060  Biso   1.000  S
  S22      1.0000 0.48967  0.24690  0.02940  Biso   1.000  S
  S23      1.0000 0.01033  0.74690  0.47060  Biso   1.000  S
  S24      1.0000 0.98967  0.74690  0.02940  Biso   1.000  S
