data_image0
_cell_length_a       24.042
_cell_length_b       12.49
_cell_length_c       31.15
_cell_angle_alpha    90
_cell_angle_beta     107.8
_cell_angle_gamma    90

_symmetry_space_group_name_H-M    "P 1"
_symmetry_int_tables_number       1

loop_
  _symmetry_equiv_pos_as_xyz
  'x, y, z'

loop_
  _atom_site_label
  _atom_site_occupancy
  _atom_site_fract_x
  _atom_site_fract_y
  _atom_site_fract_z
  _atom_site_thermal_displace_type
  _atom_site_B_iso_or_equiv
  _atom_site_type_symbol
  Pt1      1.0000 0.28217  0.49248  0.39029  Biso   1.000  Pt
  Pt2      1.0000 0.78217  0.99248  0.39029  Biso   1.000  Pt
  Pt3      1.0000 0.71783  0.49248  0.10971  Biso   1.000  Pt
  Pt4      1.0000 0.21783  0.99248  0.10971  Biso   1.000  Pt
  Pt5      1.0000 0.71783  0.50752  0.60971  Biso   1.000  Pt
  Pt6      1.0000 0.21783  0.00752  0.60971  Biso   1.000  Pt
  Pt7      1.0000 0.28217  0.50752  0.89029  Biso   1.000  Pt
  Pt8      1.0000 0.78217  0.00752  0.89029  Biso   1.000  Pt
  Pt9      1.0000 0.50000  0.73117  0.75000  Biso   1.000  Pt
  Pt10     1.0000 0.00000  0.23117  0.75000  Biso   1.000  Pt
  Pt11     1.0000 0.50000  0.26883  0.25000  Biso   1.000  Pt
  Pt12     1.0000 0.00000  0.76883  0.25000  Biso   1.000  Pt
  Cu1      1.0000 0.50000  0.00000  0.50000  Biso   1.000  Cu
  Cu2      1.0000 0.00000  0.50000  0.50000  Biso   1.000  Cu
  Cu3      1.0000 0.50000  0.00000  0.00000  Biso   1.000  Cu
  Cu4      1.0000 0.00000  0.50000  0.00000  Biso   1.000  Cu
  Cu5      1.0000 0.53736  0.80281  0.45702  Biso   1.000  Cu
  Cu6      1.0000 0.03736  0.30281  0.45702  Biso   1.000  Cu
  Cu7      1.0000 0.46264  0.80281  0.04298  Biso   1.000  Cu
  Cu8      1.0000 0.96264  0.30281  0.04298  Biso   1.000  Cu
  Cu9      1.0000 0.46264  0.19719  0.54298  Biso   1.000  Cu
  Cu10     1.0000 0.96264  0.69719  0.54298  Biso   1.000  Cu
  Cu11     1.0000 0.53736  0.19719  0.95702  Biso   1.000  Cu
  Cu12     1.0000 0.03736  0.69719  0.95702  Biso   1.000  Cu
  Cu13     1.0000 0.59980  0.87048  0.57071  Biso   1.000  Cu
  Cu14     1.0000 0.09980  0.37048  0.57071  Biso   1.000  Cu
  Cu15     1.0000 0.40020  0.87048  0.92929  Biso   1.000  Cu
  Cu16     1.0000 0.90020  0.37048  0.92929  Biso   1.000  Cu
  Cu17     1.0000 0.40020  0.12952  0.42929  Biso   1.000  Cu
  Cu18     1.0000 0.90020  0.62952  0.42929  Biso   1.000  Cu
  Cu19     1.0000 0.59980  0.12952  0.07071  Biso   1.000  Cu
  Cu20     1.0000 0.09980  0.62952  0.07071  Biso   1.000  Cu
  N1       1.0000 0.29200  0.53440  0.33030  Biso   1.000  N
  N2       1.0000 0.79200  0.03440  0.33030  Biso   1.000  N
  N3       1.0000 0.70800  0.53440  0.16970  Biso   1.000  N
  N4       1.0000 0.20800  0.03440  0.16970  Biso   1.000  N
  N5       1.0000 0.70800  0.46560  0.66970  Biso   1.000  N
  N6       1.0000 0.20800  0.96560  0.66970  Biso   1.000  N
  N7       1.0000 0.29200  0.46560  0.83030  Biso   1.000  N
  N8       1.0000 0.79200  0.96560  0.83030  Biso   1.000  N
  H1       1.0000 0.27060  0.59280  0.31920  Biso   1.000  H
  H2       1.0000 0.77060  0.09280  0.31920  Biso   1.000  H
  H3       1.0000 0.72940  0.59280  0.18080  Biso   1.000  H
  H4       1.0000 0.22940  0.09280  0.18080  Biso   1.000  H
  H5       1.0000 0.72940  0.40720  0.68080  Biso   1.000  H
  H6       1.0000 0.22940  0.90720  0.68080  Biso   1.000  H
  H7       1.0000 0.27060  0.40720  0.81920  Biso   1.000  H
  H8       1.0000 0.77060  0.90720  0.81920  Biso   1.000  H
  H9       1.0000 0.32970  0.54880  0.33340  Biso   1.000  H
  H10      1.0000 0.82970  0.04880  0.33340  Biso   1.000  H
  H11      1.0000 0.67030  0.54880  0.16660  Biso   1.000  H
  H12      1.0000 0.17030  0.04880  0.16660  Biso   1.000  H
  H13      1.0000 0.67030  0.45120  0.66660  Biso   1.000  H
  H14      1.0000 0.17030  0.95120  0.66660  Biso   1.000  H
  H15      1.0000 0.32970  0.45120  0.83340  Biso   1.000  H
  H16      1.0000 0.82970  0.95120  0.83340  Biso   1.000  H
  N9       1.0000 0.27330  0.34160  0.36430  Biso   1.000  N
  N10      1.0000 0.77330  0.84160  0.36430  Biso   1.000  N
  N11      1.0000 0.72670  0.34160  0.13570  Biso   1.000  N
  N12      1.0000 0.22670  0.84160  0.13570  Biso   1.000  N
  N13      1.0000 0.72670  0.65840  0.63570  Biso   1.000  N
  N14      1.0000 0.22670  0.15840  0.63570  Biso   1.000  N
  N15      1.0000 0.27330  0.65840  0.86430  Biso   1.000  N
  N16      1.0000 0.77330  0.15840  0.86430  Biso   1.000  N
  H17      1.0000 0.29970  0.29800  0.38280  Biso   1.000  H
  H18      1.0000 0.79970  0.79800  0.38280  Biso   1.000  H
  H19      1.0000 0.70030  0.29800  0.11720  Biso   1.000  H
  H20      1.0000 0.20030  0.79800  0.11720  Biso   1.000  H
  H21      1.0000 0.70030  0.70200  0.61720  Biso   1.000  H
  H22      1.0000 0.20030  0.20200  0.61720  Biso   1.000  H
  H23      1.0000 0.29970  0.70200  0.88280  Biso   1.000  H
  H24      1.0000 0.79970  0.20200  0.88280  Biso   1.000  H
  H25      1.0000 0.23740  0.31650  0.36190  Biso   1.000  H
  H26      1.0000 0.73740  0.81650  0.36190  Biso   1.000  H
  H27      1.0000 0.76260  0.31650  0.13810  Biso   1.000  H
  H28      1.0000 0.26260  0.81650  0.13810  Biso   1.000  H
  H29      1.0000 0.76260  0.68350  0.63810  Biso   1.000  H
  H30      1.0000 0.26260  0.18350  0.63810  Biso   1.000  H
  H31      1.0000 0.23740  0.68350  0.86190  Biso   1.000  H
  H32      1.0000 0.73740  0.18350  0.86190  Biso   1.000  H
  N17      1.0000 0.29460  0.64460  0.41430  Biso   1.000  N
  N18      1.0000 0.79460  0.14460  0.41430  Biso   1.000  N
  N19      1.0000 0.70540  0.64460  0.08570  Biso   1.000  N
  N20      1.0000 0.20540  0.14460  0.08570  Biso   1.000  N
  N21      1.0000 0.70540  0.35540  0.58570  Biso   1.000  N
  N22      1.0000 0.20540  0.85540  0.58570  Biso   1.000  N
  N23      1.0000 0.29460  0.35540  0.91430  Biso   1.000  N
  N24      1.0000 0.79460  0.85540  0.91430  Biso   1.000  N
  N25      1.0000 0.77570  0.94290  0.45010  Biso   1.000  N
  N26      1.0000 0.27570  0.44290  0.45010  Biso   1.000  N
  N27      1.0000 0.22430  0.94290  0.04990  Biso   1.000  N
  N28      1.0000 0.72430  0.44290  0.04990  Biso   1.000  N
  N29      1.0000 0.22430  0.05710  0.54990  Biso   1.000  N
  N30      1.0000 0.72430  0.55710  0.54990  Biso   1.000  N
  N31      1.0000 0.77570  0.05710  0.95010  Biso   1.000  N
  N32      1.0000 0.27570  0.55710  0.95010  Biso   1.000  N
  N33      1.0000 0.52920  0.61240  0.79530  Biso   1.000  N
  N34      1.0000 0.02920  0.11240  0.79530  Biso   1.000  N
  N35      1.0000 0.47080  0.61240  0.70470  Biso   1.000  N
  N36      1.0000 0.97080  0.11240  0.70470  Biso   1.000  N
  N37      1.0000 0.47080  0.38760  0.20470  Biso   1.000  N
  N38      1.0000 0.97080  0.88760  0.20470  Biso   1.000  N
  N39      1.0000 0.52920  0.38760  0.29530  Biso   1.000  N
  N40      1.0000 0.02920  0.88760  0.29530  Biso   1.000  N
  H33      1.0000 0.56720  0.62220  0.81050  Biso   1.000  H
  H34      1.0000 0.06720  0.12220  0.81050  Biso   1.000  H
  H35      1.0000 0.43280  0.62220  0.68950  Biso   1.000  H
  H36      1.0000 0.93280  0.12220  0.68950  Biso   1.000  H
  H37      1.0000 0.43280  0.37780  0.18950  Biso   1.000  H
  H38      1.0000 0.93280  0.87780  0.18950  Biso   1.000  H
  H39      1.0000 0.56720  0.37780  0.31050  Biso   1.000  H
  H40      1.0000 0.06720  0.87780  0.31050  Biso   1.000  H
  H41      1.0000 0.50870  0.61100  0.81510  Biso   1.000  H
  H42      1.0000 0.00870  0.11100  0.81510  Biso   1.000  H
  H43      1.0000 0.49130  0.61100  0.68490  Biso   1.000  H
  H44      1.0000 0.99130  0.11100  0.68490  Biso   1.000  H
  H45      1.0000 0.49130  0.38900  0.18490  Biso   1.000  H
  H46      1.0000 0.99130  0.88900  0.18490  Biso   1.000  H
  H47      1.0000 0.50870  0.38900  0.31510  Biso   1.000  H
  H48      1.0000 0.00870  0.88900  0.31510  Biso   1.000  H
  N41      1.0000 0.46920  0.84570  0.70160  Biso   1.000  N
  N42      1.0000 0.96920  0.34570  0.70160  Biso   1.000  N
  N43      1.0000 0.53080  0.84570  0.79840  Biso   1.000  N
  N44      1.0000 0.03080  0.34570  0.79840  Biso   1.000  N
  N45      1.0000 0.53080  0.15430  0.29840  Biso   1.000  N
  N46      1.0000 0.03080  0.65430  0.29840  Biso   1.000  N
  N47      1.0000 0.46920  0.15430  0.20160  Biso   1.000  N
  N48      1.0000 0.96920  0.65430  0.20160  Biso   1.000  N
  O1       1.0000 0.42270  0.93520  0.46740  Biso   1.000  O
  O2       1.0000 0.92270  0.43520  0.46740  Biso   1.000  O
  O3       1.0000 0.57730  0.93520  0.03260  Biso   1.000  O
  O4       1.0000 0.07730  0.43520  0.03260  Biso   1.000  O
  O5       1.0000 0.57730  0.06480  0.53260  Biso   1.000  O
  O6       1.0000 0.07730  0.56480  0.53260  Biso   1.000  O
  O7       1.0000 0.42270  0.06480  0.96740  Biso   1.000  O
  O8       1.0000 0.92270  0.56480  0.96740  Biso   1.000  O
  O9       1.0000 0.45140  0.78820  0.43810  Biso   1.000  O
  O10      1.0000 0.95140  0.28820  0.43810  Biso   1.000  O
  O11      1.0000 0.54860  0.78820  0.06190  Biso   1.000  O
  O12      1.0000 0.04860  0.28820  0.06190  Biso   1.000  O
  O13      1.0000 0.54860  0.21180  0.56190  Biso   1.000  O
  O14      1.0000 0.04860  0.71180  0.56190  Biso   1.000  O
  O15      1.0000 0.45140  0.21180  0.93810  Biso   1.000  O
  O16      1.0000 0.95140  0.71180  0.93810  Biso   1.000  O
  O17      1.0000 0.62010  0.83550  0.46690  Biso   1.000  O
  O18      1.0000 0.12010  0.33550  0.46690  Biso   1.000  O
  O19      1.0000 0.37990  0.83550  0.03310  Biso   1.000  O
  O20      1.0000 0.87990  0.33550  0.03310  Biso   1.000  O
  O21      1.0000 0.37990  0.16450  0.53310  Biso   1.000  O
  O22      1.0000 0.87990  0.66450  0.53310  Biso   1.000  O
  O23      1.0000 0.62010  0.16450  0.96690  Biso   1.000  O
  O24      1.0000 0.12010  0.66450  0.96690  Biso   1.000  O
  O25      1.0000 0.66000  0.84930  0.54210  Biso   1.000  O
  O26      1.0000 0.16000  0.34930  0.54210  Biso   1.000  O
  O27      1.0000 0.34000  0.84930  0.95790  Biso   1.000  O
  O28      1.0000 0.84000  0.34930  0.95790  Biso   1.000  O
  O29      1.0000 0.34000  0.15070  0.45790  Biso   1.000  O
  O30      1.0000 0.84000  0.65070  0.45790  Biso   1.000  O
  O31      1.0000 0.66000  0.15070  0.04210  Biso   1.000  O
  O32      1.0000 0.16000  0.65070  0.04210  Biso   1.000  O
  O33      1.0000 0.47760  0.00240  0.56720  Biso   1.000  O
  O34      1.0000 0.97760  0.50240  0.56720  Biso   1.000  O
  O35      1.0000 0.52240  0.00240  0.93280  Biso   1.000  O
  O36      1.0000 0.02240  0.50240  0.93280  Biso   1.000  O
  O37      1.0000 0.52240  0.99760  0.43280  Biso   1.000  O
  O38      1.0000 0.02240  0.49760  0.43280  Biso   1.000  O
  O39      1.0000 0.47760  0.99760  0.06720  Biso   1.000  O
  O40      1.0000 0.97760  0.49760  0.06720  Biso   1.000  O
  O41      1.0000 0.54800  0.89440  0.60630  Biso   1.000  O
  O42      1.0000 0.04800  0.39440  0.60630  Biso   1.000  O
  O43      1.0000 0.45200  0.89440  0.89370  Biso   1.000  O
  O44      1.0000 0.95200  0.39440  0.89370  Biso   1.000  O
  O45      1.0000 0.45200  0.10560  0.39370  Biso   1.000  O
  O46      1.0000 0.95200  0.60560  0.39370  Biso   1.000  O
  O47      1.0000 0.54800  0.10560  0.10630  Biso   1.000  O
  O48      1.0000 0.04800  0.60560  0.10630  Biso   1.000  O
  O49      1.0000 0.53450  0.85800  0.51520  Biso   1.000  O
  O50      1.0000 0.03450  0.35800  0.51520  Biso   1.000  O
  O51      1.0000 0.46550  0.85800  0.98480  Biso   1.000  O
  O52      1.0000 0.96550  0.35800  0.98480  Biso   1.000  O
  O53      1.0000 0.46550  0.14200  0.48480  Biso   1.000  O
  O54      1.0000 0.96550  0.64200  0.48480  Biso   1.000  O
  O55      1.0000 0.53450  0.14200  0.01520  Biso   1.000  O
  O56      1.0000 0.03450  0.64200  0.01520  Biso   1.000  O
  O57      1.0000 0.53830  0.62870  0.48980  Biso   1.000  O
  O58      1.0000 0.03830  0.12870  0.48980  Biso   1.000  O
  O59      1.0000 0.46170  0.62870  0.01020  Biso   1.000  O
  O60      1.0000 0.96170  0.12870  0.01020  Biso   1.000  O
  O61      1.0000 0.46170  0.37130  0.51020  Biso   1.000  O
  O62      1.0000 0.96170  0.87130  0.51020  Biso   1.000  O
  O63      1.0000 0.53830  0.37130  0.98980  Biso   1.000  O
  O64      1.0000 0.03830  0.87130  0.98980  Biso   1.000  O
  O65      1.0000 0.53550  0.74120  0.39840  Biso   1.000  O
  O66      1.0000 0.03550  0.24120  0.39840  Biso   1.000  O
  O67      1.0000 0.46450  0.74120  0.10160  Biso   1.000  O
  O68      1.0000 0.96450  0.24120  0.10160  Biso   1.000  O
  O69      1.0000 0.46450  0.25880  0.60160  Biso   1.000  O
  O70      1.0000 0.96450  0.75880  0.60160  Biso   1.000  O
  O71      1.0000 0.53550  0.25880  0.89840  Biso   1.000  O
  O72      1.0000 0.03550  0.75880  0.89840  Biso   1.000  O
  O73      1.0000 0.66340  0.89350  0.62620  Biso   1.000  O
  O74      1.0000 0.16340  0.39350  0.62620  Biso   1.000  O
  O75      1.0000 0.33660  0.89350  0.87380  Biso   1.000  O
  O76      1.0000 0.83660  0.39350  0.87380  Biso   1.000  O
  O77      1.0000 0.33660  0.10650  0.37380  Biso   1.000  O
  O78      1.0000 0.83660  0.60650  0.37380  Biso   1.000  O
  O79      1.0000 0.66340  0.10650  0.12620  Biso   1.000  O
  O80      1.0000 0.16340  0.60650  0.12620  Biso   1.000  O
  O81      1.0000 0.59930  0.68740  0.58210  Biso   1.000  O
  O82      1.0000 0.09930  0.18740  0.58210  Biso   1.000  O
  O83      1.0000 0.40070  0.68740  0.91790  Biso   1.000  O
  O84      1.0000 0.90070  0.18740  0.91790  Biso   1.000  O
  O85      1.0000 0.40070  0.31260  0.41790  Biso   1.000  O
  O86      1.0000 0.90070  0.81260  0.41790  Biso   1.000  O
  O87      1.0000 0.59930  0.31260  0.08210  Biso   1.000  O
  O88      1.0000 0.09930  0.81260  0.08210  Biso   1.000  O
  C1       1.0000 0.27130  0.44000  0.29920  Biso   1.000  C
  C2       1.0000 0.77130  0.94000  0.29920  Biso   1.000  C
  C3       1.0000 0.72870  0.44000  0.20080  Biso   1.000  C
  C4       1.0000 0.22870  0.94000  0.20080  Biso   1.000  C
  C5       1.0000 0.72870  0.56000  0.70080  Biso   1.000  C
  C6       1.0000 0.22870  0.06000  0.70080  Biso   1.000  C
  C7       1.0000 0.27130  0.56000  0.79920  Biso   1.000  C
  C8       1.0000 0.77130  0.06000  0.79920  Biso   1.000  C
  H49      1.0000 0.22960  0.44680  0.28480  Biso   1.000  H
  H50      1.0000 0.72960  0.94680  0.28480  Biso   1.000  H
  H51      1.0000 0.77040  0.44680  0.21520  Biso   1.000  H
  H52      1.0000 0.27040  0.94680  0.21520  Biso   1.000  H
  H53      1.0000 0.77040  0.55320  0.71520  Biso   1.000  H
  H54      1.0000 0.27040  0.05320  0.71520  Biso   1.000  H
  H55      1.0000 0.22960  0.55320  0.78480  Biso   1.000  H
  H56      1.0000 0.72960  0.05320  0.78480  Biso   1.000  H
  H57      1.0000 0.29000  0.44290  0.27560  Biso   1.000  H
  H58      1.0000 0.79000  0.94290  0.27560  Biso   1.000  H
  H59      1.0000 0.71000  0.44290  0.22440  Biso   1.000  H
  H60      1.0000 0.21000  0.94290  0.22440  Biso   1.000  H
  H61      1.0000 0.71000  0.55710  0.72440  Biso   1.000  H
  H62      1.0000 0.21000  0.05710  0.72440  Biso   1.000  H
  H63      1.0000 0.29000  0.55710  0.77560  Biso   1.000  H
  H64      1.0000 0.79000  0.05710  0.77560  Biso   1.000  H
  C9       1.0000 0.28210  0.34300  0.31930  Biso   1.000  C
  C10      1.0000 0.78210  0.84300  0.31930  Biso   1.000  C
  C11      1.0000 0.71790  0.34300  0.18070  Biso   1.000  C
  C12      1.0000 0.21790  0.84300  0.18070  Biso   1.000  C
  C13      1.0000 0.71790  0.65700  0.68070  Biso   1.000  C
  C14      1.0000 0.21790  0.15700  0.68070  Biso   1.000  C
  C15      1.0000 0.28210  0.65700  0.81930  Biso   1.000  C
  C16      1.0000 0.78210  0.15700  0.81930  Biso   1.000  C
  H65      1.0000 0.32210  0.32210  0.32240  Biso   1.000  H
  H66      1.0000 0.82210  0.82210  0.32240  Biso   1.000  H
  H67      1.0000 0.67790  0.32210  0.17760  Biso   1.000  H
  H68      1.0000 0.17790  0.82210  0.17760  Biso   1.000  H
  H69      1.0000 0.67790  0.67790  0.67760  Biso   1.000  H
  H70      1.0000 0.17790  0.17790  0.67760  Biso   1.000  H
  H71      1.0000 0.32210  0.67790  0.82240  Biso   1.000  H
  H72      1.0000 0.82210  0.17790  0.82240  Biso   1.000  H
  H73      1.0000 0.25650  0.29010  0.30020  Biso   1.000  H
  H74      1.0000 0.75650  0.79010  0.30020  Biso   1.000  H
  H75      1.0000 0.74350  0.29010  0.19980  Biso   1.000  H
  H76      1.0000 0.24350  0.79010  0.19980  Biso   1.000  H
  H77      1.0000 0.74350  0.70990  0.69980  Biso   1.000  H
  H78      1.0000 0.24350  0.20990  0.69980  Biso   1.000  H
  H79      1.0000 0.25650  0.70990  0.80020  Biso   1.000  H
  H80      1.0000 0.75650  0.20990  0.80020  Biso   1.000  H
  C17      1.0000 0.34410  0.69570  0.42080  Biso   1.000  C
  C18      1.0000 0.84410  0.19570  0.42080  Biso   1.000  C
  C19      1.0000 0.65590  0.69570  0.07920  Biso   1.000  C
  C20      1.0000 0.15590  0.19570  0.07920  Biso   1.000  C
  C21      1.0000 0.65590  0.30430  0.57920  Biso   1.000  C
  C22      1.0000 0.15590  0.80430  0.57920  Biso   1.000  C
  C23      1.0000 0.34410  0.30430  0.92080  Biso   1.000  C
  C24      1.0000 0.84410  0.80430  0.92080  Biso   1.000  C
  H81      1.0000 0.37420  0.66160  0.41310  Biso   1.000  H
  H82      1.0000 0.87420  0.16160  0.41310  Biso   1.000  H
  H83      1.0000 0.62580  0.66160  0.08690  Biso   1.000  H
  H84      1.0000 0.12580  0.16160  0.08690  Biso   1.000  H
  H85      1.0000 0.62580  0.33840  0.58690  Biso   1.000  H
  H86      1.0000 0.12580  0.83840  0.58690  Biso   1.000  H
  H87      1.0000 0.37420  0.33840  0.91310  Biso   1.000  H
  H88      1.0000 0.87420  0.83840  0.91310  Biso   1.000  H
  C25      1.0000 0.35380  0.79790  0.43850  Biso   1.000  C
  C26      1.0000 0.85380  0.29790  0.43850  Biso   1.000  C
  C27      1.0000 0.64620  0.79790  0.06150  Biso   1.000  C
  C28      1.0000 0.14620  0.29790  0.06150  Biso   1.000  C
  C29      1.0000 0.64620  0.20210  0.56150  Biso   1.000  C
  C30      1.0000 0.14620  0.70210  0.56150  Biso   1.000  C
  C31      1.0000 0.35380  0.20210  0.93850  Biso   1.000  C
  C32      1.0000 0.85380  0.70210  0.93850  Biso   1.000  C
  C33      1.0000 0.31010  0.85150  0.44780  Biso   1.000  C
  C34      1.0000 0.81010  0.35150  0.44780  Biso   1.000  C
  C35      1.0000 0.68990  0.85150  0.05220  Biso   1.000  C
  C36      1.0000 0.18990  0.35150  0.05220  Biso   1.000  C
  C37      1.0000 0.68990  0.14850  0.55220  Biso   1.000  C
  C38      1.0000 0.18990  0.64850  0.55220  Biso   1.000  C
  C39      1.0000 0.31010  0.14850  0.94780  Biso   1.000  C
  C40      1.0000 0.81010  0.64850  0.94780  Biso   1.000  C
  H89      1.0000 0.31580  0.91990  0.46030  Biso   1.000  H
  H90      1.0000 0.81580  0.41990  0.46030  Biso   1.000  H
  H91      1.0000 0.68420  0.91990  0.03970  Biso   1.000  H
  H92      1.0000 0.18420  0.41990  0.03970  Biso   1.000  H
  H93      1.0000 0.68420  0.08010  0.53970  Biso   1.000  H
  H94      1.0000 0.18420  0.58010  0.53970  Biso   1.000  H
  H95      1.0000 0.31580  0.08010  0.96030  Biso   1.000  H
  H96      1.0000 0.81580  0.58010  0.96030  Biso   1.000  H
  C41      1.0000 0.25690  0.80110  0.43820  Biso   1.000  C
  C42      1.0000 0.75690  0.30110  0.43820  Biso   1.000  C
  C43      1.0000 0.74310  0.80110  0.06180  Biso   1.000  C
  C44      1.0000 0.24310  0.30110  0.06180  Biso   1.000  C
  C45      1.0000 0.74310  0.19890  0.56180  Biso   1.000  C
  C46      1.0000 0.24310  0.69890  0.56180  Biso   1.000  C
  C47      1.0000 0.25690  0.19890  0.93820  Biso   1.000  C
  C48      1.0000 0.75690  0.69890  0.93820  Biso   1.000  C
  H97      1.0000 0.22520  0.83800  0.44210  Biso   1.000  H
  H98      1.0000 0.72520  0.33800  0.44210  Biso   1.000  H
  H99      1.0000 0.77480  0.83800  0.05790  Biso   1.000  H
  H100     1.0000 0.27480  0.33800  0.05790  Biso   1.000  H
  H101     1.0000 0.77480  0.16200  0.55790  Biso   1.000  H
  H102     1.0000 0.27480  0.66200  0.55790  Biso   1.000  H
  H103     1.0000 0.22520  0.16200  0.94210  Biso   1.000  H
  H104     1.0000 0.72520  0.66200  0.94210  Biso   1.000  H
  C49      1.0000 0.24970  0.69880  0.42300  Biso   1.000  C
  C50      1.0000 0.74970  0.19880  0.42300  Biso   1.000  C
  C51      1.0000 0.75030  0.69880  0.07700  Biso   1.000  C
  C52      1.0000 0.25030  0.19880  0.07700  Biso   1.000  C
  C53      1.0000 0.75030  0.30120  0.57700  Biso   1.000  C
  C54      1.0000 0.25030  0.80120  0.57700  Biso   1.000  C
  C55      1.0000 0.24970  0.30120  0.92300  Biso   1.000  C
  C56      1.0000 0.74970  0.80120  0.92300  Biso   1.000  C
  H105     1.0000 0.21380  0.66500  0.41850  Biso   1.000  H
  H106     1.0000 0.71380  0.16500  0.41850  Biso   1.000  H
  H107     1.0000 0.78620  0.66500  0.08150  Biso   1.000  H
  H108     1.0000 0.28620  0.16500  0.08150  Biso   1.000  H
  H109     1.0000 0.78620  0.33500  0.58150  Biso   1.000  H
  H110     1.0000 0.28620  0.83500  0.58150  Biso   1.000  H
  H111     1.0000 0.21380  0.33500  0.91850  Biso   1.000  H
  H112     1.0000 0.71380  0.83500  0.91850  Biso   1.000  H
  C57      1.0000 0.41420  0.84510  0.44840  Biso   1.000  C
  C58      1.0000 0.91420  0.34510  0.44840  Biso   1.000  C
  C59      1.0000 0.58580  0.84510  0.05160  Biso   1.000  C
  C60      1.0000 0.08580  0.34510  0.05160  Biso   1.000  C
  C61      1.0000 0.58580  0.15490  0.55160  Biso   1.000  C
  C62      1.0000 0.08580  0.65490  0.55160  Biso   1.000  C
  C63      1.0000 0.41420  0.15490  0.94840  Biso   1.000  C
  C64      1.0000 0.91420  0.65490  0.94840  Biso   1.000  C
  C65      1.0000 0.72530  0.90590  0.45540  Biso   1.000  C
  C66      1.0000 0.22530  0.40590  0.45540  Biso   1.000  C
  C67      1.0000 0.27470  0.90590  0.04460  Biso   1.000  C
  C68      1.0000 0.77470  0.40590  0.04460  Biso   1.000  C
  C69      1.0000 0.27470  0.09410  0.54460  Biso   1.000  C
  C70      1.0000 0.77470  0.59410  0.54460  Biso   1.000  C
  C71      1.0000 0.72530  0.09410  0.95540  Biso   1.000  C
  C72      1.0000 0.22530  0.59410  0.95540  Biso   1.000  C
  H113     1.0000 0.69310  0.89650  0.43000  Biso   1.000  H
  H114     1.0000 0.19310  0.39650  0.43000  Biso   1.000  H
  H115     1.0000 0.30690  0.89650  0.07000  Biso   1.000  H
  H116     1.0000 0.80690  0.39650  0.07000  Biso   1.000  H
  H117     1.0000 0.30690  0.10350  0.57000  Biso   1.000  H
  H118     1.0000 0.80690  0.60350  0.57000  Biso   1.000  H
  H119     1.0000 0.69310  0.10350  0.93000  Biso   1.000  H
  H120     1.0000 0.19310  0.60350  0.93000  Biso   1.000  H
  C73      1.0000 0.71980  0.88130  0.49790  Biso   1.000  C
  C74      1.0000 0.21980  0.38130  0.49790  Biso   1.000  C
  C75      1.0000 0.28020  0.88130  0.00210  Biso   1.000  C
  C76      1.0000 0.78020  0.38130  0.00210  Biso   1.000  C
  C77      1.0000 0.28020  0.11870  0.50210  Biso   1.000  C
  C78      1.0000 0.78020  0.61870  0.50210  Biso   1.000  C
  C79      1.0000 0.71980  0.11870  0.99790  Biso   1.000  C
  C80      1.0000 0.21980  0.61870  0.99790  Biso   1.000  C
  C81      1.0000 0.76860  0.88970  0.53500  Biso   1.000  C
  C82      1.0000 0.26860  0.38970  0.53500  Biso   1.000  C
  C83      1.0000 0.23140  0.88970  0.96500  Biso   1.000  C
  C84      1.0000 0.73140  0.38970  0.96500  Biso   1.000  C
  C85      1.0000 0.23140  0.11030  0.46500  Biso   1.000  C
  C86      1.0000 0.73140  0.61030  0.46500  Biso   1.000  C
  C87      1.0000 0.76860  0.11030  0.03500  Biso   1.000  C
  C88      1.0000 0.26860  0.61030  0.03500  Biso   1.000  C
  H121     1.0000 0.76740  0.87110  0.56360  Biso   1.000  H
  H122     1.0000 0.26740  0.37110  0.56360  Biso   1.000  H
  H123     1.0000 0.23260  0.87110  0.93640  Biso   1.000  H
  H124     1.0000 0.73260  0.37110  0.93640  Biso   1.000  H
  H125     1.0000 0.23260  0.12890  0.43640  Biso   1.000  H
  H126     1.0000 0.73260  0.62890  0.43640  Biso   1.000  H
  H127     1.0000 0.76740  0.12890  0.06360  Biso   1.000  H
  H128     1.0000 0.26740  0.62890  0.06360  Biso   1.000  H
  C89      1.0000 0.81920  0.92650  0.52840  Biso   1.000  C
  C90      1.0000 0.31920  0.42650  0.52840  Biso   1.000  C
  C91      1.0000 0.18080  0.92650  0.97160  Biso   1.000  C
  C92      1.0000 0.68080  0.42650  0.97160  Biso   1.000  C
  C93      1.0000 0.18080  0.07350  0.47160  Biso   1.000  C
  C94      1.0000 0.68080  0.57350  0.47160  Biso   1.000  C
  C95      1.0000 0.81920  0.07350  0.02840  Biso   1.000  C
  C96      1.0000 0.31920  0.57350  0.02840  Biso   1.000  C
  H129     1.0000 0.85290  0.93410  0.55270  Biso   1.000  H
  H130     1.0000 0.35290  0.43410  0.55270  Biso   1.000  H
  H131     1.0000 0.14710  0.93410  0.94730  Biso   1.000  H
  H132     1.0000 0.64710  0.43410  0.94730  Biso   1.000  H
  H133     1.0000 0.14710  0.06590  0.44730  Biso   1.000  H
  H134     1.0000 0.64710  0.56590  0.44730  Biso   1.000  H
  H135     1.0000 0.85290  0.06590  0.05270  Biso   1.000  H
  H136     1.0000 0.35290  0.56590  0.05270  Biso   1.000  H
  C97      1.0000 0.81990  0.95220  0.48540  Biso   1.000  C
  C98      1.0000 0.31990  0.45220  0.48540  Biso   1.000  C
  C99      1.0000 0.18010  0.95220  0.01460  Biso   1.000  C
  C100     1.0000 0.68010  0.45220  0.01460  Biso   1.000  C
  C101     1.0000 0.18010  0.04780  0.51460  Biso   1.000  C
  C102     1.0000 0.68010  0.54780  0.51460  Biso   1.000  C
  C103     1.0000 0.81990  0.04780  0.98540  Biso   1.000  C
  C104     1.0000 0.31990  0.54780  0.98540  Biso   1.000  C
  H137     1.0000 0.85460  0.97780  0.48190  Biso   1.000  H
  H138     1.0000 0.35460  0.47780  0.48190  Biso   1.000  H
  H139     1.0000 0.14540  0.97780  0.01810  Biso   1.000  H
  H140     1.0000 0.64540  0.47780  0.01810  Biso   1.000  H
  H141     1.0000 0.14540  0.02220  0.51810  Biso   1.000  H
  H142     1.0000 0.64540  0.52220  0.51810  Biso   1.000  H
  H143     1.0000 0.85460  0.02220  0.98190  Biso   1.000  H
  H144     1.0000 0.35460  0.52220  0.98190  Biso   1.000  H
  C105     1.0000 0.66060  0.85290  0.50110  Biso   1.000  C
  C106     1.0000 0.16060  0.35290  0.50110  Biso   1.000  C
  C107     1.0000 0.33940  0.85290  0.99890  Biso   1.000  C
  C108     1.0000 0.83940  0.35290  0.99890  Biso   1.000  C
  C109     1.0000 0.33940  0.14710  0.49890  Biso   1.000  C
  C110     1.0000 0.83940  0.64710  0.49890  Biso   1.000  C
  C111     1.0000 0.66060  0.14710  0.00110  Biso   1.000  C
  C112     1.0000 0.16060  0.64710  0.00110  Biso   1.000  C
  C113     1.0000 0.52100  0.50860  0.76890  Biso   1.000  C
  C114     1.0000 0.02100  0.00860  0.76890  Biso   1.000  C
  C115     1.0000 0.47900  0.50860  0.73110  Biso   1.000  C
  C116     1.0000 0.97900  0.00860  0.73110  Biso   1.000  C
  C117     1.0000 0.47900  0.49140  0.23110  Biso   1.000  C
  C118     1.0000 0.97900  0.99140  0.23110  Biso   1.000  C
  C119     1.0000 0.52100  0.49140  0.26890  Biso   1.000  C
  C120     1.0000 0.02100  0.99140  0.26890  Biso   1.000  C
  H145     1.0000 0.55710  0.49160  0.76290  Biso   1.000  H
  H146     1.0000 0.05710  0.99160  0.76290  Biso   1.000  H
  H147     1.0000 0.44290  0.49160  0.73710  Biso   1.000  H
  H148     1.0000 0.94290  0.99160  0.73710  Biso   1.000  H
  H149     1.0000 0.44290  0.50840  0.23710  Biso   1.000  H
  H150     1.0000 0.94290  0.00840  0.23710  Biso   1.000  H
  H151     1.0000 0.55710  0.50840  0.26290  Biso   1.000  H
  H152     1.0000 0.05710  0.00840  0.26290  Biso   1.000  H
  H153     1.0000 0.51350  0.45190  0.78770  Biso   1.000  H
  H154     1.0000 0.01350  0.95190  0.78770  Biso   1.000  H
  H155     1.0000 0.48650  0.45190  0.71230  Biso   1.000  H
  H156     1.0000 0.98650  0.95190  0.71230  Biso   1.000  H
  H157     1.0000 0.48650  0.54810  0.21230  Biso   1.000  H
  H158     1.0000 0.98650  0.04810  0.21230  Biso   1.000  H
  H159     1.0000 0.51350  0.54810  0.28770  Biso   1.000  H
  H160     1.0000 0.01350  0.04810  0.28770  Biso   1.000  H
  C121     1.0000 0.49350  0.85790  0.66850  Biso   1.000  C
  C122     1.0000 0.99350  0.35790  0.66850  Biso   1.000  C
  C123     1.0000 0.50650  0.85790  0.83150  Biso   1.000  C
  C124     1.0000 0.00650  0.35790  0.83150  Biso   1.000  C
  C125     1.0000 0.50650  0.14210  0.33150  Biso   1.000  C
  C126     1.0000 0.00650  0.64210  0.33150  Biso   1.000  C
  C127     1.0000 0.49350  0.14210  0.16850  Biso   1.000  C
  C128     1.0000 0.99350  0.64210  0.16850  Biso   1.000  C
  H161     1.0000 0.52430  0.81380  0.66760  Biso   1.000  H
  H162     1.0000 0.02430  0.31380  0.66760  Biso   1.000  H
  H163     1.0000 0.47570  0.81380  0.83240  Biso   1.000  H
  H164     1.0000 0.97570  0.31380  0.83240  Biso   1.000  H
  H165     1.0000 0.47570  0.18620  0.33240  Biso   1.000  H
  H166     1.0000 0.97570  0.68620  0.33240  Biso   1.000  H
  H167     1.0000 0.52430  0.18620  0.16760  Biso   1.000  H
  H168     1.0000 0.02430  0.68620  0.16760  Biso   1.000  H
  C129     1.0000 0.47370  0.93380  0.63630  Biso   1.000  C
  C130     1.0000 0.97370  0.43380  0.63630  Biso   1.000  C
  C131     1.0000 0.52630  0.93380  0.86370  Biso   1.000  C
  C132     1.0000 0.02630  0.43380  0.86370  Biso   1.000  C
  C133     1.0000 0.52630  0.06620  0.36370  Biso   1.000  C
  C134     1.0000 0.02630  0.56620  0.36370  Biso   1.000  C
  C135     1.0000 0.47370  0.06620  0.13630  Biso   1.000  C
  C136     1.0000 0.97370  0.56620  0.13630  Biso   1.000  C
  C137     1.0000 0.42530  0.99580  0.63640  Biso   1.000  C
  C138     1.0000 0.92530  0.49580  0.63640  Biso   1.000  C
  C139     1.0000 0.57470  0.99580  0.86360  Biso   1.000  C
  C140     1.0000 0.07470  0.49580  0.86360  Biso   1.000  C
  C141     1.0000 0.57470  0.00420  0.36360  Biso   1.000  C
  C142     1.0000 0.07470  0.50420  0.36360  Biso   1.000  C
  C143     1.0000 0.42530  0.00420  0.13640  Biso   1.000  C
  C144     1.0000 0.92530  0.50420  0.13640  Biso   1.000  C
  H169     1.0000 0.40960  0.04530  0.61360  Biso   1.000  H
  H170     1.0000 0.90960  0.54530  0.61360  Biso   1.000  H
  H171     1.0000 0.59040  0.04530  0.88640  Biso   1.000  H
  H172     1.0000 0.09040  0.54530  0.88640  Biso   1.000  H
  H173     1.0000 0.59040  0.95470  0.38640  Biso   1.000  H
  H174     1.0000 0.09040  0.45470  0.38640  Biso   1.000  H
  H175     1.0000 0.40960  0.95470  0.11360  Biso   1.000  H
  H176     1.0000 0.90960  0.45470  0.11360  Biso   1.000  H
  C145     1.0000 0.40240  0.98300  0.66970  Biso   1.000  C
  C146     1.0000 0.90240  0.48300  0.66970  Biso   1.000  C
  C147     1.0000 0.59760  0.98300  0.83030  Biso   1.000  C
  C148     1.0000 0.09760  0.48300  0.83030  Biso   1.000  C
  C149     1.0000 0.59760  0.01700  0.33030  Biso   1.000  C
  C150     1.0000 0.09760  0.51700  0.33030  Biso   1.000  C
  C151     1.0000 0.40240  0.01700  0.16970  Biso   1.000  C
  C152     1.0000 0.90240  0.51700  0.16970  Biso   1.000  C
  H177     1.0000 0.37160  0.02590  0.67110  Biso   1.000  H
  H178     1.0000 0.87160  0.52590  0.67110  Biso   1.000  H
  H179     1.0000 0.62840  0.02590  0.82890  Biso   1.000  H
  H180     1.0000 0.12840  0.52590  0.82890  Biso   1.000  H
  H181     1.0000 0.62840  0.97410  0.32890  Biso   1.000  H
  H182     1.0000 0.12840  0.47410  0.32890  Biso   1.000  H
  H183     1.0000 0.37160  0.97410  0.17110  Biso   1.000  H
  H184     1.0000 0.87160  0.47410  0.17110  Biso   1.000  H
  C153     1.0000 0.42360  0.90500  0.70200  Biso   1.000  C
  C154     1.0000 0.92360  0.40500  0.70200  Biso   1.000  C
  C155     1.0000 0.57640  0.90500  0.79800  Biso   1.000  C
  C156     1.0000 0.07640  0.40500  0.79800  Biso   1.000  C
  C157     1.0000 0.57640  0.09500  0.29800  Biso   1.000  C
  C158     1.0000 0.07640  0.59500  0.29800  Biso   1.000  C
  C159     1.0000 0.42360  0.09500  0.20200  Biso   1.000  C
  C160     1.0000 0.92360  0.59500  0.20200  Biso   1.000  C
  H185     1.0000 0.40580  0.89500  0.72440  Biso   1.000  H
  H186     1.0000 0.90580  0.39500  0.72440  Biso   1.000  H
  H187     1.0000 0.59420  0.89500  0.77560  Biso   1.000  H
  H188     1.0000 0.09420  0.39500  0.77560  Biso   1.000  H
  H189     1.0000 0.59420  0.10500  0.27560  Biso   1.000  H
  H190     1.0000 0.09420  0.60500  0.27560  Biso   1.000  H
  H191     1.0000 0.40580  0.10500  0.22440  Biso   1.000  H
  H192     1.0000 0.90580  0.60500  0.22440  Biso   1.000  H
  C161     1.0000 0.50160  0.94710  0.59970  Biso   1.000  C
  C162     1.0000 0.00160  0.44710  0.59970  Biso   1.000  C
  C163     1.0000 0.49840  0.94710  0.90030  Biso   1.000  C
  C164     1.0000 0.99840  0.44710  0.90030  Biso   1.000  C
  C165     1.0000 0.49840  0.05290  0.40030  Biso   1.000  C
  C166     1.0000 0.99840  0.55290  0.40030  Biso   1.000  C
  C167     1.0000 0.50160  0.05290  0.09970  Biso   1.000  C
  C168     1.0000 0.00160  0.55290  0.09970  Biso   1.000  C
  N49      1.0000 0.29100  0.72900  0.69880  Biso   1.000  N
  N50      1.0000 0.79100  0.22900  0.69880  Biso   1.000  N
  N51      1.0000 0.70900  0.72900  0.80120  Biso   1.000  N
  N52      1.0000 0.20900  0.22900  0.80120  Biso   1.000  N
  N53      1.0000 0.70900  0.27100  0.30120  Biso   1.000  N
  N54      1.0000 0.20900  0.77100  0.30120  Biso   1.000  N
  N55      1.0000 0.29100  0.27100  0.19880  Biso   1.000  N
  N56      1.0000 0.79100  0.77100  0.19880  Biso   1.000  N
  O89      1.0000 0.28950  0.81400  0.72060  Biso   1.000  O
  O90      1.0000 0.78950  0.31400  0.72060  Biso   1.000  O
  O91      1.0000 0.71050  0.81400  0.77940  Biso   1.000  O
  O92      1.0000 0.21050  0.31400  0.77940  Biso   1.000  O
  O93      1.0000 0.71050  0.18600  0.27940  Biso   1.000  O
  O94      1.0000 0.21050  0.68600  0.27940  Biso   1.000  O
  O95      1.0000 0.28950  0.18600  0.22060  Biso   1.000  O
  O96      1.0000 0.78950  0.68600  0.22060  Biso   1.000  O
  O97      1.0000 0.33220  0.67600  0.71780  Biso   1.000  O
  O98      1.0000 0.83220  0.17600  0.71780  Biso   1.000  O
  O99      1.0000 0.66780  0.67600  0.78220  Biso   1.000  O
  O100     1.0000 0.16780  0.17600  0.78220  Biso   1.000  O
  O101     1.0000 0.66780  0.32400  0.28220  Biso   1.000  O
  O102     1.0000 0.16780  0.82400  0.28220  Biso   1.000  O
  O103     1.0000 0.33220  0.32400  0.21780  Biso   1.000  O
  O104     1.0000 0.83220  0.82400  0.21780  Biso   1.000  O
  O105     1.0000 0.25000  0.71800  0.66330  Biso   1.000  O
  O106     1.0000 0.75000  0.21800  0.66330  Biso   1.000  O
  O107     1.0000 0.75000  0.71800  0.83670  Biso   1.000  O
  O108     1.0000 0.25000  0.21800  0.83670  Biso   1.000  O
  O109     1.0000 0.75000  0.28200  0.33670  Biso   1.000  O
  O110     1.0000 0.25000  0.78200  0.33670  Biso   1.000  O
  O111     1.0000 0.25000  0.28200  0.16330  Biso   1.000  O
  O112     1.0000 0.75000  0.78200  0.16330  Biso   1.000  O
  N57      1.0000 0.42710  0.66960  0.53990  Biso   1.000  N
  N58      1.0000 0.92710  0.16960  0.53990  Biso   1.000  N
  N59      1.0000 0.57290  0.66960  0.96010  Biso   1.000  N
  N60      1.0000 0.07290  0.16960  0.96010  Biso   1.000  N
  N61      1.0000 0.57290  0.33040  0.46010  Biso   1.000  N
  N62      1.0000 0.07290  0.83040  0.46010  Biso   1.000  N
  N63      1.0000 0.42710  0.33040  0.03990  Biso   1.000  N
  N64      1.0000 0.92710  0.83040  0.03990  Biso   1.000  N
  O113     1.0000 0.45360  0.75230  0.54520  Biso   1.000  O
  O114     1.0000 0.95360  0.25230  0.54520  Biso   1.000  O
  O115     1.0000 0.54640  0.75230  0.95480  Biso   1.000  O
  O116     1.0000 0.04640  0.25230  0.95480  Biso   1.000  O
  O117     1.0000 0.54640  0.24770  0.45480  Biso   1.000  O
  O118     1.0000 0.04640  0.74770  0.45480  Biso   1.000  O
  O119     1.0000 0.45360  0.24770  0.04520  Biso   1.000  O
  O120     1.0000 0.95360  0.74770  0.04520  Biso   1.000  O
  O121     1.0000 0.44390  0.59680  0.51840  Biso   1.000  O
  O122     1.0000 0.94390  0.09680  0.51840  Biso   1.000  O
  O123     1.0000 0.55610  0.59680  0.98160  Biso   1.000  O
  O124     1.0000 0.05610  0.09680  0.98160  Biso   1.000  O
  O125     1.0000 0.55610  0.40320  0.48160  Biso   1.000  O
  O126     1.0000 0.05610  0.90320  0.48160  Biso   1.000  O
  O127     1.0000 0.44390  0.40320  0.01840  Biso   1.000  O
  O128     1.0000 0.94390  0.90320  0.01840  Biso   1.000  O
  O129     1.0000 0.38620  0.65790  0.55360  Biso   1.000  O
  O130     1.0000 0.88620  0.15790  0.55360  Biso   1.000  O
  O131     1.0000 0.61380  0.65790  0.94640  Biso   1.000  O
  O132     1.0000 0.11380  0.15790  0.94640  Biso   1.000  O
  O133     1.0000 0.61380  0.34210  0.44640  Biso   1.000  O
  O134     1.0000 0.11380  0.84210  0.44640  Biso   1.000  O
  O135     1.0000 0.38620  0.34210  0.05360  Biso   1.000  O
  O136     1.0000 0.88620  0.84210  0.05360  Biso   1.000  O
  N65      1.0000 0.04190  0.99860  0.13360  Biso   1.000  N
  N66      1.0000 0.54190  0.49860  0.13360  Biso   1.000  N
  N67      1.0000 0.95810  0.99860  0.36640  Biso   1.000  N
  N68      1.0000 0.45810  0.49860  0.36640  Biso   1.000  N
  N69      1.0000 0.95810  0.00140  0.86640  Biso   1.000  N
  N70      1.0000 0.45810  0.50140  0.86640  Biso   1.000  N
  N71      1.0000 0.04190  0.00140  0.63360  Biso   1.000  N
  N72      1.0000 0.54190  0.50140  0.63360  Biso   1.000  N
  O137     1.0000 0.05470  0.91240  0.14810  Biso   1.000  O
  O138     1.0000 0.55470  0.41240  0.14810  Biso   1.000  O
  O139     1.0000 0.94530  0.91240  0.35190  Biso   1.000  O
  O140     1.0000 0.44530  0.41240  0.35190  Biso   1.000  O
  O141     1.0000 0.94530  0.08760  0.85190  Biso   1.000  O
  O142     1.0000 0.44530  0.58760  0.85190  Biso   1.000  O
  O143     1.0000 0.05470  0.08760  0.64810  Biso   1.000  O
  O144     1.0000 0.55470  0.58760  0.64810  Biso   1.000  O
  O145     1.0000 0.99980  0.03900  0.13270  Biso   1.000  O
  O146     1.0000 0.49980  0.53900  0.13270  Biso   1.000  O
  O147     1.0000 0.00020  0.03900  0.36730  Biso   1.000  O
  O148     1.0000 0.50020  0.53900  0.36730  Biso   1.000  O
  O149     1.0000 0.00020  0.96100  0.86730  Biso   1.000  O
  O150     1.0000 0.50020  0.46100  0.86730  Biso   1.000  O
  O151     1.0000 0.99980  0.96100  0.63270  Biso   1.000  O
  O152     1.0000 0.49980  0.46100  0.63270  Biso   1.000  O
  O153     1.0000 0.06910  0.05300  0.11890  Biso   1.000  O
  O154     1.0000 0.56910  0.55300  0.11890  Biso   1.000  O
  O155     1.0000 0.93090  0.05300  0.38110  Biso   1.000  O
  O156     1.0000 0.43090  0.55300  0.38110  Biso   1.000  O
  O157     1.0000 0.93090  0.94700  0.88110  Biso   1.000  O
  O158     1.0000 0.43090  0.44700  0.88110  Biso   1.000  O
  O159     1.0000 0.06910  0.94700  0.61890  Biso   1.000  O
  O160     1.0000 0.56910  0.44700  0.61890  Biso   1.000  O
  N73      1.0000 0.36160  0.72000  0.15220  Biso   1.000  N
  N74      1.0000 0.86160  0.22000  0.15220  Biso   1.000  N
  N75      1.0000 0.63840  0.72000  0.34780  Biso   1.000  N
  N76      1.0000 0.13840  0.22000  0.34780  Biso   1.000  N
  N77      1.0000 0.63840  0.28000  0.84780  Biso   1.000  N
  N78      1.0000 0.13840  0.78000  0.84780  Biso   1.000  N
  N79      1.0000 0.36160  0.28000  0.65220  Biso   1.000  N
  N80      1.0000 0.86160  0.78000  0.65220  Biso   1.000  N
  O161     1.0000 0.35520  0.77370  0.12750  Biso   1.000  O
  O162     1.0000 0.85520  0.27370  0.12750  Biso   1.000  O
  O163     1.0000 0.64480  0.77370  0.37250  Biso   1.000  O
  O164     1.0000 0.14480  0.27370  0.37250  Biso   1.000  O
  O165     1.0000 0.64480  0.22630  0.87250  Biso   1.000  O
  O166     1.0000 0.14480  0.72630  0.87250  Biso   1.000  O
  O167     1.0000 0.35520  0.22630  0.62750  Biso   1.000  O
  O168     1.0000 0.85520  0.72630  0.62750  Biso   1.000  O
  O169     1.0000 0.33040  0.70100  0.17570  Biso   1.000  O
  O170     1.0000 0.83040  0.20100  0.17570  Biso   1.000  O
  O171     1.0000 0.66960  0.70100  0.32430  Biso   1.000  O
  O172     1.0000 0.16960  0.20100  0.32430  Biso   1.000  O
  O173     1.0000 0.66960  0.29900  0.82430  Biso   1.000  O
  O174     1.0000 0.16960  0.79900  0.82430  Biso   1.000  O
  O175     1.0000 0.33040  0.29900  0.67570  Biso   1.000  O
  O176     1.0000 0.83040  0.79900  0.67570  Biso   1.000  O
  O177     1.0000 0.38500  0.64600  0.14720  Biso   1.000  O
  O178     1.0000 0.88500  0.14600  0.14720  Biso   1.000  O
  O179     1.0000 0.61500  0.64600  0.35280  Biso   1.000  O
  O180     1.0000 0.11500  0.14600  0.35280  Biso   1.000  O
  O181     1.0000 0.61500  0.35400  0.85280  Biso   1.000  O
  O182     1.0000 0.11500  0.85400  0.85280  Biso   1.000  O
  O183     1.0000 0.38500  0.35400  0.64720  Biso   1.000  O
  O184     1.0000 0.88500  0.85400  0.64720  Biso   1.000  O
  N81      1.0000 0.09700  0.34400  0.20920  Biso   1.000  N
  N82      1.0000 0.59700  0.84400  0.20920  Biso   1.000  N
  N83      1.0000 0.90300  0.34400  0.29080  Biso   1.000  N
  N84      1.0000 0.40300  0.84400  0.29080  Biso   1.000  N
  N85      1.0000 0.90300  0.65600  0.79080  Biso   1.000  N
  N86      1.0000 0.40300  0.15600  0.79080  Biso   1.000  N
  N87      1.0000 0.09700  0.65600  0.70920  Biso   1.000  N
  N88      1.0000 0.59700  0.15600  0.70920  Biso   1.000  N
  O185     1.0000 0.10600  0.42700  0.22690  Biso   1.000  O
  O186     1.0000 0.60600  0.92700  0.22690  Biso   1.000  O
  O187     1.0000 0.89400  0.42700  0.27310  Biso   1.000  O
  O188     1.0000 0.39400  0.92700  0.27310  Biso   1.000  O
  O189     1.0000 0.89400  0.57300  0.77310  Biso   1.000  O
  O190     1.0000 0.39400  0.07300  0.77310  Biso   1.000  O
  O191     1.0000 0.10600  0.57300  0.72690  Biso   1.000  O
  O192     1.0000 0.60600  0.07300  0.72690  Biso   1.000  O
  O193     1.0000 0.11600  0.32200  0.17390  Biso   1.000  O
  O194     1.0000 0.61600  0.82200  0.17390  Biso   1.000  O
  O195     1.0000 0.88400  0.32200  0.32610  Biso   1.000  O
  O196     1.0000 0.38400  0.82200  0.32610  Biso   1.000  O
  O197     1.0000 0.88400  0.67800  0.82610  Biso   1.000  O
  O198     1.0000 0.38400  0.17800  0.82610  Biso   1.000  O
  O199     1.0000 0.11600  0.67800  0.67390  Biso   1.000  O
  O200     1.0000 0.61600  0.17800  0.67390  Biso   1.000  O
  O201     1.0000 0.05200  0.27600  0.22160  Biso   1.000  O
  O202     1.0000 0.55200  0.77600  0.22160  Biso   1.000  O
  O203     1.0000 0.94800  0.27600  0.27840  Biso   1.000  O
  O204     1.0000 0.44800  0.77600  0.27840  Biso   1.000  O
  O205     1.0000 0.94800  0.72400  0.77840  Biso   1.000  O
  O206     1.0000 0.44800  0.22400  0.77840  Biso   1.000  O
  O207     1.0000 0.05200  0.72400  0.72160  Biso   1.000  O
  O208     1.0000 0.55200  0.22400  0.72160  Biso   1.000  O
  O209     1.0000 0.26680  0.51500  0.14060  Biso   1.000  O
  O210     1.0000 0.76680  0.01500  0.14060  Biso   1.000  O
  O211     1.0000 0.73320  0.51500  0.35940  Biso   1.000  O
  O212     1.0000 0.23320  0.01500  0.35940  Biso   1.000  O
  O213     1.0000 0.73320  0.48500  0.85940  Biso   1.000  O
  O214     1.0000 0.23320  0.98500  0.85940  Biso   1.000  O
  O215     1.0000 0.26680  0.48500  0.64060  Biso   1.000  O
  O216     1.0000 0.76680  0.98500  0.64060  Biso   1.000  O
  O217     1.0000 0.35780  0.10400  0.04730  Biso   1.000  O
  O218     1.0000 0.85780  0.60400  0.04730  Biso   1.000  O
  O219     1.0000 0.64220  0.10400  0.45270  Biso   1.000  O
  O220     1.0000 0.14220  0.60400  0.45270  Biso   1.000  O
  O221     1.0000 0.64220  0.89600  0.95270  Biso   1.000  O
  O222     1.0000 0.14220  0.39600  0.95270  Biso   1.000  O
  O223     1.0000 0.35780  0.89600  0.54730  Biso   1.000  O
  O224     1.0000 0.85780  0.39600  0.54730  Biso   1.000  O
  O225     1.0000 0.14710  0.39200  0.70580  Biso   1.000  O
  O226     1.0000 0.64710  0.89200  0.70580  Biso   1.000  O
  O227     1.0000 0.85290  0.39200  0.79420  Biso   1.000  O
  O228     1.0000 0.35290  0.89200  0.79420  Biso   1.000  O
  O229     1.0000 0.85290  0.60800  0.29420  Biso   1.000  O
  O230     1.0000 0.35290  0.10800  0.29420  Biso   1.000  O
  O231     1.0000 0.14710  0.60800  0.20580  Biso   1.000  O
  O232     1.0000 0.64710  0.10800  0.20580  Biso   1.000  O
