data_image0
_cell_length_a       30.0837
_cell_length_b       30.0837
_cell_length_c       8.667
_cell_angle_alpha    90
_cell_angle_beta     90
_cell_angle_gamma    90

_symmetry_space_group_name_H-M    "P 1"
_symmetry_int_tables_number       1

loop_
  _symmetry_equiv_pos_as_xyz
  'x, y, z'

loop_
  _atom_site_label
  _atom_site_occupancy
  _atom_site_fract_x
  _atom_site_fract_y
  _atom_site_fract_z
  _atom_site_thermal_displace_type
  _atom_site_B_iso_or_equiv
  _atom_site_type_symbol
  Cu1      1.0000 0.89639  0.23489  0.06588  Biso   1.000  Cu
  Cu2      1.0000 0.60361  0.76511  0.56588  Biso   1.000  Cu
  Cu3      1.0000 0.51511  0.14639  0.31588  Biso   1.000  Cu
  Cu4      1.0000 0.98489  0.85361  0.81588  Biso   1.000  Cu
  Cu5      1.0000 0.39639  0.73489  0.56588  Biso   1.000  Cu
  Cu6      1.0000 0.10361  0.26511  0.06588  Biso   1.000  Cu
  Cu7      1.0000 0.01511  0.64639  0.81588  Biso   1.000  Cu
  Cu8      1.0000 0.48489  0.35361  0.31588  Biso   1.000  Cu
  Cu9      1.0000 0.10361  0.76511  0.93412  Biso   1.000  Cu
  Cu10     1.0000 0.39639  0.23489  0.43412  Biso   1.000  Cu
  Cu11     1.0000 0.98489  0.35361  0.18412  Biso   1.000  Cu
  Cu12     1.0000 0.51511  0.64639  0.68412  Biso   1.000  Cu
  Cu13     1.0000 0.60361  0.26511  0.43412  Biso   1.000  Cu
  Cu14     1.0000 0.89639  0.73489  0.93412  Biso   1.000  Cu
  Cu15     1.0000 0.48489  0.85361  0.68412  Biso   1.000  Cu
  Cu16     1.0000 0.01511  0.14639  0.18412  Biso   1.000  Cu
  F1       1.0000 0.74611  0.42776  0.01220  Biso   1.000  F
  F2       1.0000 0.75389  0.57224  0.51220  Biso   1.000  F
  F3       1.0000 0.32224  0.99611  0.26220  Biso   1.000  F
  F4       1.0000 0.17776  0.00389  0.76220  Biso   1.000  F
  F5       1.0000 0.24611  0.92776  0.51220  Biso   1.000  F
  F6       1.0000 0.25389  0.07224  0.01220  Biso   1.000  F
  F7       1.0000 0.82224  0.49611  0.76220  Biso   1.000  F
  F8       1.0000 0.67776  0.50389  0.26220  Biso   1.000  F
  F9       1.0000 0.25389  0.57224  0.98780  Biso   1.000  F
  F10      1.0000 0.24611  0.42776  0.48780  Biso   1.000  F
  F11      1.0000 0.17776  0.50389  0.23780  Biso   1.000  F
  F12      1.0000 0.32224  0.49611  0.73780  Biso   1.000  F
  F13      1.0000 0.75389  0.07224  0.48780  Biso   1.000  F
  F14      1.0000 0.74611  0.92776  0.98780  Biso   1.000  F
  F15      1.0000 0.67776  0.00389  0.73780  Biso   1.000  F
  F16      1.0000 0.82224  0.99611  0.23780  Biso   1.000  F
  F17      1.0000 0.80480  0.38168  0.48140  Biso   1.000  F
  F18      1.0000 0.69520  0.61832  0.98140  Biso   1.000  F
  F19      1.0000 0.36832  0.05480  0.73140  Biso   1.000  F
  F20      1.0000 0.13168  0.94520  0.23140  Biso   1.000  F
  F21      1.0000 0.30480  0.88168  0.98140  Biso   1.000  F
  F22      1.0000 0.19520  0.11832  0.48140  Biso   1.000  F
  F23      1.0000 0.86832  0.55480  0.23140  Biso   1.000  F
  F24      1.0000 0.63168  0.44520  0.73140  Biso   1.000  F
  F25      1.0000 0.19520  0.61832  0.51860  Biso   1.000  F
  F26      1.0000 0.30480  0.38168  0.01860  Biso   1.000  F
  F27      1.0000 0.13168  0.44520  0.76860  Biso   1.000  F
  F28      1.0000 0.36832  0.55480  0.26860  Biso   1.000  F
  F29      1.0000 0.69520  0.11832  0.01860  Biso   1.000  F
  F30      1.0000 0.80480  0.88168  0.51860  Biso   1.000  F
  F31      1.0000 0.63168  0.94520  0.26860  Biso   1.000  F
  F32      1.0000 0.86832  0.05480  0.76860  Biso   1.000  F
  O1       1.0000 0.86410  0.22615  0.25911  Biso   1.000  O
  O2       1.0000 0.63590  0.77385  0.75911  Biso   1.000  O
  O3       1.0000 0.52385  0.11410  0.50911  Biso   1.000  O
  O4       1.0000 0.97615  0.88590  0.00911  Biso   1.000  O
  O5       1.0000 0.36410  0.72615  0.75911  Biso   1.000  O
  O6       1.0000 0.13590  0.27385  0.25911  Biso   1.000  O
  O7       1.0000 0.02385  0.61410  0.00911  Biso   1.000  O
  O8       1.0000 0.47615  0.38590  0.50911  Biso   1.000  O
  O9       1.0000 0.13590  0.77385  0.74089  Biso   1.000  O
  O10      1.0000 0.36410  0.22615  0.24089  Biso   1.000  O
  O11      1.0000 0.97615  0.38590  0.99089  Biso   1.000  O
  O12      1.0000 0.52385  0.61410  0.49089  Biso   1.000  O
  O13      1.0000 0.63590  0.27385  0.24089  Biso   1.000  O
  O14      1.0000 0.86410  0.72615  0.74089  Biso   1.000  O
  O15      1.0000 0.47615  0.88590  0.49089  Biso   1.000  O
  O16      1.0000 0.02385  0.11410  0.99089  Biso   1.000  O
  O17      1.0000 0.85810  0.23021  0.51110  Biso   1.000  O
  O18      1.0000 0.64190  0.76979  0.01110  Biso   1.000  O
  O19      1.0000 0.51979  0.10810  0.76110  Biso   1.000  O
  O20      1.0000 0.98021  0.89190  0.26110  Biso   1.000  O
  O21      1.0000 0.35810  0.73021  0.01110  Biso   1.000  O
  O22      1.0000 0.14190  0.26979  0.51110  Biso   1.000  O
  O23      1.0000 0.01979  0.60810  0.26110  Biso   1.000  O
  O24      1.0000 0.48021  0.39190  0.76110  Biso   1.000  O
  O25      1.0000 0.14190  0.76979  0.48890  Biso   1.000  O
  O26      1.0000 0.35810  0.23021  0.98890  Biso   1.000  O
  O27      1.0000 0.98021  0.39190  0.73890  Biso   1.000  O
  O28      1.0000 0.51979  0.60810  0.23890  Biso   1.000  O
  O29      1.0000 0.64190  0.26979  0.98890  Biso   1.000  O
  O30      1.0000 0.85810  0.73021  0.48890  Biso   1.000  O
  O31      1.0000 0.48021  0.89190  0.23890  Biso   1.000  O
  O32      1.0000 0.01979  0.10810  0.73890  Biso   1.000  O
  O33      1.0000 0.97340  0.30722  0.34992  Biso   1.000  O
  O34      1.0000 0.52660  0.69278  0.84992  Biso   1.000  O
  O35      1.0000 0.44278  0.22340  0.59992  Biso   1.000  O
  O36      1.0000 0.05722  0.77660  0.09992  Biso   1.000  O
  O37      1.0000 0.47340  0.80722  0.84992  Biso   1.000  O
  O38      1.0000 0.02660  0.19278  0.34992  Biso   1.000  O
  O39      1.0000 0.94278  0.72340  0.09992  Biso   1.000  O
  O40      1.0000 0.55722  0.27660  0.59992  Biso   1.000  O
  O41      1.0000 0.02660  0.69278  0.65008  Biso   1.000  O
  O42      1.0000 0.47340  0.30722  0.15008  Biso   1.000  O
  O43      1.0000 0.05722  0.27660  0.90008  Biso   1.000  O
  O44      1.0000 0.44278  0.72340  0.40008  Biso   1.000  O
  O45      1.0000 0.52660  0.19278  0.15008  Biso   1.000  O
  O46      1.0000 0.97340  0.80722  0.65008  Biso   1.000  O
  O47      1.0000 0.55722  0.77660  0.40008  Biso   1.000  O
  O48      1.0000 0.94278  0.22340  0.90008  Biso   1.000  O
  O49      1.0000 0.93356  0.28005  0.16025  Biso   1.000  O
  O50      1.0000 0.56644  0.71995  0.66025  Biso   1.000  O
  O51      1.0000 0.46995  0.18356  0.41025  Biso   1.000  O
  O52      1.0000 0.03005  0.81644  0.91025  Biso   1.000  O
  O53      1.0000 0.43356  0.78005  0.66025  Biso   1.000  O
  O54      1.0000 0.06644  0.21995  0.16025  Biso   1.000  O
  O55      1.0000 0.96995  0.68356  0.91025  Biso   1.000  O
  O56      1.0000 0.53005  0.31644  0.41025  Biso   1.000  O
  O57      1.0000 0.06644  0.71995  0.83975  Biso   1.000  O
  O58      1.0000 0.43356  0.28005  0.33975  Biso   1.000  O
  O59      1.0000 0.03005  0.31644  0.08975  Biso   1.000  O
  O60      1.0000 0.46995  0.68356  0.58975  Biso   1.000  O
  O61      1.0000 0.56644  0.21995  0.33975  Biso   1.000  O
  O62      1.0000 0.93356  0.78005  0.83975  Biso   1.000  O
  O63      1.0000 0.53005  0.81644  0.58975  Biso   1.000  O
  O64      1.0000 0.96995  0.18356  0.08975  Biso   1.000  O
  O65      1.0000 0.72247  0.29286  0.89370  Biso   1.000  O
  O66      1.0000 0.77753  0.70714  0.39370  Biso   1.000  O
  O67      1.0000 0.45714  0.97247  0.14370  Biso   1.000  O
  O68      1.0000 0.04286  0.02753  0.64370  Biso   1.000  O
  O69      1.0000 0.22247  0.79286  0.39370  Biso   1.000  O
  O70      1.0000 0.27753  0.20714  0.89370  Biso   1.000  O
  O71      1.0000 0.95714  0.47247  0.64370  Biso   1.000  O
  O72      1.0000 0.54286  0.52753  0.14370  Biso   1.000  O
  O73      1.0000 0.27753  0.70714  0.10630  Biso   1.000  O
  O74      1.0000 0.22247  0.29286  0.60630  Biso   1.000  O
  O75      1.0000 0.04286  0.52753  0.35630  Biso   1.000  O
  O76      1.0000 0.45714  0.47247  0.85630  Biso   1.000  O
  O77      1.0000 0.77753  0.20714  0.60630  Biso   1.000  O
  O78      1.0000 0.72247  0.79286  0.10630  Biso   1.000  O
  O79      1.0000 0.54286  0.02753  0.85630  Biso   1.000  O
  O80      1.0000 0.95714  0.97247  0.35630  Biso   1.000  O
  H1       1.0000 0.69890  0.28750  0.94400  Biso   1.000  H
  H2       1.0000 0.80110  0.71250  0.44400  Biso   1.000  H
  H3       1.0000 0.46250  0.94890  0.19400  Biso   1.000  H
  H4       1.0000 0.03750  0.05110  0.69400  Biso   1.000  H
  H5       1.0000 0.19890  0.78750  0.44400  Biso   1.000  H
  H6       1.0000 0.30110  0.21250  0.94400  Biso   1.000  H
  H7       1.0000 0.96250  0.44890  0.69400  Biso   1.000  H
  H8       1.0000 0.53750  0.55110  0.19400  Biso   1.000  H
  H9       1.0000 0.30110  0.71250  0.05600  Biso   1.000  H
  H10      1.0000 0.19890  0.28750  0.55600  Biso   1.000  H
  H11      1.0000 0.03750  0.55110  0.30600  Biso   1.000  H
  H12      1.0000 0.46250  0.44890  0.80600  Biso   1.000  H
  H13      1.0000 0.80110  0.21250  0.55600  Biso   1.000  H
  H14      1.0000 0.69890  0.78750  0.05600  Biso   1.000  H
  H15      1.0000 0.53750  0.05110  0.80600  Biso   1.000  H
  H16      1.0000 0.96250  0.94890  0.30600  Biso   1.000  H
  N1       1.0000 0.86127  0.28839  0.93720  Biso   1.000  N
  N2       1.0000 0.63873  0.71161  0.43720  Biso   1.000  N
  N3       1.0000 0.46161  0.11127  0.18720  Biso   1.000  N
  N4       1.0000 0.03839  0.88873  0.68720  Biso   1.000  N
  N5       1.0000 0.36127  0.78839  0.43720  Biso   1.000  N
  N6       1.0000 0.13873  0.21161  0.93720  Biso   1.000  N
  N7       1.0000 0.96161  0.61127  0.68720  Biso   1.000  N
  N8       1.0000 0.53839  0.38873  0.18720  Biso   1.000  N
  N9       1.0000 0.13873  0.71161  0.06280  Biso   1.000  N
  N10      1.0000 0.36127  0.28839  0.56280  Biso   1.000  N
  N11      1.0000 0.03839  0.38873  0.31280  Biso   1.000  N
  N12      1.0000 0.46161  0.61127  0.81280  Biso   1.000  N
  N13      1.0000 0.63873  0.21161  0.56280  Biso   1.000  N
  N14      1.0000 0.86127  0.78839  0.06280  Biso   1.000  N
  N15      1.0000 0.53839  0.88873  0.81280  Biso   1.000  N
  N16      1.0000 0.96161  0.11127  0.31280  Biso   1.000  N
  N17      1.0000 0.84107  0.35962  0.89770  Biso   1.000  N
  N18      1.0000 0.65893  0.64038  0.39770  Biso   1.000  N
  N19      1.0000 0.39038  0.09107  0.14770  Biso   1.000  N
  N20      1.0000 0.10962  0.90893  0.64770  Biso   1.000  N
  N21      1.0000 0.34107  0.85962  0.39770  Biso   1.000  N
  N22      1.0000 0.15893  0.14038  0.89770  Biso   1.000  N
  N23      1.0000 0.89038  0.59107  0.64770  Biso   1.000  N
  N24      1.0000 0.60962  0.40893  0.14770  Biso   1.000  N
  N25      1.0000 0.15893  0.64038  0.10230  Biso   1.000  N
  N26      1.0000 0.34107  0.35962  0.60230  Biso   1.000  N
  N27      1.0000 0.10962  0.40893  0.35230  Biso   1.000  N
  N28      1.0000 0.39038  0.59107  0.85230  Biso   1.000  N
  N29      1.0000 0.65893  0.14038  0.60230  Biso   1.000  N
  N30      1.0000 0.84107  0.85962  0.10230  Biso   1.000  N
  N31      1.0000 0.60962  0.90893  0.85230  Biso   1.000  N
  N32      1.0000 0.89038  0.09107  0.35230  Biso   1.000  N
  N33      1.0000 0.81013  0.33104  0.83940  Biso   1.000  N
  N34      1.0000 0.68987  0.66896  0.33940  Biso   1.000  N
  N35      1.0000 0.41896  0.06013  0.08940  Biso   1.000  N
  N36      1.0000 0.08104  0.93987  0.58940  Biso   1.000  N
  N37      1.0000 0.31013  0.83104  0.33940  Biso   1.000  N
  N38      1.0000 0.18987  0.16896  0.83940  Biso   1.000  N
  N39      1.0000 0.91896  0.56013  0.58940  Biso   1.000  N
  N40      1.0000 0.58104  0.43987  0.08940  Biso   1.000  N
  N41      1.0000 0.18987  0.66896  0.16060  Biso   1.000  N
  N42      1.0000 0.31013  0.33104  0.66060  Biso   1.000  N
  N43      1.0000 0.08104  0.43987  0.41060  Biso   1.000  N
  N44      1.0000 0.41896  0.56013  0.91060  Biso   1.000  N
  N45      1.0000 0.68987  0.16896  0.66060  Biso   1.000  N
  N46      1.0000 0.81013  0.83104  0.16060  Biso   1.000  N
  N47      1.0000 0.58104  0.93987  0.91060  Biso   1.000  N
  N48      1.0000 0.91896  0.06013  0.41060  Biso   1.000  N
  N49      1.0000 0.67150  0.35098  0.70980  Biso   1.000  N
  N50      1.0000 0.82850  0.64902  0.20980  Biso   1.000  N
  N51      1.0000 0.39902  0.92150  0.95980  Biso   1.000  N
  N52      1.0000 0.10098  0.07850  0.45980  Biso   1.000  N
  N53      1.0000 0.17150  0.85098  0.20980  Biso   1.000  N
  N54      1.0000 0.32850  0.14902  0.70980  Biso   1.000  N
  N55      1.0000 0.89902  0.42150  0.45980  Biso   1.000  N
  N56      1.0000 0.60098  0.57850  0.95980  Biso   1.000  N
  N57      1.0000 0.32850  0.64902  0.29020  Biso   1.000  N
  N58      1.0000 0.17150  0.35098  0.79020  Biso   1.000  N
  N59      1.0000 0.10098  0.57850  0.54020  Biso   1.000  N
  N60      1.0000 0.39902  0.42150  0.04020  Biso   1.000  N
  N61      1.0000 0.82850  0.14902  0.79020  Biso   1.000  N
  N62      1.0000 0.67150  0.85098  0.29020  Biso   1.000  N
  N63      1.0000 0.60098  0.07850  0.04020  Biso   1.000  N
  N64      1.0000 0.89902  0.92150  0.54020  Biso   1.000  N
  N65      1.0000 0.68889  0.36716  0.57570  Biso   1.000  N
  N66      1.0000 0.81111  0.63284  0.07570  Biso   1.000  N
  N67      1.0000 0.38284  0.93889  0.82570  Biso   1.000  N
  N68      1.0000 0.11716  0.06111  0.32570  Biso   1.000  N
  N69      1.0000 0.18889  0.86716  0.07570  Biso   1.000  N
  N70      1.0000 0.31111  0.13284  0.57570  Biso   1.000  N
  N71      1.0000 0.88284  0.43889  0.32570  Biso   1.000  N
  N72      1.0000 0.61716  0.56111  0.82570  Biso   1.000  N
  N73      1.0000 0.31111  0.63284  0.42430  Biso   1.000  N
  N74      1.0000 0.18889  0.36716  0.92430  Biso   1.000  N
  N75      1.0000 0.11716  0.56111  0.67430  Biso   1.000  N
  N76      1.0000 0.38284  0.43889  0.17430  Biso   1.000  N
  N77      1.0000 0.81111  0.13284  0.92430  Biso   1.000  N
  N78      1.0000 0.68889  0.86716  0.42430  Biso   1.000  N
  N79      1.0000 0.61716  0.06111  0.17430  Biso   1.000  N
  N80      1.0000 0.88284  0.93889  0.67430  Biso   1.000  N
  N81      1.0000 0.63944  0.31323  0.52920  Biso   1.000  N
  N82      1.0000 0.86056  0.68677  0.02920  Biso   1.000  N
  N83      1.0000 0.43677  0.88944  0.77920  Biso   1.000  N
  N84      1.0000 0.06323  0.11056  0.27920  Biso   1.000  N
  N85      1.0000 0.13944  0.81323  0.02920  Biso   1.000  N
  N86      1.0000 0.36056  0.18677  0.52920  Biso   1.000  N
  N87      1.0000 0.93677  0.38944  0.27920  Biso   1.000  N
  N88      1.0000 0.56323  0.61056  0.77920  Biso   1.000  N
  N89      1.0000 0.36056  0.68677  0.47080  Biso   1.000  N
  N90      1.0000 0.13944  0.31323  0.97080  Biso   1.000  N
  N91      1.0000 0.06323  0.61056  0.72080  Biso   1.000  N
  N92      1.0000 0.43677  0.38944  0.22080  Biso   1.000  N
  N93      1.0000 0.86056  0.18677  0.97080  Biso   1.000  N
  N94      1.0000 0.63944  0.81323  0.47080  Biso   1.000  N
  N95      1.0000 0.56323  0.11056  0.22080  Biso   1.000  N
  N96      1.0000 0.93677  0.88944  0.72080  Biso   1.000  N
  C1       1.0000 0.87069  0.33200  0.95330  Biso   1.000  C
  C2       1.0000 0.62931  0.66800  0.45330  Biso   1.000  C
  C3       1.0000 0.41800  0.12069  0.20330  Biso   1.000  C
  C4       1.0000 0.08200  0.87931  0.70330  Biso   1.000  C
  C5       1.0000 0.37069  0.83200  0.45330  Biso   1.000  C
  C6       1.0000 0.12931  0.16800  0.95330  Biso   1.000  C
  C7       1.0000 0.91800  0.62069  0.70330  Biso   1.000  C
  C8       1.0000 0.58200  0.37931  0.20330  Biso   1.000  C
  C9       1.0000 0.12931  0.66800  0.04670  Biso   1.000  C
  C10      1.0000 0.37069  0.33200  0.54670  Biso   1.000  C
  C11      1.0000 0.08200  0.37931  0.29670  Biso   1.000  C
  C12      1.0000 0.41800  0.62069  0.79670  Biso   1.000  C
  C13      1.0000 0.62931  0.16800  0.54670  Biso   1.000  C
  C14      1.0000 0.87069  0.83200  0.04670  Biso   1.000  C
  C15      1.0000 0.58200  0.87931  0.79670  Biso   1.000  C
  C16      1.0000 0.91800  0.12069  0.29670  Biso   1.000  C
  H17      1.0000 0.89660  0.34180  0.00090  Biso   1.000  H
  H18      1.0000 0.60340  0.65820  0.50090  Biso   1.000  H
  H19      1.0000 0.40820  0.14660  0.25090  Biso   1.000  H
  H20      1.0000 0.09180  0.85340  0.75090  Biso   1.000  H
  H21      1.0000 0.39660  0.84180  0.50090  Biso   1.000  H
  H22      1.0000 0.10340  0.15820  0.00090  Biso   1.000  H
  H23      1.0000 0.90820  0.64660  0.75090  Biso   1.000  H
  H24      1.0000 0.59180  0.35340  0.25090  Biso   1.000  H
  H25      1.0000 0.10340  0.65820  0.99910  Biso   1.000  H
  H26      1.0000 0.39660  0.34180  0.49910  Biso   1.000  H
  H27      1.0000 0.09180  0.35340  0.24910  Biso   1.000  H
  H28      1.0000 0.40820  0.64660  0.74910  Biso   1.000  H
  H29      1.0000 0.60340  0.15820  0.49910  Biso   1.000  H
  H30      1.0000 0.89660  0.84180  0.99910  Biso   1.000  H
  H31      1.0000 0.59180  0.85340  0.74910  Biso   1.000  H
  H32      1.0000 0.90820  0.14660  0.24910  Biso   1.000  H
  C17      1.0000 0.82277  0.28943  0.86390  Biso   1.000  C
  C18      1.0000 0.67723  0.71057  0.36390  Biso   1.000  C
  C19      1.0000 0.46057  0.07277  0.11390  Biso   1.000  C
  C20      1.0000 0.03943  0.92723  0.61390  Biso   1.000  C
  C21      1.0000 0.32277  0.78943  0.36390  Biso   1.000  C
  C22      1.0000 0.17723  0.21057  0.86390  Biso   1.000  C
  C23      1.0000 0.96057  0.57277  0.61390  Biso   1.000  C
  C24      1.0000 0.53943  0.42723  0.11390  Biso   1.000  C
  C25      1.0000 0.17723  0.71057  0.13610  Biso   1.000  C
  C26      1.0000 0.32277  0.28943  0.63610  Biso   1.000  C
  C27      1.0000 0.03943  0.42723  0.38610  Biso   1.000  C
  C28      1.0000 0.46057  0.57277  0.88610  Biso   1.000  C
  C29      1.0000 0.67723  0.21057  0.63610  Biso   1.000  C
  C30      1.0000 0.82277  0.78943  0.13610  Biso   1.000  C
  C31      1.0000 0.53943  0.92723  0.88610  Biso   1.000  C
  C32      1.0000 0.96057  0.07277  0.38610  Biso   1.000  C
  H33      1.0000 0.80680  0.26440  0.83370  Biso   1.000  H
  H34      1.0000 0.69320  0.73560  0.33370  Biso   1.000  H
  H35      1.0000 0.48560  0.05680  0.08370  Biso   1.000  H
  H36      1.0000 0.01440  0.94320  0.58370  Biso   1.000  H
  H37      1.0000 0.30680  0.76440  0.33370  Biso   1.000  H
  H38      1.0000 0.19320  0.23560  0.83370  Biso   1.000  H
  H39      1.0000 0.98560  0.55680  0.58370  Biso   1.000  H
  H40      1.0000 0.51440  0.44320  0.08370  Biso   1.000  H
  H41      1.0000 0.19320  0.73560  0.16630  Biso   1.000  H
  H42      1.0000 0.30680  0.26440  0.66630  Biso   1.000  H
  H43      1.0000 0.01440  0.44320  0.41630  Biso   1.000  H
  H44      1.0000 0.48560  0.55680  0.91630  Biso   1.000  H
  H45      1.0000 0.69320  0.23560  0.66630  Biso   1.000  H
  H46      1.0000 0.80680  0.76440  0.16630  Biso   1.000  H
  H47      1.0000 0.51440  0.94320  0.91630  Biso   1.000  H
  H48      1.0000 0.98560  0.05680  0.41630  Biso   1.000  H
  C33      1.0000 0.76761  0.34787  0.78550  Biso   1.000  C
  C34      1.0000 0.73239  0.65213  0.28550  Biso   1.000  C
  C35      1.0000 0.40213  0.01761  0.03550  Biso   1.000  C
  C36      1.0000 0.09787  0.98239  0.53550  Biso   1.000  C
  C37      1.0000 0.26761  0.84787  0.28550  Biso   1.000  C
  C38      1.0000 0.23239  0.15213  0.78550  Biso   1.000  C
  C39      1.0000 0.90213  0.51761  0.53550  Biso   1.000  C
  C40      1.0000 0.59787  0.48239  0.03550  Biso   1.000  C
  C41      1.0000 0.23239  0.65213  0.21450  Biso   1.000  C
  C42      1.0000 0.26761  0.34787  0.71450  Biso   1.000  C
  C43      1.0000 0.09787  0.48239  0.46450  Biso   1.000  C
  C44      1.0000 0.40213  0.51761  0.96450  Biso   1.000  C
  C45      1.0000 0.73239  0.15213  0.71450  Biso   1.000  C
  C46      1.0000 0.76761  0.84787  0.21450  Biso   1.000  C
  C47      1.0000 0.59787  0.98239  0.96450  Biso   1.000  C
  C48      1.0000 0.90213  0.01761  0.46450  Biso   1.000  C
  H49      1.0000 0.76010  0.33380  0.68820  Biso   1.000  H
  H50      1.0000 0.73990  0.66620  0.18820  Biso   1.000  H
  H51      1.0000 0.41620  0.01010  0.93820  Biso   1.000  H
  H52      1.0000 0.08380  0.98990  0.43820  Biso   1.000  H
  H53      1.0000 0.26010  0.83380  0.18820  Biso   1.000  H
  H54      1.0000 0.23990  0.16620  0.68820  Biso   1.000  H
  H55      1.0000 0.91620  0.51010  0.43820  Biso   1.000  H
  H56      1.0000 0.58380  0.48990  0.93820  Biso   1.000  H
  H57      1.0000 0.23990  0.66620  0.31180  Biso   1.000  H
  H58      1.0000 0.26010  0.33380  0.81180  Biso   1.000  H
  H59      1.0000 0.08380  0.48990  0.56180  Biso   1.000  H
  H60      1.0000 0.41620  0.51010  0.06180  Biso   1.000  H
  H61      1.0000 0.73990  0.16620  0.81180  Biso   1.000  H
  H62      1.0000 0.76010  0.83380  0.31180  Biso   1.000  H
  H63      1.0000 0.58380  0.98990  0.06180  Biso   1.000  H
  H64      1.0000 0.91620  0.01010  0.56180  Biso   1.000  H
  H65      1.0000 0.76990  0.37960  0.76770  Biso   1.000  H
  H66      1.0000 0.73010  0.62040  0.26770  Biso   1.000  H
  H67      1.0000 0.37040  0.01990  0.01770  Biso   1.000  H
  H68      1.0000 0.12960  0.98010  0.51770  Biso   1.000  H
  H69      1.0000 0.26990  0.87960  0.26770  Biso   1.000  H
  H70      1.0000 0.23010  0.12040  0.76770  Biso   1.000  H
  H71      1.0000 0.87040  0.51990  0.51770  Biso   1.000  H
  H72      1.0000 0.62960  0.48010  0.01770  Biso   1.000  H
  H73      1.0000 0.23010  0.62040  0.23230  Biso   1.000  H
  H74      1.0000 0.26990  0.37960  0.73230  Biso   1.000  H
  H75      1.0000 0.12960  0.48010  0.48230  Biso   1.000  H
  H76      1.0000 0.37040  0.51990  0.98230  Biso   1.000  H
  H77      1.0000 0.73010  0.12040  0.73230  Biso   1.000  H
  H78      1.0000 0.76990  0.87960  0.23230  Biso   1.000  H
  H79      1.0000 0.62960  0.98010  0.98230  Biso   1.000  H
  H80      1.0000 0.87040  0.01990  0.48230  Biso   1.000  H
  C49      1.0000 0.73058  0.33881  0.90330  Biso   1.000  C
  C50      1.0000 0.76942  0.66119  0.40330  Biso   1.000  C
  C51      1.0000 0.41119  0.98058  0.15330  Biso   1.000  C
  C52      1.0000 0.08881  0.01942  0.65330  Biso   1.000  C
  C53      1.0000 0.23058  0.83881  0.40330  Biso   1.000  C
  C54      1.0000 0.26942  0.16119  0.90330  Biso   1.000  C
  C55      1.0000 0.91119  0.48058  0.65330  Biso   1.000  C
  C56      1.0000 0.58881  0.51942  0.15330  Biso   1.000  C
  C57      1.0000 0.26942  0.66119  0.09670  Biso   1.000  C
  C58      1.0000 0.23058  0.33881  0.59670  Biso   1.000  C
  C59      1.0000 0.08881  0.51942  0.34670  Biso   1.000  C
  C60      1.0000 0.41119  0.48058  0.84670  Biso   1.000  C
  C61      1.0000 0.76942  0.16119  0.59670  Biso   1.000  C
  C62      1.0000 0.73058  0.83881  0.09670  Biso   1.000  C
  C63      1.0000 0.58881  0.01942  0.84670  Biso   1.000  C
  C64      1.0000 0.91119  0.98058  0.34670  Biso   1.000  C
  C65      1.0000 0.68840  0.36512  0.85870  Biso   1.000  C
  C66      1.0000 0.81160  0.63488  0.35870  Biso   1.000  C
  C67      1.0000 0.38488  0.93840  0.10870  Biso   1.000  C
  C68      1.0000 0.11512  0.06160  0.60870  Biso   1.000  C
  C69      1.0000 0.18840  0.86512  0.35870  Biso   1.000  C
  C70      1.0000 0.31160  0.13488  0.85870  Biso   1.000  C
  C71      1.0000 0.88488  0.43840  0.60870  Biso   1.000  C
  C72      1.0000 0.61512  0.56160  0.10870  Biso   1.000  C
  C73      1.0000 0.31160  0.63488  0.14130  Biso   1.000  C
  C74      1.0000 0.18840  0.36512  0.64130  Biso   1.000  C
  C75      1.0000 0.11512  0.56160  0.39130  Biso   1.000  C
  C76      1.0000 0.38488  0.43840  0.89130  Biso   1.000  C
  C77      1.0000 0.81160  0.13488  0.64130  Biso   1.000  C
  C78      1.0000 0.68840  0.86512  0.14130  Biso   1.000  C
  C79      1.0000 0.61512  0.06160  0.89130  Biso   1.000  C
  C80      1.0000 0.88488  0.93840  0.39130  Biso   1.000  C
  H81      1.0000 0.66570  0.36060  0.93670  Biso   1.000  H
  H82      1.0000 0.83430  0.63940  0.43670  Biso   1.000  H
  H83      1.0000 0.38940  0.91570  0.18670  Biso   1.000  H
  H84      1.0000 0.11060  0.08430  0.68670  Biso   1.000  H
  H85      1.0000 0.16570  0.86060  0.43670  Biso   1.000  H
  H86      1.0000 0.33430  0.13940  0.93670  Biso   1.000  H
  H87      1.0000 0.88940  0.41570  0.68670  Biso   1.000  H
  H88      1.0000 0.61060  0.58430  0.18670  Biso   1.000  H
  H89      1.0000 0.33430  0.63940  0.06330  Biso   1.000  H
  H90      1.0000 0.16570  0.36060  0.56330  Biso   1.000  H
  H91      1.0000 0.11060  0.58430  0.31330  Biso   1.000  H
  H92      1.0000 0.38940  0.41570  0.81330  Biso   1.000  H
  H93      1.0000 0.83430  0.13940  0.56330  Biso   1.000  H
  H94      1.0000 0.66570  0.86060  0.06330  Biso   1.000  H
  H95      1.0000 0.61060  0.08430  0.81330  Biso   1.000  H
  H96      1.0000 0.88940  0.91570  0.31330  Biso   1.000  H
  H97      1.0000 0.69530  0.39660  0.85510  Biso   1.000  H
  H98      1.0000 0.80470  0.60340  0.35510  Biso   1.000  H
  H99      1.0000 0.35340  0.94530  0.10510  Biso   1.000  H
  H100     1.0000 0.14660  0.05470  0.60510  Biso   1.000  H
  H101     1.0000 0.19530  0.89660  0.35510  Biso   1.000  H
  H102     1.0000 0.30470  0.10340  0.85510  Biso   1.000  H
  H103     1.0000 0.85340  0.44530  0.60510  Biso   1.000  H
  H104     1.0000 0.64660  0.55470  0.10510  Biso   1.000  H
  H105     1.0000 0.30470  0.60340  0.14490  Biso   1.000  H
  H106     1.0000 0.19530  0.39660  0.64490  Biso   1.000  H
  H107     1.0000 0.14660  0.55470  0.39490  Biso   1.000  H
  H108     1.0000 0.35340  0.44530  0.89490  Biso   1.000  H
  H109     1.0000 0.80470  0.10340  0.64490  Biso   1.000  H
  H110     1.0000 0.69530  0.89660  0.14490  Biso   1.000  H
  H111     1.0000 0.64660  0.05470  0.89490  Biso   1.000  H
  H112     1.0000 0.85340  0.94530  0.39490  Biso   1.000  H
  C81      1.0000 0.64235  0.31947  0.68010  Biso   1.000  C
  C82      1.0000 0.85765  0.68053  0.18010  Biso   1.000  C
  C83      1.0000 0.43053  0.89235  0.93010  Biso   1.000  C
  C84      1.0000 0.06947  0.10765  0.43010  Biso   1.000  C
  C85      1.0000 0.14235  0.81947  0.18010  Biso   1.000  C
  C86      1.0000 0.35765  0.18053  0.68010  Biso   1.000  C
  C87      1.0000 0.93053  0.39235  0.43010  Biso   1.000  C
  C88      1.0000 0.56947  0.60765  0.93010  Biso   1.000  C
  C89      1.0000 0.35765  0.68053  0.31990  Biso   1.000  C
  C90      1.0000 0.14235  0.31947  0.81990  Biso   1.000  C
  C91      1.0000 0.06947  0.60765  0.56990  Biso   1.000  C
  C92      1.0000 0.43053  0.39235  0.06990  Biso   1.000  C
  C93      1.0000 0.85765  0.18053  0.81990  Biso   1.000  C
  C94      1.0000 0.64235  0.81947  0.31990  Biso   1.000  C
  C95      1.0000 0.56947  0.10765  0.06990  Biso   1.000  C
  C96      1.0000 0.93053  0.89235  0.56990  Biso   1.000  C
  H113     1.0000 0.62620  0.30390  0.75400  Biso   1.000  H
  H114     1.0000 0.87380  0.69610  0.25400  Biso   1.000  H
  H115     1.0000 0.44610  0.87620  0.00400  Biso   1.000  H
  H116     1.0000 0.05390  0.12380  0.50400  Biso   1.000  H
  H117     1.0000 0.12620  0.80390  0.25400  Biso   1.000  H
  H118     1.0000 0.37380  0.19610  0.75400  Biso   1.000  H
  H119     1.0000 0.94610  0.37620  0.50400  Biso   1.000  H
  H120     1.0000 0.55390  0.62380  0.00400  Biso   1.000  H
  H121     1.0000 0.37380  0.69610  0.24600  Biso   1.000  H
  H122     1.0000 0.12620  0.30390  0.74600  Biso   1.000  H
  H123     1.0000 0.05390  0.62380  0.49600  Biso   1.000  H
  H124     1.0000 0.44610  0.37620  0.99600  Biso   1.000  H
  H125     1.0000 0.87380  0.19610  0.74600  Biso   1.000  H
  H126     1.0000 0.62620  0.80390  0.24600  Biso   1.000  H
  H127     1.0000 0.55390  0.12380  0.99600  Biso   1.000  H
  H128     1.0000 0.94610  0.87620  0.49600  Biso   1.000  H
  C97      1.0000 0.66869  0.34326  0.47150  Biso   1.000  C
  C98      1.0000 0.83131  0.65674  0.97150  Biso   1.000  C
  C99      1.0000 0.40674  0.91869  0.72150  Biso   1.000  C
  C100     1.0000 0.09326  0.08131  0.22150  Biso   1.000  C
  C101     1.0000 0.16869  0.84326  0.97150  Biso   1.000  C
  C102     1.0000 0.33131  0.15674  0.47150  Biso   1.000  C
  C103     1.0000 0.90674  0.41869  0.22150  Biso   1.000  C
  C104     1.0000 0.59326  0.58131  0.72150  Biso   1.000  C
  C105     1.0000 0.33131  0.65674  0.52850  Biso   1.000  C
  C106     1.0000 0.16869  0.34326  0.02850  Biso   1.000  C
  C107     1.0000 0.09326  0.58131  0.77850  Biso   1.000  C
  C108     1.0000 0.40674  0.41869  0.27850  Biso   1.000  C
  C109     1.0000 0.83131  0.15674  0.02850  Biso   1.000  C
  C110     1.0000 0.66869  0.84326  0.52850  Biso   1.000  C
  C111     1.0000 0.59326  0.08131  0.27850  Biso   1.000  C
  C112     1.0000 0.90674  0.91869  0.77850  Biso   1.000  C
  H129     1.0000 0.67390  0.34650  0.36630  Biso   1.000  H
  H130     1.0000 0.82610  0.65350  0.86630  Biso   1.000  H
  H131     1.0000 0.40350  0.92390  0.61630  Biso   1.000  H
  H132     1.0000 0.09650  0.07610  0.11630  Biso   1.000  H
  H133     1.0000 0.17390  0.84650  0.86630  Biso   1.000  H
  H134     1.0000 0.32610  0.15350  0.36630  Biso   1.000  H
  H135     1.0000 0.90350  0.42390  0.11630  Biso   1.000  H
  H136     1.0000 0.59650  0.57610  0.61630  Biso   1.000  H
  H137     1.0000 0.32610  0.65350  0.63370  Biso   1.000  H
  H138     1.0000 0.17390  0.34650  0.13370  Biso   1.000  H
  H139     1.0000 0.09650  0.57610  0.88370  Biso   1.000  H
  H140     1.0000 0.40350  0.42390  0.38370  Biso   1.000  H
  H141     1.0000 0.82610  0.15350  0.13370  Biso   1.000  H
  H142     1.0000 0.67390  0.84650  0.63370  Biso   1.000  H
  H143     1.0000 0.59650  0.07610  0.38370  Biso   1.000  H
  H144     1.0000 0.90350  0.92390  0.88370  Biso   1.000  H
  C113     1.0000 0.74666  0.35144  0.06490  Biso   1.000  C
  C114     1.0000 0.75334  0.64856  0.56490  Biso   1.000  C
  C115     1.0000 0.39856  0.99666  0.31490  Biso   1.000  C
  C116     1.0000 0.10144  0.00334  0.81490  Biso   1.000  C
  C117     1.0000 0.24666  0.85144  0.56490  Biso   1.000  C
  C118     1.0000 0.25334  0.14856  0.06490  Biso   1.000  C
  C119     1.0000 0.89856  0.49666  0.81490  Biso   1.000  C
  C120     1.0000 0.60144  0.50334  0.31490  Biso   1.000  C
  C121     1.0000 0.25334  0.64856  0.93510  Biso   1.000  C
  C122     1.0000 0.24666  0.35144  0.43510  Biso   1.000  C
  C123     1.0000 0.10144  0.50334  0.18510  Biso   1.000  C
  C124     1.0000 0.39856  0.49666  0.68510  Biso   1.000  C
  C125     1.0000 0.75334  0.14856  0.43510  Biso   1.000  C
  C126     1.0000 0.74666  0.85144  0.93510  Biso   1.000  C
  C127     1.0000 0.60144  0.00334  0.68510  Biso   1.000  C
  C128     1.0000 0.89856  0.99666  0.18510  Biso   1.000  C
  C129     1.0000 0.75487  0.39375  0.11040  Biso   1.000  C
  C130     1.0000 0.74513  0.60625  0.61040  Biso   1.000  C
  C131     1.0000 0.35625  0.00487  0.36040  Biso   1.000  C
  C132     1.0000 0.14375  0.99513  0.86040  Biso   1.000  C
  C133     1.0000 0.25487  0.89375  0.61040  Biso   1.000  C
  C134     1.0000 0.24513  0.10625  0.11040  Biso   1.000  C
  C135     1.0000 0.85625  0.50487  0.86040  Biso   1.000  C
  C136     1.0000 0.64375  0.49513  0.36040  Biso   1.000  C
  C137     1.0000 0.24513  0.60625  0.88960  Biso   1.000  C
  C138     1.0000 0.25487  0.39375  0.38960  Biso   1.000  C
  C139     1.0000 0.14375  0.49513  0.13960  Biso   1.000  C
  C140     1.0000 0.35625  0.50487  0.63960  Biso   1.000  C
  C141     1.0000 0.74513  0.10625  0.38960  Biso   1.000  C
  C142     1.0000 0.75487  0.89375  0.88960  Biso   1.000  C
  C143     1.0000 0.64375  0.99513  0.63960  Biso   1.000  C
  C144     1.0000 0.85625  0.00487  0.13960  Biso   1.000  C
  C145     1.0000 0.77372  0.40565  0.25120  Biso   1.000  C
  C146     1.0000 0.72628  0.59435  0.75120  Biso   1.000  C
  C147     1.0000 0.34435  0.02372  0.50120  Biso   1.000  C
  C148     1.0000 0.15565  0.97628  0.00120  Biso   1.000  C
  C149     1.0000 0.27372  0.90565  0.75120  Biso   1.000  C
  C150     1.0000 0.22628  0.09435  0.25120  Biso   1.000  C
  C151     1.0000 0.84435  0.52372  0.00120  Biso   1.000  C
  C152     1.0000 0.65565  0.47628  0.50120  Biso   1.000  C
  C153     1.0000 0.22628  0.59435  0.74880  Biso   1.000  C
  C154     1.0000 0.27372  0.40565  0.24880  Biso   1.000  C
  C155     1.0000 0.15565  0.47628  0.99880  Biso   1.000  C
  C156     1.0000 0.34435  0.52372  0.49880  Biso   1.000  C
  C157     1.0000 0.72628  0.09435  0.24880  Biso   1.000  C
  C158     1.0000 0.77372  0.90565  0.74880  Biso   1.000  C
  C159     1.0000 0.65565  0.97628  0.49880  Biso   1.000  C
  C160     1.0000 0.84435  0.02372  0.99880  Biso   1.000  C
  H145     1.0000 0.77830  0.43510  0.27910  Biso   1.000  H
  H146     1.0000 0.72170  0.56490  0.77910  Biso   1.000  H
  H147     1.0000 0.31490  0.02830  0.52910  Biso   1.000  H
  H148     1.0000 0.18510  0.97170  0.02910  Biso   1.000  H
  H149     1.0000 0.27830  0.93510  0.77910  Biso   1.000  H
  H150     1.0000 0.22170  0.06490  0.27910  Biso   1.000  H
  H151     1.0000 0.81490  0.52830  0.02910  Biso   1.000  H
  H152     1.0000 0.68510  0.47170  0.52910  Biso   1.000  H
  H153     1.0000 0.22170  0.56490  0.72090  Biso   1.000  H
  H154     1.0000 0.27830  0.43510  0.22090  Biso   1.000  H
  H155     1.0000 0.18510  0.47170  0.97090  Biso   1.000  H
  H156     1.0000 0.31490  0.52830  0.47090  Biso   1.000  H
  H157     1.0000 0.72170  0.06490  0.22090  Biso   1.000  H
  H158     1.0000 0.77830  0.93510  0.72090  Biso   1.000  H
  H159     1.0000 0.68510  0.97170  0.47090  Biso   1.000  H
  H160     1.0000 0.81490  0.02830  0.97090  Biso   1.000  H
  C161     1.0000 0.78498  0.37140  0.34480  Biso   1.000  C
  C162     1.0000 0.71502  0.62860  0.84480  Biso   1.000  C
  C163     1.0000 0.37860  0.03498  0.59480  Biso   1.000  C
  C164     1.0000 0.12140  0.96502  0.09480  Biso   1.000  C
  C165     1.0000 0.28498  0.87140  0.84480  Biso   1.000  C
  C166     1.0000 0.21502  0.12860  0.34480  Biso   1.000  C
  C167     1.0000 0.87860  0.53498  0.09480  Biso   1.000  C
  C168     1.0000 0.62140  0.46502  0.59480  Biso   1.000  C
  C169     1.0000 0.21502  0.62860  0.65520  Biso   1.000  C
  C170     1.0000 0.28498  0.37140  0.15520  Biso   1.000  C
  C171     1.0000 0.12140  0.46502  0.90520  Biso   1.000  C
  C172     1.0000 0.37860  0.53498  0.40520  Biso   1.000  C
  C173     1.0000 0.71502  0.12860  0.15520  Biso   1.000  C
  C174     1.0000 0.78498  0.87140  0.65520  Biso   1.000  C
  C175     1.0000 0.62140  0.96502  0.40520  Biso   1.000  C
  C176     1.0000 0.87860  0.03498  0.90520  Biso   1.000  C
  C177     1.0000 0.77868  0.32784  0.30940  Biso   1.000  C
  C178     1.0000 0.72132  0.67216  0.80940  Biso   1.000  C
  C179     1.0000 0.42216  0.02868  0.55940  Biso   1.000  C
  C180     1.0000 0.07784  0.97132  0.05940  Biso   1.000  C
  C181     1.0000 0.27868  0.82784  0.80940  Biso   1.000  C
  C182     1.0000 0.22132  0.17216  0.30940  Biso   1.000  C
  C183     1.0000 0.92216  0.52868  0.05940  Biso   1.000  C
  C184     1.0000 0.57784  0.47132  0.55940  Biso   1.000  C
  C185     1.0000 0.22132  0.67216  0.69060  Biso   1.000  C
  C186     1.0000 0.27868  0.32784  0.19060  Biso   1.000  C
  C187     1.0000 0.07784  0.47132  0.94060  Biso   1.000  C
  C188     1.0000 0.42216  0.52868  0.44060  Biso   1.000  C
  C189     1.0000 0.72132  0.17216  0.19060  Biso   1.000  C
  C190     1.0000 0.77868  0.82784  0.69060  Biso   1.000  C
  C191     1.0000 0.57784  0.97132  0.44060  Biso   1.000  C
  C192     1.0000 0.92216  0.02868  0.94060  Biso   1.000  C
  H161     1.0000 0.78730  0.30530  0.37650  Biso   1.000  H
  H162     1.0000 0.71270  0.69470  0.87650  Biso   1.000  H
  H163     1.0000 0.44470  0.03730  0.62650  Biso   1.000  H
  H164     1.0000 0.05530  0.96270  0.12650  Biso   1.000  H
  H165     1.0000 0.28730  0.80530  0.87650  Biso   1.000  H
  H166     1.0000 0.21270  0.19470  0.37650  Biso   1.000  H
  H167     1.0000 0.94470  0.53730  0.12650  Biso   1.000  H
  H168     1.0000 0.55530  0.46270  0.62650  Biso   1.000  H
  H169     1.0000 0.21270  0.69470  0.62350  Biso   1.000  H
  H170     1.0000 0.28730  0.30530  0.12350  Biso   1.000  H
  H171     1.0000 0.05530  0.46270  0.87350  Biso   1.000  H
  H172     1.0000 0.44470  0.53730  0.37350  Biso   1.000  H
  H173     1.0000 0.71270  0.19470  0.12350  Biso   1.000  H
  H174     1.0000 0.78730  0.80530  0.62350  Biso   1.000  H
  H175     1.0000 0.55530  0.96270  0.37350  Biso   1.000  H
  H176     1.0000 0.94470  0.03730  0.87350  Biso   1.000  H
  C193     1.0000 0.75885  0.31856  0.16910  Biso   1.000  C
  C194     1.0000 0.74115  0.68144  0.66910  Biso   1.000  C
  C195     1.0000 0.43144  0.00885  0.41910  Biso   1.000  C
  C196     1.0000 0.06856  0.99115  0.91910  Biso   1.000  C
  C197     1.0000 0.25885  0.81856  0.66910  Biso   1.000  C
  C198     1.0000 0.24115  0.18144  0.16910  Biso   1.000  C
  C199     1.0000 0.93144  0.50885  0.91910  Biso   1.000  C
  C200     1.0000 0.56856  0.49115  0.41910  Biso   1.000  C
  C201     1.0000 0.24115  0.68144  0.83090  Biso   1.000  C
  C202     1.0000 0.25885  0.31856  0.33090  Biso   1.000  C
  C203     1.0000 0.06856  0.49115  0.08090  Biso   1.000  C
  C204     1.0000 0.43144  0.50885  0.58090  Biso   1.000  C
  C205     1.0000 0.74115  0.18144  0.33090  Biso   1.000  C
  C206     1.0000 0.75885  0.81856  0.83090  Biso   1.000  C
  C207     1.0000 0.56856  0.99115  0.58090  Biso   1.000  C
  C208     1.0000 0.93144  0.00885  0.08090  Biso   1.000  C
  H177     1.0000 0.75340  0.28900  0.14340  Biso   1.000  H
  H178     1.0000 0.74660  0.71100  0.64340  Biso   1.000  H
  H179     1.0000 0.46100  0.00340  0.39340  Biso   1.000  H
  H180     1.0000 0.03900  0.99660  0.89340  Biso   1.000  H
  H181     1.0000 0.25340  0.78900  0.64340  Biso   1.000  H
  H182     1.0000 0.24660  0.21100  0.14340  Biso   1.000  H
  H183     1.0000 0.96100  0.50340  0.89340  Biso   1.000  H
  H184     1.0000 0.53900  0.49660  0.39340  Biso   1.000  H
  H185     1.0000 0.24660  0.71100  0.85660  Biso   1.000  H
  H186     1.0000 0.25340  0.28900  0.35660  Biso   1.000  H
  H187     1.0000 0.03900  0.49660  0.10660  Biso   1.000  H
  H188     1.0000 0.46100  0.50340  0.60660  Biso   1.000  H
  H189     1.0000 0.74660  0.21100  0.35660  Biso   1.000  H
  H190     1.0000 0.75340  0.78900  0.85660  Biso   1.000  H
  H191     1.0000 0.53900  0.99660  0.60660  Biso   1.000  H
  H192     1.0000 0.96100  0.00340  0.10660  Biso   1.000  H
  C209     1.0000 0.87998  0.23311  0.39150  Biso   1.000  C
  C210     1.0000 0.62002  0.76689  0.89150  Biso   1.000  C
  C211     1.0000 0.51689  0.12998  0.64150  Biso   1.000  C
  C212     1.0000 0.98311  0.87002  0.14150  Biso   1.000  C
  C213     1.0000 0.37998  0.73311  0.89150  Biso   1.000  C
  C214     1.0000 0.12002  0.26689  0.39150  Biso   1.000  C
  C215     1.0000 0.01689  0.62998  0.14150  Biso   1.000  C
  C216     1.0000 0.48311  0.37002  0.64150  Biso   1.000  C
  C217     1.0000 0.12002  0.76689  0.60850  Biso   1.000  C
  C218     1.0000 0.37998  0.23311  0.10850  Biso   1.000  C
  C219     1.0000 0.98311  0.37002  0.85850  Biso   1.000  C
  C220     1.0000 0.51689  0.62998  0.35850  Biso   1.000  C
  C221     1.0000 0.62002  0.26689  0.10850  Biso   1.000  C
  C222     1.0000 0.87998  0.73311  0.60850  Biso   1.000  C
  C223     1.0000 0.48311  0.87002  0.35850  Biso   1.000  C
  C224     1.0000 0.01689  0.12998  0.85850  Biso   1.000  C
  C225     1.0000 0.92904  0.24441  0.40820  Biso   1.000  C
  C226     1.0000 0.57096  0.75559  0.90820  Biso   1.000  C
  C227     1.0000 0.50559  0.17904  0.65820  Biso   1.000  C
  C228     1.0000 0.99441  0.82096  0.15820  Biso   1.000  C
  C229     1.0000 0.42904  0.74441  0.90820  Biso   1.000  C
  C230     1.0000 0.07096  0.25559  0.40820  Biso   1.000  C
  C231     1.0000 0.00559  0.67904  0.15820  Biso   1.000  C
  C232     1.0000 0.49441  0.32096  0.65820  Biso   1.000  C
  C233     1.0000 0.07096  0.75559  0.59180  Biso   1.000  C
  C234     1.0000 0.42904  0.24441  0.09180  Biso   1.000  C
  C235     1.0000 0.99441  0.32096  0.84180  Biso   1.000  C
  C236     1.0000 0.50559  0.67904  0.34180  Biso   1.000  C
  C237     1.0000 0.57096  0.25559  0.09180  Biso   1.000  C
  C238     1.0000 0.92904  0.74441  0.59180  Biso   1.000  C
  C239     1.0000 0.49441  0.82096  0.34180  Biso   1.000  C
  C240     1.0000 0.00559  0.17904  0.84180  Biso   1.000  C
  H193     1.0000 0.93430  0.25450  0.51300  Biso   1.000  H
  H194     1.0000 0.56570  0.74550  0.01300  Biso   1.000  H
  H195     1.0000 0.49550  0.18430  0.76300  Biso   1.000  H
  H196     1.0000 0.00450  0.81570  0.26300  Biso   1.000  H
  H197     1.0000 0.43430  0.75450  0.01300  Biso   1.000  H
  H198     1.0000 0.06570  0.24550  0.51300  Biso   1.000  H
  H199     1.0000 0.99550  0.68430  0.26300  Biso   1.000  H
  H200     1.0000 0.50450  0.31570  0.76300  Biso   1.000  H
  H201     1.0000 0.06570  0.74550  0.48700  Biso   1.000  H
  H202     1.0000 0.43430  0.25450  0.98700  Biso   1.000  H
  H203     1.0000 0.00450  0.31570  0.73700  Biso   1.000  H
  H204     1.0000 0.49550  0.68430  0.23700  Biso   1.000  H
  H205     1.0000 0.56570  0.24550  0.98700  Biso   1.000  H
  H206     1.0000 0.93430  0.75450  0.48700  Biso   1.000  H
  H207     1.0000 0.50450  0.81570  0.23700  Biso   1.000  H
  H208     1.0000 0.99550  0.18430  0.73700  Biso   1.000  H
  H209     1.0000 0.94620  0.21740  0.39320  Biso   1.000  H
  H210     1.0000 0.55380  0.78260  0.89320  Biso   1.000  H
  H211     1.0000 0.53260  0.19620  0.64320  Biso   1.000  H
  H212     1.0000 0.96740  0.80380  0.14320  Biso   1.000  H
  H213     1.0000 0.44620  0.71740  0.89320  Biso   1.000  H
  H214     1.0000 0.05380  0.28260  0.39320  Biso   1.000  H
  H215     1.0000 0.03260  0.69620  0.14320  Biso   1.000  H
  H216     1.0000 0.46740  0.30380  0.64320  Biso   1.000  H
  H217     1.0000 0.05380  0.78260  0.60680  Biso   1.000  H
  H218     1.0000 0.44620  0.21740  0.10680  Biso   1.000  H
  H219     1.0000 0.96740  0.30380  0.85680  Biso   1.000  H
  H220     1.0000 0.53260  0.69620  0.35680  Biso   1.000  H
  H221     1.0000 0.55380  0.28260  0.10680  Biso   1.000  H
  H222     1.0000 0.94620  0.71740  0.60680  Biso   1.000  H
  H223     1.0000 0.46740  0.80380  0.35680  Biso   1.000  H
  H224     1.0000 0.03260  0.19620  0.85680  Biso   1.000  H
  C241     1.0000 0.94628  0.27927  0.29900  Biso   1.000  C
  C242     1.0000 0.55372  0.72073  0.79900  Biso   1.000  C
  C243     1.0000 0.47073  0.19628  0.54900  Biso   1.000  C
  C244     1.0000 0.02927  0.80372  0.04900  Biso   1.000  C
  C245     1.0000 0.44628  0.77927  0.79900  Biso   1.000  C
  C246     1.0000 0.05372  0.22073  0.29900  Biso   1.000  C
  C247     1.0000 0.97073  0.69628  0.04900  Biso   1.000  C
  C248     1.0000 0.52927  0.30372  0.54900  Biso   1.000  C
  C249     1.0000 0.05372  0.72073  0.70100  Biso   1.000  C
  C250     1.0000 0.44628  0.27927  0.20100  Biso   1.000  C
  C251     1.0000 0.02927  0.30372  0.95100  Biso   1.000  C
  C252     1.0000 0.47073  0.69628  0.45100  Biso   1.000  C
  C253     1.0000 0.55372  0.22073  0.20100  Biso   1.000  C
  C254     1.0000 0.94628  0.77927  0.70100  Biso   1.000  C
  C255     1.0000 0.52927  0.80372  0.45100  Biso   1.000  C
  C256     1.0000 0.97073  0.19628  0.95100  Biso   1.000  C
