data_image0
_cell_length_a       26.4022
_cell_length_b       26.4022
_cell_length_c       26.4022
_cell_angle_alpha    90
_cell_angle_beta     90
_cell_angle_gamma    90

_symmetry_space_group_name_H-M    "P 1"
_symmetry_int_tables_number       1

loop_
  _symmetry_equiv_pos_as_xyz
  'x, y, z'

loop_
  _atom_site_label
  _atom_site_occupancy
  _atom_site_fract_x
  _atom_site_fract_y
  _atom_site_fract_z
  _atom_site_thermal_displace_type
  _atom_site_B_iso_or_equiv
  _atom_site_type_symbol
  P1       1.0000 0.00000  0.00000  0.00000  Biso   1.000  P
  P2       1.0000 0.00000  0.50000  0.50000  Biso   1.000  P
  P3       1.0000 0.50000  0.00000  0.50000  Biso   1.000  P
  P4       1.0000 0.50000  0.50000  0.00000  Biso   1.000  P
  W1       1.0000 0.90471  0.00000  0.09529  Biso   1.000  W
  W2       1.0000 0.09529  0.00000  0.09529  Biso   1.000  W
  W3       1.0000 0.09529  0.00000  0.90471  Biso   1.000  W
  W4       1.0000 0.90471  0.00000  0.90471  Biso   1.000  W
  W5       1.0000 0.09529  0.90471  0.00000  Biso   1.000  W
  W6       1.0000 0.09529  0.09529  0.00000  Biso   1.000  W
  W7       1.0000 0.90471  0.09529  0.00000  Biso   1.000  W
  W8       1.0000 0.90471  0.90471  0.00000  Biso   1.000  W
  W9       1.0000 0.00000  0.09529  0.90471  Biso   1.000  W
  W10      1.0000 0.00000  0.09529  0.09529  Biso   1.000  W
  W11      1.0000 0.00000  0.90471  0.09529  Biso   1.000  W
  W12      1.0000 0.00000  0.90471  0.90471  Biso   1.000  W
  W13      1.0000 0.90471  0.50000  0.59529  Biso   1.000  W
  W14      1.0000 0.09529  0.50000  0.59529  Biso   1.000  W
  W15      1.0000 0.09529  0.50000  0.40471  Biso   1.000  W
  W16      1.0000 0.90471  0.50000  0.40471  Biso   1.000  W
  W17      1.0000 0.09529  0.40471  0.50000  Biso   1.000  W
  W18      1.0000 0.09529  0.59529  0.50000  Biso   1.000  W
  W19      1.0000 0.90471  0.59529  0.50000  Biso   1.000  W
  W20      1.0000 0.90471  0.40471  0.50000  Biso   1.000  W
  W21      1.0000 0.00000  0.59529  0.40471  Biso   1.000  W
  W22      1.0000 0.00000  0.59529  0.59529  Biso   1.000  W
  W23      1.0000 0.00000  0.40471  0.59529  Biso   1.000  W
  W24      1.0000 0.00000  0.40471  0.40471  Biso   1.000  W
  W25      1.0000 0.40471  0.00000  0.59529  Biso   1.000  W
  W26      1.0000 0.59529  0.00000  0.59529  Biso   1.000  W
  W27      1.0000 0.59529  0.00000  0.40471  Biso   1.000  W
  W28      1.0000 0.40471  0.00000  0.40471  Biso   1.000  W
  W29      1.0000 0.59529  0.90471  0.50000  Biso   1.000  W
  W30      1.0000 0.59529  0.09529  0.50000  Biso   1.000  W
  W31      1.0000 0.40471  0.09529  0.50000  Biso   1.000  W
  W32      1.0000 0.40471  0.90471  0.50000  Biso   1.000  W
  W33      1.0000 0.50000  0.09529  0.40471  Biso   1.000  W
  W34      1.0000 0.50000  0.09529  0.59529  Biso   1.000  W
  W35      1.0000 0.50000  0.90471  0.59529  Biso   1.000  W
  W36      1.0000 0.50000  0.90471  0.40471  Biso   1.000  W
  W37      1.0000 0.40471  0.50000  0.09529  Biso   1.000  W
  W38      1.0000 0.59529  0.50000  0.09529  Biso   1.000  W
  W39      1.0000 0.59529  0.50000  0.90471  Biso   1.000  W
  W40      1.0000 0.40471  0.50000  0.90471  Biso   1.000  W
  W41      1.0000 0.59529  0.40471  0.00000  Biso   1.000  W
  W42      1.0000 0.59529  0.59529  0.00000  Biso   1.000  W
  W43      1.0000 0.40471  0.59529  0.00000  Biso   1.000  W
  W44      1.0000 0.40471  0.40471  0.00000  Biso   1.000  W
  W45      1.0000 0.50000  0.59529  0.90471  Biso   1.000  W
  W46      1.0000 0.50000  0.59529  0.09529  Biso   1.000  W
  W47      1.0000 0.50000  0.40471  0.09529  Biso   1.000  W
  W48      1.0000 0.50000  0.40471  0.90471  Biso   1.000  W
  Cu1      1.0000 0.78491  0.00000  0.28491  Biso   1.000  Cu
  Cu2      1.0000 0.21509  0.00000  0.28491  Biso   1.000  Cu
  Cu3      1.0000 0.21509  0.00000  0.71509  Biso   1.000  Cu
  Cu4      1.0000 0.78491  0.00000  0.71509  Biso   1.000  Cu
  Cu5      1.0000 0.28491  0.78491  0.00000  Biso   1.000  Cu
  Cu6      1.0000 0.28491  0.21509  0.00000  Biso   1.000  Cu
  Cu7      1.0000 0.71509  0.21509  0.00000  Biso   1.000  Cu
  Cu8      1.0000 0.71509  0.78491  0.00000  Biso   1.000  Cu
  Cu9      1.0000 0.00000  0.28491  0.78491  Biso   1.000  Cu
  Cu10     1.0000 0.00000  0.28491  0.21509  Biso   1.000  Cu
  Cu11     1.0000 0.00000  0.71509  0.21509  Biso   1.000  Cu
  Cu12     1.0000 0.00000  0.71509  0.78491  Biso   1.000  Cu
  Cu13     1.0000 0.00000  0.78491  0.71509  Biso   1.000  Cu
  Cu14     1.0000 0.00000  0.21509  0.71509  Biso   1.000  Cu
  Cu15     1.0000 0.00000  0.21509  0.28491  Biso   1.000  Cu
  Cu16     1.0000 0.00000  0.78491  0.28491  Biso   1.000  Cu
  Cu17     1.0000 0.78491  0.28491  0.00000  Biso   1.000  Cu
  Cu18     1.0000 0.21509  0.28491  0.00000  Biso   1.000  Cu
  Cu19     1.0000 0.21509  0.71509  0.00000  Biso   1.000  Cu
  Cu20     1.0000 0.78491  0.71509  0.00000  Biso   1.000  Cu
  Cu21     1.0000 0.28491  0.00000  0.21509  Biso   1.000  Cu
  Cu22     1.0000 0.28491  0.00000  0.78491  Biso   1.000  Cu
  Cu23     1.0000 0.71509  0.00000  0.78491  Biso   1.000  Cu
  Cu24     1.0000 0.71509  0.00000  0.21509  Biso   1.000  Cu
  Cu25     1.0000 0.78491  0.50000  0.78491  Biso   1.000  Cu
  Cu26     1.0000 0.21509  0.50000  0.78491  Biso   1.000  Cu
  Cu27     1.0000 0.21509  0.50000  0.21509  Biso   1.000  Cu
  Cu28     1.0000 0.78491  0.50000  0.21509  Biso   1.000  Cu
  Cu29     1.0000 0.28491  0.28491  0.50000  Biso   1.000  Cu
  Cu30     1.0000 0.28491  0.71509  0.50000  Biso   1.000  Cu
  Cu31     1.0000 0.71509  0.71509  0.50000  Biso   1.000  Cu
  Cu32     1.0000 0.71509  0.28491  0.50000  Biso   1.000  Cu
  Cu33     1.0000 0.78491  0.78491  0.50000  Biso   1.000  Cu
  Cu34     1.0000 0.21509  0.78491  0.50000  Biso   1.000  Cu
  Cu35     1.0000 0.21509  0.21509  0.50000  Biso   1.000  Cu
  Cu36     1.0000 0.78491  0.21509  0.50000  Biso   1.000  Cu
  Cu37     1.0000 0.28491  0.50000  0.71509  Biso   1.000  Cu
  Cu38     1.0000 0.28491  0.50000  0.28491  Biso   1.000  Cu
  Cu39     1.0000 0.71509  0.50000  0.28491  Biso   1.000  Cu
  Cu40     1.0000 0.71509  0.50000  0.71509  Biso   1.000  Cu
  Cu41     1.0000 0.50000  0.28491  0.28491  Biso   1.000  Cu
  Cu42     1.0000 0.50000  0.28491  0.71509  Biso   1.000  Cu
  Cu43     1.0000 0.50000  0.71509  0.71509  Biso   1.000  Cu
  Cu44     1.0000 0.50000  0.71509  0.28491  Biso   1.000  Cu
  Cu45     1.0000 0.50000  0.78491  0.21509  Biso   1.000  Cu
  Cu46     1.0000 0.50000  0.21509  0.21509  Biso   1.000  Cu
  Cu47     1.0000 0.50000  0.21509  0.78491  Biso   1.000  Cu
  Cu48     1.0000 0.50000  0.78491  0.78491  Biso   1.000  Cu
  O1       1.0000 0.86000  0.00000  0.14000  Biso   1.000  O
  O2       1.0000 0.14000  0.00000  0.14000  Biso   1.000  O
  O3       1.0000 0.14000  0.00000  0.86000  Biso   1.000  O
  O4       1.0000 0.86000  0.00000  0.86000  Biso   1.000  O
  O5       1.0000 0.14000  0.86000  0.00000  Biso   1.000  O
  O6       1.0000 0.14000  0.14000  0.00000  Biso   1.000  O
  O7       1.0000 0.86000  0.14000  0.00000  Biso   1.000  O
  O8       1.0000 0.86000  0.86000  0.00000  Biso   1.000  O
  O9       1.0000 0.00000  0.14000  0.86000  Biso   1.000  O
  O10      1.0000 0.00000  0.14000  0.14000  Biso   1.000  O
  O11      1.0000 0.00000  0.86000  0.14000  Biso   1.000  O
  O12      1.0000 0.00000  0.86000  0.86000  Biso   1.000  O
  O13      1.0000 0.86000  0.50000  0.64000  Biso   1.000  O
  O14      1.0000 0.14000  0.50000  0.64000  Biso   1.000  O
  O15      1.0000 0.14000  0.50000  0.36000  Biso   1.000  O
  O16      1.0000 0.86000  0.50000  0.36000  Biso   1.000  O
  O17      1.0000 0.14000  0.36000  0.50000  Biso   1.000  O
  O18      1.0000 0.14000  0.64000  0.50000  Biso   1.000  O
  O19      1.0000 0.86000  0.64000  0.50000  Biso   1.000  O
  O20      1.0000 0.86000  0.36000  0.50000  Biso   1.000  O
  O21      1.0000 0.00000  0.64000  0.36000  Biso   1.000  O
  O22      1.0000 0.00000  0.64000  0.64000  Biso   1.000  O
  O23      1.0000 0.00000  0.36000  0.64000  Biso   1.000  O
  O24      1.0000 0.00000  0.36000  0.36000  Biso   1.000  O
  O25      1.0000 0.36000  0.00000  0.64000  Biso   1.000  O
  O26      1.0000 0.64000  0.00000  0.64000  Biso   1.000  O
  O27      1.0000 0.64000  0.00000  0.36000  Biso   1.000  O
  O28      1.0000 0.36000  0.00000  0.36000  Biso   1.000  O
  O29      1.0000 0.64000  0.86000  0.50000  Biso   1.000  O
  O30      1.0000 0.64000  0.14000  0.50000  Biso   1.000  O
  O31      1.0000 0.36000  0.14000  0.50000  Biso   1.000  O
  O32      1.0000 0.36000  0.86000  0.50000  Biso   1.000  O
  O33      1.0000 0.50000  0.14000  0.36000  Biso   1.000  O
  O34      1.0000 0.50000  0.14000  0.64000  Biso   1.000  O
  O35      1.0000 0.50000  0.86000  0.64000  Biso   1.000  O
  O36      1.0000 0.50000  0.86000  0.36000  Biso   1.000  O
  O37      1.0000 0.36000  0.50000  0.14000  Biso   1.000  O
  O38      1.0000 0.64000  0.50000  0.14000  Biso   1.000  O
  O39      1.0000 0.64000  0.50000  0.86000  Biso   1.000  O
  O40      1.0000 0.36000  0.50000  0.86000  Biso   1.000  O
  O41      1.0000 0.64000  0.36000  0.00000  Biso   1.000  O
  O42      1.0000 0.64000  0.64000  0.00000  Biso   1.000  O
  O43      1.0000 0.36000  0.64000  0.00000  Biso   1.000  O
  O44      1.0000 0.36000  0.36000  0.00000  Biso   1.000  O
  O45      1.0000 0.50000  0.64000  0.86000  Biso   1.000  O
  O46      1.0000 0.50000  0.64000  0.14000  Biso   1.000  O
  O47      1.0000 0.50000  0.36000  0.14000  Biso   1.000  O
  O48      1.0000 0.50000  0.36000  0.86000  Biso   1.000  O
  O49      1.0000 0.84300  0.00000  0.34300  Biso   1.000  O
  O50      1.0000 0.15700  0.00000  0.34300  Biso   1.000  O
  O51      1.0000 0.15700  0.00000  0.65700  Biso   1.000  O
  O52      1.0000 0.84300  0.00000  0.65700  Biso   1.000  O
  O53      1.0000 0.34300  0.84300  0.00000  Biso   1.000  O
  O54      1.0000 0.34300  0.15700  0.00000  Biso   1.000  O
  O55      1.0000 0.65700  0.15700  0.00000  Biso   1.000  O
  O56      1.0000 0.65700  0.84300  0.00000  Biso   1.000  O
  O57      1.0000 0.00000  0.34300  0.84300  Biso   1.000  O
  O58      1.0000 0.00000  0.34300  0.15700  Biso   1.000  O
  O59      1.0000 0.00000  0.65700  0.15700  Biso   1.000  O
  O60      1.0000 0.00000  0.65700  0.84300  Biso   1.000  O
  O61      1.0000 0.00000  0.84300  0.65700  Biso   1.000  O
  O62      1.0000 0.00000  0.15700  0.65700  Biso   1.000  O
  O63      1.0000 0.00000  0.15700  0.34300  Biso   1.000  O
  O64      1.0000 0.00000  0.84300  0.34300  Biso   1.000  O
  O65      1.0000 0.84300  0.34300  0.00000  Biso   1.000  O
  O66      1.0000 0.15700  0.34300  0.00000  Biso   1.000  O
  O67      1.0000 0.15700  0.65700  0.00000  Biso   1.000  O
  O68      1.0000 0.84300  0.65700  0.00000  Biso   1.000  O
  O69      1.0000 0.34300  0.00000  0.15700  Biso   1.000  O
  O70      1.0000 0.34300  0.00000  0.84300  Biso   1.000  O
  O71      1.0000 0.65700  0.00000  0.84300  Biso   1.000  O
  O72      1.0000 0.65700  0.00000  0.15700  Biso   1.000  O
  O73      1.0000 0.84300  0.50000  0.84300  Biso   1.000  O
  O74      1.0000 0.15700  0.50000  0.84300  Biso   1.000  O
  O75      1.0000 0.15700  0.50000  0.15700  Biso   1.000  O
  O76      1.0000 0.84300  0.50000  0.15700  Biso   1.000  O
  O77      1.0000 0.34300  0.34300  0.50000  Biso   1.000  O
  O78      1.0000 0.34300  0.65700  0.50000  Biso   1.000  O
  O79      1.0000 0.65700  0.65700  0.50000  Biso   1.000  O
  O80      1.0000 0.65700  0.34300  0.50000  Biso   1.000  O
  O81      1.0000 0.84300  0.84300  0.50000  Biso   1.000  O
  O82      1.0000 0.15700  0.84300  0.50000  Biso   1.000  O
  O83      1.0000 0.15700  0.15700  0.50000  Biso   1.000  O
  O84      1.0000 0.84300  0.15700  0.50000  Biso   1.000  O
  O85      1.0000 0.34300  0.50000  0.65700  Biso   1.000  O
  O86      1.0000 0.34300  0.50000  0.34300  Biso   1.000  O
  O87      1.0000 0.65700  0.50000  0.34300  Biso   1.000  O
  O88      1.0000 0.65700  0.50000  0.65700  Biso   1.000  O
  O89      1.0000 0.50000  0.34300  0.34300  Biso   1.000  O
  O90      1.0000 0.50000  0.34300  0.65700  Biso   1.000  O
  O91      1.0000 0.50000  0.65700  0.65700  Biso   1.000  O
  O92      1.0000 0.50000  0.65700  0.34300  Biso   1.000  O
  O93      1.0000 0.50000  0.84300  0.15700  Biso   1.000  O
  O94      1.0000 0.50000  0.15700  0.15700  Biso   1.000  O
  O95      1.0000 0.50000  0.15700  0.84300  Biso   1.000  O
  O96      1.0000 0.50000  0.84300  0.84300  Biso   1.000  O
  O97      1.0000 0.88060  0.95000  0.05000  Biso   1.000  O
  O98      1.0000 0.11940  0.05000  0.05000  Biso   1.000  O
  O99      1.0000 0.11940  0.95000  0.95000  Biso   1.000  O
  O100     1.0000 0.88060  0.05000  0.95000  Biso   1.000  O
  O101     1.0000 0.05000  0.88060  0.95000  Biso   1.000  O
  O102     1.0000 0.05000  0.11940  0.05000  Biso   1.000  O
  O103     1.0000 0.95000  0.11940  0.95000  Biso   1.000  O
  O104     1.0000 0.95000  0.88060  0.05000  Biso   1.000  O
  O105     1.0000 0.95000  0.05000  0.88060  Biso   1.000  O
  O106     1.0000 0.05000  0.05000  0.11940  Biso   1.000  O
  O107     1.0000 0.95000  0.95000  0.11940  Biso   1.000  O
  O108     1.0000 0.05000  0.95000  0.88060  Biso   1.000  O
  O109     1.0000 0.95000  0.88060  0.95000  Biso   1.000  O
  O110     1.0000 0.05000  0.11940  0.95000  Biso   1.000  O
  O111     1.0000 0.95000  0.11940  0.05000  Biso   1.000  O
  O112     1.0000 0.05000  0.88060  0.05000  Biso   1.000  O
  O113     1.0000 0.88060  0.05000  0.05000  Biso   1.000  O
  O114     1.0000 0.11940  0.05000  0.95000  Biso   1.000  O
  O115     1.0000 0.11940  0.95000  0.05000  Biso   1.000  O
  O116     1.0000 0.88060  0.95000  0.95000  Biso   1.000  O
  O117     1.0000 0.05000  0.95000  0.11940  Biso   1.000  O
  O118     1.0000 0.05000  0.05000  0.88060  Biso   1.000  O
  O119     1.0000 0.95000  0.95000  0.88060  Biso   1.000  O
  O120     1.0000 0.95000  0.05000  0.11940  Biso   1.000  O
  O121     1.0000 0.88060  0.45000  0.55000  Biso   1.000  O
  O122     1.0000 0.11940  0.55000  0.55000  Biso   1.000  O
  O123     1.0000 0.11940  0.45000  0.45000  Biso   1.000  O
  O124     1.0000 0.88060  0.55000  0.45000  Biso   1.000  O
  O125     1.0000 0.05000  0.38060  0.45000  Biso   1.000  O
  O126     1.0000 0.05000  0.61940  0.55000  Biso   1.000  O
  O127     1.0000 0.95000  0.61940  0.45000  Biso   1.000  O
  O128     1.0000 0.95000  0.38060  0.55000  Biso   1.000  O
  O129     1.0000 0.95000  0.55000  0.38060  Biso   1.000  O
  O130     1.0000 0.05000  0.55000  0.61940  Biso   1.000  O
  O131     1.0000 0.95000  0.45000  0.61940  Biso   1.000  O
  O132     1.0000 0.05000  0.45000  0.38060  Biso   1.000  O
  O133     1.0000 0.95000  0.38060  0.45000  Biso   1.000  O
  O134     1.0000 0.05000  0.61940  0.45000  Biso   1.000  O
  O135     1.0000 0.95000  0.61940  0.55000  Biso   1.000  O
  O136     1.0000 0.05000  0.38060  0.55000  Biso   1.000  O
  O137     1.0000 0.88060  0.55000  0.55000  Biso   1.000  O
  O138     1.0000 0.11940  0.55000  0.45000  Biso   1.000  O
  O139     1.0000 0.11940  0.45000  0.55000  Biso   1.000  O
  O140     1.0000 0.88060  0.45000  0.45000  Biso   1.000  O
  O141     1.0000 0.05000  0.45000  0.61940  Biso   1.000  O
  O142     1.0000 0.05000  0.55000  0.38060  Biso   1.000  O
  O143     1.0000 0.95000  0.45000  0.38060  Biso   1.000  O
  O144     1.0000 0.95000  0.55000  0.61940  Biso   1.000  O
  O145     1.0000 0.38060  0.95000  0.55000  Biso   1.000  O
  O146     1.0000 0.61940  0.05000  0.55000  Biso   1.000  O
  O147     1.0000 0.61940  0.95000  0.45000  Biso   1.000  O
  O148     1.0000 0.38060  0.05000  0.45000  Biso   1.000  O
  O149     1.0000 0.55000  0.88060  0.45000  Biso   1.000  O
  O150     1.0000 0.55000  0.11940  0.55000  Biso   1.000  O
  O151     1.0000 0.45000  0.11940  0.45000  Biso   1.000  O
  O152     1.0000 0.45000  0.88060  0.55000  Biso   1.000  O
  O153     1.0000 0.45000  0.05000  0.38060  Biso   1.000  O
  O154     1.0000 0.55000  0.05000  0.61940  Biso   1.000  O
  O155     1.0000 0.45000  0.95000  0.61940  Biso   1.000  O
  O156     1.0000 0.55000  0.95000  0.38060  Biso   1.000  O
  O157     1.0000 0.45000  0.88060  0.45000  Biso   1.000  O
  O158     1.0000 0.55000  0.11940  0.45000  Biso   1.000  O
  O159     1.0000 0.45000  0.11940  0.55000  Biso   1.000  O
  O160     1.0000 0.55000  0.88060  0.55000  Biso   1.000  O
  O161     1.0000 0.38060  0.05000  0.55000  Biso   1.000  O
  O162     1.0000 0.61940  0.05000  0.45000  Biso   1.000  O
  O163     1.0000 0.61940  0.95000  0.55000  Biso   1.000  O
  O164     1.0000 0.38060  0.95000  0.45000  Biso   1.000  O
  O165     1.0000 0.55000  0.95000  0.61940  Biso   1.000  O
  O166     1.0000 0.55000  0.05000  0.38060  Biso   1.000  O
  O167     1.0000 0.45000  0.95000  0.38060  Biso   1.000  O
  O168     1.0000 0.45000  0.05000  0.61940  Biso   1.000  O
  O169     1.0000 0.38060  0.45000  0.05000  Biso   1.000  O
  O170     1.0000 0.61940  0.55000  0.05000  Biso   1.000  O
  O171     1.0000 0.61940  0.45000  0.95000  Biso   1.000  O
  O172     1.0000 0.38060  0.55000  0.95000  Biso   1.000  O
  O173     1.0000 0.55000  0.38060  0.95000  Biso   1.000  O
  O174     1.0000 0.55000  0.61940  0.05000  Biso   1.000  O
  O175     1.0000 0.45000  0.61940  0.95000  Biso   1.000  O
  O176     1.0000 0.45000  0.38060  0.05000  Biso   1.000  O
  O177     1.0000 0.45000  0.55000  0.88060  Biso   1.000  O
  O178     1.0000 0.55000  0.55000  0.11940  Biso   1.000  O
  O179     1.0000 0.45000  0.45000  0.11940  Biso   1.000  O
  O180     1.0000 0.55000  0.45000  0.88060  Biso   1.000  O
  O181     1.0000 0.45000  0.38060  0.95000  Biso   1.000  O
  O182     1.0000 0.55000  0.61940  0.95000  Biso   1.000  O
  O183     1.0000 0.45000  0.61940  0.05000  Biso   1.000  O
  O184     1.0000 0.55000  0.38060  0.05000  Biso   1.000  O
  O185     1.0000 0.38060  0.55000  0.05000  Biso   1.000  O
  O186     1.0000 0.61940  0.55000  0.95000  Biso   1.000  O
  O187     1.0000 0.61940  0.45000  0.05000  Biso   1.000  O
  O188     1.0000 0.38060  0.45000  0.95000  Biso   1.000  O
  O189     1.0000 0.55000  0.45000  0.11940  Biso   1.000  O
  O190     1.0000 0.55000  0.55000  0.88060  Biso   1.000  O
  O191     1.0000 0.45000  0.45000  0.88060  Biso   1.000  O
  O192     1.0000 0.45000  0.55000  0.11940  Biso   1.000  O
  O193     1.0000 0.81666  0.94744  0.24319  Biso   1.000  O
  O194     1.0000 0.18334  0.05256  0.24319  Biso   1.000  O
  O195     1.0000 0.18334  0.94744  0.75681  Biso   1.000  O
  O196     1.0000 0.81666  0.05256  0.75681  Biso   1.000  O
  O197     1.0000 0.24319  0.81666  0.94744  Biso   1.000  O
  O198     1.0000 0.24319  0.18334  0.05256  Biso   1.000  O
  O199     1.0000 0.75681  0.18334  0.94744  Biso   1.000  O
  O200     1.0000 0.75681  0.81666  0.05256  Biso   1.000  O
  O201     1.0000 0.94744  0.24319  0.81666  Biso   1.000  O
  O202     1.0000 0.05256  0.24319  0.18334  Biso   1.000  O
  O203     1.0000 0.94744  0.75681  0.18334  Biso   1.000  O
  O204     1.0000 0.05256  0.75681  0.81666  Biso   1.000  O
  O205     1.0000 0.94744  0.81666  0.75681  Biso   1.000  O
  O206     1.0000 0.05256  0.18334  0.75681  Biso   1.000  O
  O207     1.0000 0.94744  0.18334  0.24319  Biso   1.000  O
  O208     1.0000 0.05256  0.81666  0.24319  Biso   1.000  O
  O209     1.0000 0.81666  0.24319  0.05256  Biso   1.000  O
  O210     1.0000 0.18334  0.24319  0.94744  Biso   1.000  O
  O211     1.0000 0.18334  0.75681  0.05256  Biso   1.000  O
  O212     1.0000 0.81666  0.75681  0.94744  Biso   1.000  O
  O213     1.0000 0.24319  0.94744  0.18334  Biso   1.000  O
  O214     1.0000 0.24319  0.05256  0.81666  Biso   1.000  O
  O215     1.0000 0.75681  0.94744  0.81666  Biso   1.000  O
  O216     1.0000 0.75681  0.05256  0.18334  Biso   1.000  O
  O217     1.0000 0.81666  0.44744  0.74319  Biso   1.000  O
  O218     1.0000 0.18334  0.55256  0.74319  Biso   1.000  O
  O219     1.0000 0.18334  0.44744  0.25681  Biso   1.000  O
  O220     1.0000 0.81666  0.55256  0.25681  Biso   1.000  O
  O221     1.0000 0.24319  0.31666  0.44744  Biso   1.000  O
  O222     1.0000 0.24319  0.68334  0.55256  Biso   1.000  O
  O223     1.0000 0.75681  0.68334  0.44744  Biso   1.000  O
  O224     1.0000 0.75681  0.31666  0.55256  Biso   1.000  O
  O225     1.0000 0.94744  0.74319  0.31666  Biso   1.000  O
  O226     1.0000 0.05256  0.74319  0.68334  Biso   1.000  O
  O227     1.0000 0.94744  0.25681  0.68334  Biso   1.000  O
  O228     1.0000 0.05256  0.25681  0.31666  Biso   1.000  O
  O229     1.0000 0.94744  0.31666  0.25681  Biso   1.000  O
  O230     1.0000 0.05256  0.68334  0.25681  Biso   1.000  O
  O231     1.0000 0.94744  0.68334  0.74319  Biso   1.000  O
  O232     1.0000 0.05256  0.31666  0.74319  Biso   1.000  O
  O233     1.0000 0.81666  0.74319  0.55256  Biso   1.000  O
  O234     1.0000 0.18334  0.74319  0.44744  Biso   1.000  O
  O235     1.0000 0.18334  0.25681  0.55256  Biso   1.000  O
  O236     1.0000 0.81666  0.25681  0.44744  Biso   1.000  O
  O237     1.0000 0.24319  0.44744  0.68334  Biso   1.000  O
  O238     1.0000 0.24319  0.55256  0.31666  Biso   1.000  O
  O239     1.0000 0.75681  0.44744  0.31666  Biso   1.000  O
  O240     1.0000 0.75681  0.55256  0.68334  Biso   1.000  O
  O241     1.0000 0.31666  0.94744  0.74319  Biso   1.000  O
  O242     1.0000 0.68334  0.05256  0.74319  Biso   1.000  O
  O243     1.0000 0.68334  0.94744  0.25681  Biso   1.000  O
  O244     1.0000 0.31666  0.05256  0.25681  Biso   1.000  O
  O245     1.0000 0.74319  0.81666  0.44744  Biso   1.000  O
  O246     1.0000 0.74319  0.18334  0.55256  Biso   1.000  O
  O247     1.0000 0.25681  0.18334  0.44744  Biso   1.000  O
  O248     1.0000 0.25681  0.81666  0.55256  Biso   1.000  O
  O249     1.0000 0.44744  0.24319  0.31666  Biso   1.000  O
  O250     1.0000 0.55256  0.24319  0.68334  Biso   1.000  O
  O251     1.0000 0.44744  0.75681  0.68334  Biso   1.000  O
  O252     1.0000 0.55256  0.75681  0.31666  Biso   1.000  O
  O253     1.0000 0.44744  0.81666  0.25681  Biso   1.000  O
  O254     1.0000 0.55256  0.18334  0.25681  Biso   1.000  O
  O255     1.0000 0.44744  0.18334  0.74319  Biso   1.000  O
  O256     1.0000 0.55256  0.81666  0.74319  Biso   1.000  O
  O257     1.0000 0.31666  0.24319  0.55256  Biso   1.000  O
  O258     1.0000 0.68334  0.24319  0.44744  Biso   1.000  O
  O259     1.0000 0.68334  0.75681  0.55256  Biso   1.000  O
  O260     1.0000 0.31666  0.75681  0.44744  Biso   1.000  O
  O261     1.0000 0.74319  0.94744  0.68334  Biso   1.000  O
  O262     1.0000 0.74319  0.05256  0.31666  Biso   1.000  O
  O263     1.0000 0.25681  0.94744  0.31666  Biso   1.000  O
  O264     1.0000 0.25681  0.05256  0.68334  Biso   1.000  O
  O265     1.0000 0.31666  0.44744  0.24319  Biso   1.000  O
  O266     1.0000 0.68334  0.55256  0.24319  Biso   1.000  O
  O267     1.0000 0.68334  0.44744  0.75681  Biso   1.000  O
  O268     1.0000 0.31666  0.55256  0.75681  Biso   1.000  O
  O269     1.0000 0.74319  0.31666  0.94744  Biso   1.000  O
  O270     1.0000 0.74319  0.68334  0.05256  Biso   1.000  O
  O271     1.0000 0.25681  0.68334  0.94744  Biso   1.000  O
  O272     1.0000 0.25681  0.31666  0.05256  Biso   1.000  O
  O273     1.0000 0.44744  0.74319  0.81666  Biso   1.000  O
  O274     1.0000 0.55256  0.74319  0.18334  Biso   1.000  O
  O275     1.0000 0.44744  0.25681  0.18334  Biso   1.000  O
  O276     1.0000 0.55256  0.25681  0.81666  Biso   1.000  O
  O277     1.0000 0.44744  0.31666  0.75681  Biso   1.000  O
  O278     1.0000 0.55256  0.68334  0.75681  Biso   1.000  O
  O279     1.0000 0.44744  0.68334  0.24319  Biso   1.000  O
  O280     1.0000 0.55256  0.31666  0.24319  Biso   1.000  O
  O281     1.0000 0.31666  0.74319  0.05256  Biso   1.000  O
  O282     1.0000 0.68334  0.74319  0.94744  Biso   1.000  O
  O283     1.0000 0.68334  0.25681  0.05256  Biso   1.000  O
  O284     1.0000 0.31666  0.25681  0.94744  Biso   1.000  O
  O285     1.0000 0.74319  0.44744  0.18334  Biso   1.000  O
  O286     1.0000 0.74319  0.55256  0.81666  Biso   1.000  O
  O287     1.0000 0.25681  0.44744  0.81666  Biso   1.000  O
  O288     1.0000 0.25681  0.55256  0.18334  Biso   1.000  O
  O289     1.0000 0.18334  0.05256  0.75681  Biso   1.000  O
  O290     1.0000 0.81666  0.94744  0.75681  Biso   1.000  O
  O291     1.0000 0.81666  0.05256  0.24319  Biso   1.000  O
  O292     1.0000 0.18334  0.94744  0.24319  Biso   1.000  O
  O293     1.0000 0.75681  0.18334  0.05256  Biso   1.000  O
  O294     1.0000 0.75681  0.81666  0.94744  Biso   1.000  O
  O295     1.0000 0.24319  0.81666  0.05256  Biso   1.000  O
  O296     1.0000 0.24319  0.18334  0.94744  Biso   1.000  O
  O297     1.0000 0.05256  0.75681  0.18334  Biso   1.000  O
  O298     1.0000 0.94744  0.75681  0.81666  Biso   1.000  O
  O299     1.0000 0.05256  0.24319  0.81666  Biso   1.000  O
  O300     1.0000 0.94744  0.24319  0.18334  Biso   1.000  O
  O301     1.0000 0.05256  0.18334  0.24319  Biso   1.000  O
  O302     1.0000 0.94744  0.81666  0.24319  Biso   1.000  O
  O303     1.0000 0.05256  0.81666  0.75681  Biso   1.000  O
  O304     1.0000 0.94744  0.18334  0.75681  Biso   1.000  O
  O305     1.0000 0.18334  0.75681  0.94744  Biso   1.000  O
  O306     1.0000 0.81666  0.75681  0.05256  Biso   1.000  O
  O307     1.0000 0.81666  0.24319  0.94744  Biso   1.000  O
  O308     1.0000 0.18334  0.24319  0.05256  Biso   1.000  O
  O309     1.0000 0.75681  0.05256  0.81666  Biso   1.000  O
  O310     1.0000 0.75681  0.94744  0.18334  Biso   1.000  O
  O311     1.0000 0.24319  0.05256  0.18334  Biso   1.000  O
  O312     1.0000 0.24319  0.94744  0.81666  Biso   1.000  O
  O313     1.0000 0.18334  0.55256  0.25681  Biso   1.000  O
  O314     1.0000 0.81666  0.44744  0.25681  Biso   1.000  O
  O315     1.0000 0.81666  0.55256  0.74319  Biso   1.000  O
  O316     1.0000 0.18334  0.44744  0.74319  Biso   1.000  O
  O317     1.0000 0.75681  0.68334  0.55256  Biso   1.000  O
  O318     1.0000 0.75681  0.31666  0.44744  Biso   1.000  O
  O319     1.0000 0.24319  0.31666  0.55256  Biso   1.000  O
  O320     1.0000 0.24319  0.68334  0.44744  Biso   1.000  O
  O321     1.0000 0.05256  0.25681  0.68334  Biso   1.000  O
  O322     1.0000 0.94744  0.25681  0.31666  Biso   1.000  O
  O323     1.0000 0.05256  0.74319  0.31666  Biso   1.000  O
  O324     1.0000 0.94744  0.74319  0.68334  Biso   1.000  O
  O325     1.0000 0.05256  0.68334  0.74319  Biso   1.000  O
  O326     1.0000 0.94744  0.31666  0.74319  Biso   1.000  O
  O327     1.0000 0.05256  0.31666  0.25681  Biso   1.000  O
  O328     1.0000 0.94744  0.68334  0.25681  Biso   1.000  O
  O329     1.0000 0.18334  0.25681  0.44744  Biso   1.000  O
  O330     1.0000 0.81666  0.25681  0.55256  Biso   1.000  O
  O331     1.0000 0.81666  0.74319  0.44744  Biso   1.000  O
  O332     1.0000 0.18334  0.74319  0.55256  Biso   1.000  O
  O333     1.0000 0.75681  0.55256  0.31666  Biso   1.000  O
  O334     1.0000 0.75681  0.44744  0.68334  Biso   1.000  O
  O335     1.0000 0.24319  0.55256  0.68334  Biso   1.000  O
  O336     1.0000 0.24319  0.44744  0.31666  Biso   1.000  O
  O337     1.0000 0.68334  0.05256  0.25681  Biso   1.000  O
  O338     1.0000 0.31666  0.94744  0.25681  Biso   1.000  O
  O339     1.0000 0.31666  0.05256  0.74319  Biso   1.000  O
  O340     1.0000 0.68334  0.94744  0.74319  Biso   1.000  O
  O341     1.0000 0.25681  0.18334  0.55256  Biso   1.000  O
  O342     1.0000 0.25681  0.81666  0.44744  Biso   1.000  O
  O343     1.0000 0.74319  0.81666  0.55256  Biso   1.000  O
  O344     1.0000 0.74319  0.18334  0.44744  Biso   1.000  O
  O345     1.0000 0.55256  0.75681  0.68334  Biso   1.000  O
  O346     1.0000 0.44744  0.75681  0.31666  Biso   1.000  O
  O347     1.0000 0.55256  0.24319  0.31666  Biso   1.000  O
  O348     1.0000 0.44744  0.24319  0.68334  Biso   1.000  O
  O349     1.0000 0.55256  0.18334  0.74319  Biso   1.000  O
  O350     1.0000 0.44744  0.81666  0.74319  Biso   1.000  O
  O351     1.0000 0.55256  0.81666  0.25681  Biso   1.000  O
  O352     1.0000 0.44744  0.18334  0.25681  Biso   1.000  O
  O353     1.0000 0.68334  0.75681  0.44744  Biso   1.000  O
  O354     1.0000 0.31666  0.75681  0.55256  Biso   1.000  O
  O355     1.0000 0.31666  0.24319  0.44744  Biso   1.000  O
  O356     1.0000 0.68334  0.24319  0.55256  Biso   1.000  O
  O357     1.0000 0.25681  0.05256  0.31666  Biso   1.000  O
  O358     1.0000 0.25681  0.94744  0.68334  Biso   1.000  O
  O359     1.0000 0.74319  0.05256  0.68334  Biso   1.000  O
  O360     1.0000 0.74319  0.94744  0.31666  Biso   1.000  O
  O361     1.0000 0.68334  0.55256  0.75681  Biso   1.000  O
  O362     1.0000 0.31666  0.44744  0.75681  Biso   1.000  O
  O363     1.0000 0.31666  0.55256  0.24319  Biso   1.000  O
  O364     1.0000 0.68334  0.44744  0.24319  Biso   1.000  O
  O365     1.0000 0.25681  0.68334  0.05256  Biso   1.000  O
  O366     1.0000 0.25681  0.31666  0.94744  Biso   1.000  O
  O367     1.0000 0.74319  0.31666  0.05256  Biso   1.000  O
  O368     1.0000 0.74319  0.68334  0.94744  Biso   1.000  O
  O369     1.0000 0.55256  0.25681  0.18334  Biso   1.000  O
  O370     1.0000 0.44744  0.25681  0.81666  Biso   1.000  O
  O371     1.0000 0.55256  0.74319  0.81666  Biso   1.000  O
  O372     1.0000 0.44744  0.74319  0.18334  Biso   1.000  O
  O373     1.0000 0.55256  0.68334  0.24319  Biso   1.000  O
  O374     1.0000 0.44744  0.31666  0.24319  Biso   1.000  O
  O375     1.0000 0.55256  0.31666  0.75681  Biso   1.000  O
  O376     1.0000 0.44744  0.68334  0.75681  Biso   1.000  O
  O377     1.0000 0.68334  0.25681  0.94744  Biso   1.000  O
  O378     1.0000 0.31666  0.25681  0.05256  Biso   1.000  O
  O379     1.0000 0.31666  0.74319  0.94744  Biso   1.000  O
  O380     1.0000 0.68334  0.74319  0.05256  Biso   1.000  O
  O381     1.0000 0.25681  0.55256  0.81666  Biso   1.000  O
  O382     1.0000 0.25681  0.44744  0.18334  Biso   1.000  O
  O383     1.0000 0.74319  0.55256  0.18334  Biso   1.000  O
  O384     1.0000 0.74319  0.44744  0.81666  Biso   1.000  O
  C1       1.0000 0.79723  0.93140  0.20277  Biso   1.000  C
  C2       1.0000 0.20277  0.06860  0.20277  Biso   1.000  C
  C3       1.0000 0.20277  0.93140  0.79723  Biso   1.000  C
  C4       1.0000 0.79723  0.06860  0.79723  Biso   1.000  C
  C5       1.0000 0.20277  0.79723  0.93140  Biso   1.000  C
  C6       1.0000 0.20277  0.20277  0.06860  Biso   1.000  C
  C7       1.0000 0.79723  0.20277  0.93140  Biso   1.000  C
  C8       1.0000 0.79723  0.79723  0.06860  Biso   1.000  C
  C9       1.0000 0.93140  0.20277  0.79723  Biso   1.000  C
  C10      1.0000 0.06860  0.20277  0.20277  Biso   1.000  C
  C11      1.0000 0.93140  0.79723  0.20277  Biso   1.000  C
  C12      1.0000 0.06860  0.79723  0.79723  Biso   1.000  C
  C13      1.0000 0.93140  0.79723  0.79723  Biso   1.000  C
  C14      1.0000 0.06860  0.20277  0.79723  Biso   1.000  C
  C15      1.0000 0.93140  0.20277  0.20277  Biso   1.000  C
  C16      1.0000 0.06860  0.79723  0.20277  Biso   1.000  C
  C17      1.0000 0.79723  0.20277  0.06860  Biso   1.000  C
  C18      1.0000 0.20277  0.20277  0.93140  Biso   1.000  C
  C19      1.0000 0.20277  0.79723  0.06860  Biso   1.000  C
  C20      1.0000 0.79723  0.79723  0.93140  Biso   1.000  C
  C21      1.0000 0.20277  0.93140  0.20277  Biso   1.000  C
  C22      1.0000 0.20277  0.06860  0.79723  Biso   1.000  C
  C23      1.0000 0.79723  0.93140  0.79723  Biso   1.000  C
  C24      1.0000 0.79723  0.06860  0.20277  Biso   1.000  C
  C25      1.0000 0.79723  0.43140  0.70277  Biso   1.000  C
  C26      1.0000 0.20277  0.56860  0.70277  Biso   1.000  C
  C27      1.0000 0.20277  0.43140  0.29723  Biso   1.000  C
  C28      1.0000 0.79723  0.56860  0.29723  Biso   1.000  C
  C29      1.0000 0.20277  0.29723  0.43140  Biso   1.000  C
  C30      1.0000 0.20277  0.70277  0.56860  Biso   1.000  C
  C31      1.0000 0.79723  0.70277  0.43140  Biso   1.000  C
  C32      1.0000 0.79723  0.29723  0.56860  Biso   1.000  C
  C33      1.0000 0.93140  0.70277  0.29723  Biso   1.000  C
  C34      1.0000 0.06860  0.70277  0.70277  Biso   1.000  C
  C35      1.0000 0.93140  0.29723  0.70277  Biso   1.000  C
  C36      1.0000 0.06860  0.29723  0.29723  Biso   1.000  C
  C37      1.0000 0.93140  0.29723  0.29723  Biso   1.000  C
  C38      1.0000 0.06860  0.70277  0.29723  Biso   1.000  C
  C39      1.0000 0.93140  0.70277  0.70277  Biso   1.000  C
  C40      1.0000 0.06860  0.29723  0.70277  Biso   1.000  C
  C41      1.0000 0.79723  0.70277  0.56860  Biso   1.000  C
  C42      1.0000 0.20277  0.70277  0.43140  Biso   1.000  C
  C43      1.0000 0.20277  0.29723  0.56860  Biso   1.000  C
  C44      1.0000 0.79723  0.29723  0.43140  Biso   1.000  C
  C45      1.0000 0.20277  0.43140  0.70277  Biso   1.000  C
  C46      1.0000 0.20277  0.56860  0.29723  Biso   1.000  C
  C47      1.0000 0.79723  0.43140  0.29723  Biso   1.000  C
  C48      1.0000 0.79723  0.56860  0.70277  Biso   1.000  C
  C49      1.0000 0.29723  0.93140  0.70277  Biso   1.000  C
  C50      1.0000 0.70277  0.06860  0.70277  Biso   1.000  C
  C51      1.0000 0.70277  0.93140  0.29723  Biso   1.000  C
  C52      1.0000 0.29723  0.06860  0.29723  Biso   1.000  C
  C53      1.0000 0.70277  0.79723  0.43140  Biso   1.000  C
  C54      1.0000 0.70277  0.20277  0.56860  Biso   1.000  C
  C55      1.0000 0.29723  0.20277  0.43140  Biso   1.000  C
  C56      1.0000 0.29723  0.79723  0.56860  Biso   1.000  C
  C57      1.0000 0.43140  0.20277  0.29723  Biso   1.000  C
  C58      1.0000 0.56860  0.20277  0.70277  Biso   1.000  C
  C59      1.0000 0.43140  0.79723  0.70277  Biso   1.000  C
  C60      1.0000 0.56860  0.79723  0.29723  Biso   1.000  C
  C61      1.0000 0.43140  0.79723  0.29723  Biso   1.000  C
  C62      1.0000 0.56860  0.20277  0.29723  Biso   1.000  C
  C63      1.0000 0.43140  0.20277  0.70277  Biso   1.000  C
  C64      1.0000 0.56860  0.79723  0.70277  Biso   1.000  C
  C65      1.0000 0.29723  0.20277  0.56860  Biso   1.000  C
  C66      1.0000 0.70277  0.20277  0.43140  Biso   1.000  C
  C67      1.0000 0.70277  0.79723  0.56860  Biso   1.000  C
  C68      1.0000 0.29723  0.79723  0.43140  Biso   1.000  C
  C69      1.0000 0.70277  0.93140  0.70277  Biso   1.000  C
  C70      1.0000 0.70277  0.06860  0.29723  Biso   1.000  C
  C71      1.0000 0.29723  0.93140  0.29723  Biso   1.000  C
  C72      1.0000 0.29723  0.06860  0.70277  Biso   1.000  C
  C73      1.0000 0.29723  0.43140  0.20277  Biso   1.000  C
  C74      1.0000 0.70277  0.56860  0.20277  Biso   1.000  C
  C75      1.0000 0.70277  0.43140  0.79723  Biso   1.000  C
  C76      1.0000 0.29723  0.56860  0.79723  Biso   1.000  C
  C77      1.0000 0.70277  0.29723  0.93140  Biso   1.000  C
  C78      1.0000 0.70277  0.70277  0.06860  Biso   1.000  C
  C79      1.0000 0.29723  0.70277  0.93140  Biso   1.000  C
  C80      1.0000 0.29723  0.29723  0.06860  Biso   1.000  C
  C81      1.0000 0.43140  0.70277  0.79723  Biso   1.000  C
  C82      1.0000 0.56860  0.70277  0.20277  Biso   1.000  C
  C83      1.0000 0.43140  0.29723  0.20277  Biso   1.000  C
  C84      1.0000 0.56860  0.29723  0.79723  Biso   1.000  C
  C85      1.0000 0.43140  0.29723  0.79723  Biso   1.000  C
  C86      1.0000 0.56860  0.70277  0.79723  Biso   1.000  C
  C87      1.0000 0.43140  0.70277  0.20277  Biso   1.000  C
  C88      1.0000 0.56860  0.29723  0.20277  Biso   1.000  C
  C89      1.0000 0.29723  0.70277  0.06860  Biso   1.000  C
  C90      1.0000 0.70277  0.70277  0.93140  Biso   1.000  C
  C91      1.0000 0.70277  0.29723  0.06860  Biso   1.000  C
  C92      1.0000 0.29723  0.29723  0.93140  Biso   1.000  C
  C93      1.0000 0.70277  0.43140  0.20277  Biso   1.000  C
  C94      1.0000 0.70277  0.56860  0.79723  Biso   1.000  C
  C95      1.0000 0.29723  0.43140  0.79723  Biso   1.000  C
  C96      1.0000 0.29723  0.56860  0.20277  Biso   1.000  C
  C97      1.0000 0.86595  0.86595  0.19910  Biso   1.000  C
  C98      1.0000 0.13405  0.13405  0.19910  Biso   1.000  C
  C99      1.0000 0.13405  0.86595  0.80090  Biso   1.000  C
  C100     1.0000 0.86595  0.13405  0.80090  Biso   1.000  C
  C101     1.0000 0.19910  0.86595  0.86595  Biso   1.000  C
  C102     1.0000 0.19910  0.13405  0.13405  Biso   1.000  C
  C103     1.0000 0.80090  0.13405  0.86595  Biso   1.000  C
  C104     1.0000 0.80090  0.86595  0.13405  Biso   1.000  C
  C105     1.0000 0.86595  0.19910  0.86595  Biso   1.000  C
  C106     1.0000 0.13405  0.19910  0.13405  Biso   1.000  C
  C107     1.0000 0.86595  0.80090  0.13405  Biso   1.000  C
  C108     1.0000 0.13405  0.80090  0.86595  Biso   1.000  C
  C109     1.0000 0.86595  0.86595  0.80090  Biso   1.000  C
  C110     1.0000 0.13405  0.13405  0.80090  Biso   1.000  C
  C111     1.0000 0.86595  0.13405  0.19910  Biso   1.000  C
  C112     1.0000 0.13405  0.86595  0.19910  Biso   1.000  C
  C113     1.0000 0.86595  0.19910  0.13405  Biso   1.000  C
  C114     1.0000 0.13405  0.19910  0.86595  Biso   1.000  C
  C115     1.0000 0.13405  0.80090  0.13405  Biso   1.000  C
  C116     1.0000 0.86595  0.80090  0.86595  Biso   1.000  C
  C117     1.0000 0.19910  0.86595  0.13405  Biso   1.000  C
  C118     1.0000 0.19910  0.13405  0.86595  Biso   1.000  C
  C119     1.0000 0.80090  0.86595  0.86595  Biso   1.000  C
  C120     1.0000 0.80090  0.13405  0.13405  Biso   1.000  C
  C121     1.0000 0.86595  0.36595  0.69910  Biso   1.000  C
  C122     1.0000 0.13405  0.63405  0.69910  Biso   1.000  C
  C123     1.0000 0.13405  0.36595  0.30090  Biso   1.000  C
  C124     1.0000 0.86595  0.63405  0.30090  Biso   1.000  C
  C125     1.0000 0.19910  0.36595  0.36595  Biso   1.000  C
  C126     1.0000 0.19910  0.63405  0.63405  Biso   1.000  C
  C127     1.0000 0.80090  0.63405  0.36595  Biso   1.000  C
  C128     1.0000 0.80090  0.36595  0.63405  Biso   1.000  C
  C129     1.0000 0.86595  0.69910  0.36595  Biso   1.000  C
  C130     1.0000 0.13405  0.69910  0.63405  Biso   1.000  C
  C131     1.0000 0.86595  0.30090  0.63405  Biso   1.000  C
  C132     1.0000 0.13405  0.30090  0.36595  Biso   1.000  C
  C133     1.0000 0.86595  0.36595  0.30090  Biso   1.000  C
  C134     1.0000 0.13405  0.63405  0.30090  Biso   1.000  C
  C135     1.0000 0.86595  0.63405  0.69910  Biso   1.000  C
  C136     1.0000 0.13405  0.36595  0.69910  Biso   1.000  C
  C137     1.0000 0.86595  0.69910  0.63405  Biso   1.000  C
  C138     1.0000 0.13405  0.69910  0.36595  Biso   1.000  C
  C139     1.0000 0.13405  0.30090  0.63405  Biso   1.000  C
  C140     1.0000 0.86595  0.30090  0.36595  Biso   1.000  C
  C141     1.0000 0.19910  0.36595  0.63405  Biso   1.000  C
  C142     1.0000 0.19910  0.63405  0.36595  Biso   1.000  C
  C143     1.0000 0.80090  0.36595  0.36595  Biso   1.000  C
  C144     1.0000 0.80090  0.63405  0.63405  Biso   1.000  C
  C145     1.0000 0.36595  0.86595  0.69910  Biso   1.000  C
  C146     1.0000 0.63405  0.13405  0.69910  Biso   1.000  C
  C147     1.0000 0.63405  0.86595  0.30090  Biso   1.000  C
  C148     1.0000 0.36595  0.13405  0.30090  Biso   1.000  C
  C149     1.0000 0.69910  0.86595  0.36595  Biso   1.000  C
  C150     1.0000 0.69910  0.13405  0.63405  Biso   1.000  C
  C151     1.0000 0.30090  0.13405  0.36595  Biso   1.000  C
  C152     1.0000 0.30090  0.86595  0.63405  Biso   1.000  C
  C153     1.0000 0.36595  0.19910  0.36595  Biso   1.000  C
  C154     1.0000 0.63405  0.19910  0.63405  Biso   1.000  C
  C155     1.0000 0.36595  0.80090  0.63405  Biso   1.000  C
  C156     1.0000 0.63405  0.80090  0.36595  Biso   1.000  C
  C157     1.0000 0.36595  0.86595  0.30090  Biso   1.000  C
  C158     1.0000 0.63405  0.13405  0.30090  Biso   1.000  C
  C159     1.0000 0.36595  0.13405  0.69910  Biso   1.000  C
  C160     1.0000 0.63405  0.86595  0.69910  Biso   1.000  C
  C161     1.0000 0.36595  0.19910  0.63405  Biso   1.000  C
  C162     1.0000 0.63405  0.19910  0.36595  Biso   1.000  C
  C163     1.0000 0.63405  0.80090  0.63405  Biso   1.000  C
  C164     1.0000 0.36595  0.80090  0.36595  Biso   1.000  C
  C165     1.0000 0.69910  0.86595  0.63405  Biso   1.000  C
  C166     1.0000 0.69910  0.13405  0.36595  Biso   1.000  C
  C167     1.0000 0.30090  0.86595  0.36595  Biso   1.000  C
  C168     1.0000 0.30090  0.13405  0.63405  Biso   1.000  C
  C169     1.0000 0.36595  0.36595  0.19910  Biso   1.000  C
  C170     1.0000 0.63405  0.63405  0.19910  Biso   1.000  C
  C171     1.0000 0.63405  0.36595  0.80090  Biso   1.000  C
  C172     1.0000 0.36595  0.63405  0.80090  Biso   1.000  C
  C173     1.0000 0.69910  0.36595  0.86595  Biso   1.000  C
  C174     1.0000 0.69910  0.63405  0.13405  Biso   1.000  C
  C175     1.0000 0.30090  0.63405  0.86595  Biso   1.000  C
  C176     1.0000 0.30090  0.36595  0.13405  Biso   1.000  C
  C177     1.0000 0.36595  0.69910  0.86595  Biso   1.000  C
  C178     1.0000 0.63405  0.69910  0.13405  Biso   1.000  C
  C179     1.0000 0.36595  0.30090  0.13405  Biso   1.000  C
  C180     1.0000 0.63405  0.30090  0.86595  Biso   1.000  C
  C181     1.0000 0.36595  0.36595  0.80090  Biso   1.000  C
  C182     1.0000 0.63405  0.63405  0.80090  Biso   1.000  C
  C183     1.0000 0.36595  0.63405  0.19910  Biso   1.000  C
  C184     1.0000 0.63405  0.36595  0.19910  Biso   1.000  C
  C185     1.0000 0.36595  0.69910  0.13405  Biso   1.000  C
  C186     1.0000 0.63405  0.69910  0.86595  Biso   1.000  C
  C187     1.0000 0.63405  0.30090  0.13405  Biso   1.000  C
  C188     1.0000 0.36595  0.30090  0.86595  Biso   1.000  C
  C189     1.0000 0.69910  0.36595  0.13405  Biso   1.000  C
  C190     1.0000 0.69910  0.63405  0.86595  Biso   1.000  C
  C191     1.0000 0.30090  0.36595  0.86595  Biso   1.000  C
  C192     1.0000 0.30090  0.63405  0.13405  Biso   1.000  C
  H1       1.0000 0.88030  0.88030  0.22790  Biso   1.000  H
  H2       1.0000 0.11970  0.11970  0.22790  Biso   1.000  H
  H3       1.0000 0.11970  0.88030  0.77210  Biso   1.000  H
  H4       1.0000 0.88030  0.11970  0.77210  Biso   1.000  H
  H5       1.0000 0.22790  0.88030  0.88030  Biso   1.000  H
  H6       1.0000 0.22790  0.11970  0.11970  Biso   1.000  H
  H7       1.0000 0.77210  0.11970  0.88030  Biso   1.000  H
  H8       1.0000 0.77210  0.88030  0.11970  Biso   1.000  H
  H9       1.0000 0.88030  0.22790  0.88030  Biso   1.000  H
  H10      1.0000 0.11970  0.22790  0.11970  Biso   1.000  H
  H11      1.0000 0.88030  0.77210  0.11970  Biso   1.000  H
  H12      1.0000 0.11970  0.77210  0.88030  Biso   1.000  H
  H13      1.0000 0.88030  0.88030  0.77210  Biso   1.000  H
  H14      1.0000 0.11970  0.11970  0.77210  Biso   1.000  H
  H15      1.0000 0.88030  0.11970  0.22790  Biso   1.000  H
  H16      1.0000 0.11970  0.88030  0.22790  Biso   1.000  H
  H17      1.0000 0.88030  0.22790  0.11970  Biso   1.000  H
  H18      1.0000 0.11970  0.22790  0.88030  Biso   1.000  H
  H19      1.0000 0.11970  0.77210  0.11970  Biso   1.000  H
  H20      1.0000 0.88030  0.77210  0.88030  Biso   1.000  H
  H21      1.0000 0.22790  0.88030  0.11970  Biso   1.000  H
  H22      1.0000 0.22790  0.11970  0.88030  Biso   1.000  H
  H23      1.0000 0.77210  0.88030  0.88030  Biso   1.000  H
  H24      1.0000 0.77210  0.11970  0.11970  Biso   1.000  H
  H25      1.0000 0.88030  0.38030  0.72790  Biso   1.000  H
  H26      1.0000 0.11970  0.61970  0.72790  Biso   1.000  H
  H27      1.0000 0.11970  0.38030  0.27210  Biso   1.000  H
  H28      1.0000 0.88030  0.61970  0.27210  Biso   1.000  H
  H29      1.0000 0.22790  0.38030  0.38030  Biso   1.000  H
  H30      1.0000 0.22790  0.61970  0.61970  Biso   1.000  H
  H31      1.0000 0.77210  0.61970  0.38030  Biso   1.000  H
  H32      1.0000 0.77210  0.38030  0.61970  Biso   1.000  H
  H33      1.0000 0.88030  0.72790  0.38030  Biso   1.000  H
  H34      1.0000 0.11970  0.72790  0.61970  Biso   1.000  H
  H35      1.0000 0.88030  0.27210  0.61970  Biso   1.000  H
  H36      1.0000 0.11970  0.27210  0.38030  Biso   1.000  H
  H37      1.0000 0.88030  0.38030  0.27210  Biso   1.000  H
  H38      1.0000 0.11970  0.61970  0.27210  Biso   1.000  H
  H39      1.0000 0.88030  0.61970  0.72790  Biso   1.000  H
  H40      1.0000 0.11970  0.38030  0.72790  Biso   1.000  H
  H41      1.0000 0.88030  0.72790  0.61970  Biso   1.000  H
  H42      1.0000 0.11970  0.72790  0.38030  Biso   1.000  H
  H43      1.0000 0.11970  0.27210  0.61970  Biso   1.000  H
  H44      1.0000 0.88030  0.27210  0.38030  Biso   1.000  H
  H45      1.0000 0.22790  0.38030  0.61970  Biso   1.000  H
  H46      1.0000 0.22790  0.61970  0.38030  Biso   1.000  H
  H47      1.0000 0.77210  0.38030  0.38030  Biso   1.000  H
  H48      1.0000 0.77210  0.61970  0.61970  Biso   1.000  H
  H49      1.0000 0.38030  0.88030  0.72790  Biso   1.000  H
  H50      1.0000 0.61970  0.11970  0.72790  Biso   1.000  H
  H51      1.0000 0.61970  0.88030  0.27210  Biso   1.000  H
  H52      1.0000 0.38030  0.11970  0.27210  Biso   1.000  H
  H53      1.0000 0.72790  0.88030  0.38030  Biso   1.000  H
  H54      1.0000 0.72790  0.11970  0.61970  Biso   1.000  H
  H55      1.0000 0.27210  0.11970  0.38030  Biso   1.000  H
  H56      1.0000 0.27210  0.88030  0.61970  Biso   1.000  H
  H57      1.0000 0.38030  0.22790  0.38030  Biso   1.000  H
  H58      1.0000 0.61970  0.22790  0.61970  Biso   1.000  H
  H59      1.0000 0.38030  0.77210  0.61970  Biso   1.000  H
  H60      1.0000 0.61970  0.77210  0.38030  Biso   1.000  H
  H61      1.0000 0.38030  0.88030  0.27210  Biso   1.000  H
  H62      1.0000 0.61970  0.11970  0.27210  Biso   1.000  H
  H63      1.0000 0.38030  0.11970  0.72790  Biso   1.000  H
  H64      1.0000 0.61970  0.88030  0.72790  Biso   1.000  H
  H65      1.0000 0.38030  0.22790  0.61970  Biso   1.000  H
  H66      1.0000 0.61970  0.22790  0.38030  Biso   1.000  H
  H67      1.0000 0.61970  0.77210  0.61970  Biso   1.000  H
  H68      1.0000 0.38030  0.77210  0.38030  Biso   1.000  H
  H69      1.0000 0.72790  0.88030  0.61970  Biso   1.000  H
  H70      1.0000 0.72790  0.11970  0.38030  Biso   1.000  H
  H71      1.0000 0.27210  0.88030  0.38030  Biso   1.000  H
  H72      1.0000 0.27210  0.11970  0.61970  Biso   1.000  H
  H73      1.0000 0.38030  0.38030  0.22790  Biso   1.000  H
  H74      1.0000 0.61970  0.61970  0.22790  Biso   1.000  H
  H75      1.0000 0.61970  0.38030  0.77210  Biso   1.000  H
  H76      1.0000 0.38030  0.61970  0.77210  Biso   1.000  H
  H77      1.0000 0.72790  0.38030  0.88030  Biso   1.000  H
  H78      1.0000 0.72790  0.61970  0.11970  Biso   1.000  H
  H79      1.0000 0.27210  0.61970  0.88030  Biso   1.000  H
  H80      1.0000 0.27210  0.38030  0.11970  Biso   1.000  H
  H81      1.0000 0.38030  0.72790  0.88030  Biso   1.000  H
  H82      1.0000 0.61970  0.72790  0.11970  Biso   1.000  H
  H83      1.0000 0.38030  0.27210  0.11970  Biso   1.000  H
  H84      1.0000 0.61970  0.27210  0.88030  Biso   1.000  H
  H85      1.0000 0.38030  0.38030  0.77210  Biso   1.000  H
  H86      1.0000 0.61970  0.61970  0.77210  Biso   1.000  H
  H87      1.0000 0.38030  0.61970  0.22790  Biso   1.000  H
  H88      1.0000 0.61970  0.38030  0.22790  Biso   1.000  H
  H89      1.0000 0.38030  0.72790  0.11970  Biso   1.000  H
  H90      1.0000 0.61970  0.72790  0.88030  Biso   1.000  H
  H91      1.0000 0.61970  0.27210  0.11970  Biso   1.000  H
  H92      1.0000 0.38030  0.27210  0.88030  Biso   1.000  H
  H93      1.0000 0.72790  0.38030  0.11970  Biso   1.000  H
  H94      1.0000 0.72790  0.61970  0.88030  Biso   1.000  H
  H95      1.0000 0.27210  0.38030  0.88030  Biso   1.000  H
  H96      1.0000 0.27210  0.61970  0.11970  Biso   1.000  H
  C193     1.0000 0.82256  0.88770  0.17744  Biso   1.000  C
  C194     1.0000 0.17744  0.11230  0.17744  Biso   1.000  C
  C195     1.0000 0.17744  0.88770  0.82256  Biso   1.000  C
  C196     1.0000 0.82256  0.11230  0.82256  Biso   1.000  C
  C197     1.0000 0.17744  0.82256  0.88770  Biso   1.000  C
  C198     1.0000 0.17744  0.17744  0.11230  Biso   1.000  C
  C199     1.0000 0.82256  0.17744  0.88770  Biso   1.000  C
  C200     1.0000 0.82256  0.82256  0.11230  Biso   1.000  C
  C201     1.0000 0.88770  0.17744  0.82256  Biso   1.000  C
  C202     1.0000 0.11230  0.17744  0.17744  Biso   1.000  C
  C203     1.0000 0.88770  0.82256  0.17744  Biso   1.000  C
  C204     1.0000 0.11230  0.82256  0.82256  Biso   1.000  C
  C205     1.0000 0.88770  0.82256  0.82256  Biso   1.000  C
  C206     1.0000 0.11230  0.17744  0.82256  Biso   1.000  C
  C207     1.0000 0.88770  0.17744  0.17744  Biso   1.000  C
  C208     1.0000 0.11230  0.82256  0.17744  Biso   1.000  C
  C209     1.0000 0.82256  0.17744  0.11230  Biso   1.000  C
  C210     1.0000 0.17744  0.17744  0.88770  Biso   1.000  C
  C211     1.0000 0.17744  0.82256  0.11230  Biso   1.000  C
  C212     1.0000 0.82256  0.82256  0.88770  Biso   1.000  C
  C213     1.0000 0.17744  0.88770  0.17744  Biso   1.000  C
  C214     1.0000 0.17744  0.11230  0.82256  Biso   1.000  C
  C215     1.0000 0.82256  0.88770  0.82256  Biso   1.000  C
  C216     1.0000 0.82256  0.11230  0.17744  Biso   1.000  C
  C217     1.0000 0.82256  0.38770  0.67744  Biso   1.000  C
  C218     1.0000 0.17744  0.61230  0.67744  Biso   1.000  C
  C219     1.0000 0.17744  0.38770  0.32256  Biso   1.000  C
  C220     1.0000 0.82256  0.61230  0.32256  Biso   1.000  C
  C221     1.0000 0.17744  0.32256  0.38770  Biso   1.000  C
  C222     1.0000 0.17744  0.67744  0.61230  Biso   1.000  C
  C223     1.0000 0.82256  0.67744  0.38770  Biso   1.000  C
  C224     1.0000 0.82256  0.32256  0.61230  Biso   1.000  C
  C225     1.0000 0.88770  0.67744  0.32256  Biso   1.000  C
  C226     1.0000 0.11230  0.67744  0.67744  Biso   1.000  C
  C227     1.0000 0.88770  0.32256  0.67744  Biso   1.000  C
  C228     1.0000 0.11230  0.32256  0.32256  Biso   1.000  C
  C229     1.0000 0.88770  0.32256  0.32256  Biso   1.000  C
  C230     1.0000 0.11230  0.67744  0.32256  Biso   1.000  C
  C231     1.0000 0.88770  0.67744  0.67744  Biso   1.000  C
  C232     1.0000 0.11230  0.32256  0.67744  Biso   1.000  C
  C233     1.0000 0.82256  0.67744  0.61230  Biso   1.000  C
  C234     1.0000 0.17744  0.67744  0.38770  Biso   1.000  C
  C235     1.0000 0.17744  0.32256  0.61230  Biso   1.000  C
  C236     1.0000 0.82256  0.32256  0.38770  Biso   1.000  C
  C237     1.0000 0.17744  0.38770  0.67744  Biso   1.000  C
  C238     1.0000 0.17744  0.61230  0.32256  Biso   1.000  C
  C239     1.0000 0.82256  0.38770  0.32256  Biso   1.000  C
  C240     1.0000 0.82256  0.61230  0.67744  Biso   1.000  C
  C241     1.0000 0.32256  0.88770  0.67744  Biso   1.000  C
  C242     1.0000 0.67744  0.11230  0.67744  Biso   1.000  C
  C243     1.0000 0.67744  0.88770  0.32256  Biso   1.000  C
  C244     1.0000 0.32256  0.11230  0.32256  Biso   1.000  C
  C245     1.0000 0.67744  0.82256  0.38770  Biso   1.000  C
  C246     1.0000 0.67744  0.17744  0.61230  Biso   1.000  C
  C247     1.0000 0.32256  0.17744  0.38770  Biso   1.000  C
  C248     1.0000 0.32256  0.82256  0.61230  Biso   1.000  C
  C249     1.0000 0.38770  0.17744  0.32256  Biso   1.000  C
  C250     1.0000 0.61230  0.17744  0.67744  Biso   1.000  C
  C251     1.0000 0.38770  0.82256  0.67744  Biso   1.000  C
  C252     1.0000 0.61230  0.82256  0.32256  Biso   1.000  C
  C253     1.0000 0.38770  0.82256  0.32256  Biso   1.000  C
  C254     1.0000 0.61230  0.17744  0.32256  Biso   1.000  C
  C255     1.0000 0.38770  0.17744  0.67744  Biso   1.000  C
  C256     1.0000 0.61230  0.82256  0.67744  Biso   1.000  C
  C257     1.0000 0.32256  0.17744  0.61230  Biso   1.000  C
  C258     1.0000 0.67744  0.17744  0.38770  Biso   1.000  C
  C259     1.0000 0.67744  0.82256  0.61230  Biso   1.000  C
  C260     1.0000 0.32256  0.82256  0.38770  Biso   1.000  C
  C261     1.0000 0.67744  0.88770  0.67744  Biso   1.000  C
  C262     1.0000 0.67744  0.11230  0.32256  Biso   1.000  C
  C263     1.0000 0.32256  0.88770  0.32256  Biso   1.000  C
  C264     1.0000 0.32256  0.11230  0.67744  Biso   1.000  C
  C265     1.0000 0.32256  0.38770  0.17744  Biso   1.000  C
  C266     1.0000 0.67744  0.61230  0.17744  Biso   1.000  C
  C267     1.0000 0.67744  0.38770  0.82256  Biso   1.000  C
  C268     1.0000 0.32256  0.61230  0.82256  Biso   1.000  C
  C269     1.0000 0.67744  0.32256  0.88770  Biso   1.000  C
  C270     1.0000 0.67744  0.67744  0.11230  Biso   1.000  C
  C271     1.0000 0.32256  0.67744  0.88770  Biso   1.000  C
  C272     1.0000 0.32256  0.32256  0.11230  Biso   1.000  C
  C273     1.0000 0.38770  0.67744  0.82256  Biso   1.000  C
  C274     1.0000 0.61230  0.67744  0.17744  Biso   1.000  C
  C275     1.0000 0.38770  0.32256  0.17744  Biso   1.000  C
  C276     1.0000 0.61230  0.32256  0.82256  Biso   1.000  C
  C277     1.0000 0.38770  0.32256  0.82256  Biso   1.000  C
  C278     1.0000 0.61230  0.67744  0.82256  Biso   1.000  C
  C279     1.0000 0.38770  0.67744  0.17744  Biso   1.000  C
  C280     1.0000 0.61230  0.32256  0.17744  Biso   1.000  C
  C281     1.0000 0.32256  0.67744  0.11230  Biso   1.000  C
  C282     1.0000 0.67744  0.67744  0.88770  Biso   1.000  C
  C283     1.0000 0.67744  0.32256  0.11230  Biso   1.000  C
  C284     1.0000 0.32256  0.32256  0.88770  Biso   1.000  C
  C285     1.0000 0.67744  0.38770  0.17744  Biso   1.000  C
  C286     1.0000 0.67744  0.61230  0.82256  Biso   1.000  C
  C287     1.0000 0.32256  0.38770  0.82256  Biso   1.000  C
  C288     1.0000 0.32256  0.61230  0.17744  Biso   1.000  C
  O385     1.0000 0.96600  0.96600  0.03400  Biso   1.000  O
  O386     1.0000 0.03400  0.03400  0.03400  Biso   1.000  O
  O387     1.0000 0.03400  0.96600  0.96600  Biso   1.000  O
  O388     1.0000 0.96600  0.03400  0.96600  Biso   1.000  O
  O389     1.0000 0.96600  0.96600  0.96600  Biso   1.000  O
  O390     1.0000 0.03400  0.03400  0.96600  Biso   1.000  O
  O391     1.0000 0.96600  0.03400  0.03400  Biso   1.000  O
  O392     1.0000 0.03400  0.96600  0.03400  Biso   1.000  O
  O393     1.0000 0.96600  0.46600  0.53400  Biso   1.000  O
  O394     1.0000 0.03400  0.53400  0.53400  Biso   1.000  O
  O395     1.0000 0.03400  0.46600  0.46600  Biso   1.000  O
  O396     1.0000 0.96600  0.53400  0.46600  Biso   1.000  O
  O397     1.0000 0.96600  0.46600  0.46600  Biso   1.000  O
  O398     1.0000 0.03400  0.53400  0.46600  Biso   1.000  O
  O399     1.0000 0.96600  0.53400  0.53400  Biso   1.000  O
  O400     1.0000 0.03400  0.46600  0.53400  Biso   1.000  O
  O401     1.0000 0.46600  0.96600  0.53400  Biso   1.000  O
  O402     1.0000 0.53400  0.03400  0.53400  Biso   1.000  O
  O403     1.0000 0.53400  0.96600  0.46600  Biso   1.000  O
  O404     1.0000 0.46600  0.03400  0.46600  Biso   1.000  O
  O405     1.0000 0.46600  0.96600  0.46600  Biso   1.000  O
  O406     1.0000 0.53400  0.03400  0.46600  Biso   1.000  O
  O407     1.0000 0.46600  0.03400  0.53400  Biso   1.000  O
  O408     1.0000 0.53400  0.96600  0.53400  Biso   1.000  O
  O409     1.0000 0.46600  0.46600  0.03400  Biso   1.000  O
  O410     1.0000 0.53400  0.53400  0.03400  Biso   1.000  O
  O411     1.0000 0.53400  0.46600  0.96600  Biso   1.000  O
  O412     1.0000 0.46600  0.53400  0.96600  Biso   1.000  O
  O413     1.0000 0.46600  0.46600  0.96600  Biso   1.000  O
  O414     1.0000 0.53400  0.53400  0.96600  Biso   1.000  O
  O415     1.0000 0.46600  0.53400  0.03400  Biso   1.000  O
  O416     1.0000 0.53400  0.46600  0.03400  Biso   1.000  O
  K1       1.0000 0.92350  0.00000  0.24350  Biso   1.000  K
  K2       1.0000 0.07650  0.00000  0.24350  Biso   1.000  K
  K3       1.0000 0.07650  0.00000  0.75650  Biso   1.000  K
  K4       1.0000 0.92350  0.00000  0.75650  Biso   1.000  K
  K5       1.0000 0.24350  0.92350  0.00000  Biso   1.000  K
  K6       1.0000 0.24350  0.07650  0.00000  Biso   1.000  K
  K7       1.0000 0.75650  0.07650  0.00000  Biso   1.000  K
  K8       1.0000 0.75650  0.92350  0.00000  Biso   1.000  K
  K9       1.0000 0.00000  0.24350  0.92350  Biso   1.000  K
  K10      1.0000 0.00000  0.24350  0.07650  Biso   1.000  K
  K11      1.0000 0.00000  0.75650  0.07650  Biso   1.000  K
  K12      1.0000 0.00000  0.75650  0.92350  Biso   1.000  K
  K13      1.0000 0.00000  0.92350  0.75650  Biso   1.000  K
  K14      1.0000 0.00000  0.07650  0.75650  Biso   1.000  K
  K15      1.0000 0.00000  0.07650  0.24350  Biso   1.000  K
  K16      1.0000 0.00000  0.92350  0.24350  Biso   1.000  K
  K17      1.0000 0.92350  0.24350  0.00000  Biso   1.000  K
  K18      1.0000 0.07650  0.24350  0.00000  Biso   1.000  K
  K19      1.0000 0.07650  0.75650  0.00000  Biso   1.000  K
  K20      1.0000 0.92350  0.75650  0.00000  Biso   1.000  K
  K21      1.0000 0.24350  0.00000  0.07650  Biso   1.000  K
  K22      1.0000 0.24350  0.00000  0.92350  Biso   1.000  K
  K23      1.0000 0.75650  0.00000  0.92350  Biso   1.000  K
  K24      1.0000 0.75650  0.00000  0.07650  Biso   1.000  K
  K25      1.0000 0.92350  0.50000  0.74350  Biso   1.000  K
  K26      1.0000 0.07650  0.50000  0.74350  Biso   1.000  K
  K27      1.0000 0.07650  0.50000  0.25650  Biso   1.000  K
  K28      1.0000 0.92350  0.50000  0.25650  Biso   1.000  K
  K29      1.0000 0.24350  0.42350  0.50000  Biso   1.000  K
  K30      1.0000 0.24350  0.57650  0.50000  Biso   1.000  K
  K31      1.0000 0.75650  0.57650  0.50000  Biso   1.000  K
  K32      1.0000 0.75650  0.42350  0.50000  Biso   1.000  K
  K33      1.0000 0.00000  0.74350  0.42350  Biso   1.000  K
  K34      1.0000 0.00000  0.74350  0.57650  Biso   1.000  K
  K35      1.0000 0.00000  0.25650  0.57650  Biso   1.000  K
  K36      1.0000 0.00000  0.25650  0.42350  Biso   1.000  K
  K37      1.0000 0.00000  0.42350  0.25650  Biso   1.000  K
  K38      1.0000 0.00000  0.57650  0.25650  Biso   1.000  K
  K39      1.0000 0.00000  0.57650  0.74350  Biso   1.000  K
  K40      1.0000 0.00000  0.42350  0.74350  Biso   1.000  K
  K41      1.0000 0.92350  0.74350  0.50000  Biso   1.000  K
  K42      1.0000 0.07650  0.74350  0.50000  Biso   1.000  K
  K43      1.0000 0.07650  0.25650  0.50000  Biso   1.000  K
  K44      1.0000 0.92350  0.25650  0.50000  Biso   1.000  K
  K45      1.0000 0.24350  0.50000  0.57650  Biso   1.000  K
  K46      1.0000 0.24350  0.50000  0.42350  Biso   1.000  K
  K47      1.0000 0.75650  0.50000  0.42350  Biso   1.000  K
  K48      1.0000 0.75650  0.50000  0.57650  Biso   1.000  K
  K49      1.0000 0.42350  0.00000  0.74350  Biso   1.000  K
  K50      1.0000 0.57650  0.00000  0.74350  Biso   1.000  K
  K51      1.0000 0.57650  0.00000  0.25650  Biso   1.000  K
  K52      1.0000 0.42350  0.00000  0.25650  Biso   1.000  K
  K53      1.0000 0.74350  0.92350  0.50000  Biso   1.000  K
  K54      1.0000 0.74350  0.07650  0.50000  Biso   1.000  K
  K55      1.0000 0.25650  0.07650  0.50000  Biso   1.000  K
  K56      1.0000 0.25650  0.92350  0.50000  Biso   1.000  K
  K57      1.0000 0.50000  0.24350  0.42350  Biso   1.000  K
  K58      1.0000 0.50000  0.24350  0.57650  Biso   1.000  K
  K59      1.0000 0.50000  0.75650  0.57650  Biso   1.000  K
  K60      1.0000 0.50000  0.75650  0.42350  Biso   1.000  K
  K61      1.0000 0.50000  0.92350  0.25650  Biso   1.000  K
  K62      1.0000 0.50000  0.07650  0.25650  Biso   1.000  K
  K63      1.0000 0.50000  0.07650  0.74350  Biso   1.000  K
  K64      1.0000 0.50000  0.92350  0.74350  Biso   1.000  K
  K65      1.0000 0.42350  0.24350  0.50000  Biso   1.000  K
  K66      1.0000 0.57650  0.24350  0.50000  Biso   1.000  K
  K67      1.0000 0.57650  0.75650  0.50000  Biso   1.000  K
  K68      1.0000 0.42350  0.75650  0.50000  Biso   1.000  K
  K69      1.0000 0.74350  0.00000  0.57650  Biso   1.000  K
  K70      1.0000 0.74350  0.00000  0.42350  Biso   1.000  K
  K71      1.0000 0.25650  0.00000  0.42350  Biso   1.000  K
  K72      1.0000 0.25650  0.00000  0.57650  Biso   1.000  K
  K73      1.0000 0.42350  0.50000  0.24350  Biso   1.000  K
  K74      1.0000 0.57650  0.50000  0.24350  Biso   1.000  K
  K75      1.0000 0.57650  0.50000  0.75650  Biso   1.000  K
  K76      1.0000 0.42350  0.50000  0.75650  Biso   1.000  K
  K77      1.0000 0.74350  0.42350  0.00000  Biso   1.000  K
  K78      1.0000 0.74350  0.57650  0.00000  Biso   1.000  K
  K79      1.0000 0.25650  0.57650  0.00000  Biso   1.000  K
  K80      1.0000 0.25650  0.42350  0.00000  Biso   1.000  K
  K81      1.0000 0.50000  0.74350  0.92350  Biso   1.000  K
  K82      1.0000 0.50000  0.74350  0.07650  Biso   1.000  K
  K83      1.0000 0.50000  0.25650  0.07650  Biso   1.000  K
  K84      1.0000 0.50000  0.25650  0.92350  Biso   1.000  K
  K85      1.0000 0.50000  0.42350  0.75650  Biso   1.000  K
  K86      1.0000 0.50000  0.57650  0.75650  Biso   1.000  K
  K87      1.0000 0.50000  0.57650  0.24350  Biso   1.000  K
  K88      1.0000 0.50000  0.42350  0.24350  Biso   1.000  K
  K89      1.0000 0.42350  0.74350  0.00000  Biso   1.000  K
  K90      1.0000 0.57650  0.74350  0.00000  Biso   1.000  K
  K91      1.0000 0.57650  0.25650  0.00000  Biso   1.000  K
  K92      1.0000 0.42350  0.25650  0.00000  Biso   1.000  K
  K93      1.0000 0.74350  0.50000  0.07650  Biso   1.000  K
  K94      1.0000 0.74350  0.50000  0.92350  Biso   1.000  K
  K95      1.0000 0.25650  0.50000  0.92350  Biso   1.000  K
  K96      1.0000 0.25650  0.50000  0.07650  Biso   1.000  K
  O417     1.0000 0.92340  0.07660  0.32300  Biso   1.000  O
  O418     1.0000 0.07660  0.92340  0.32300  Biso   1.000  O
  O419     1.0000 0.07660  0.07660  0.67700  Biso   1.000  O
  O420     1.0000 0.92340  0.92340  0.67700  Biso   1.000  O
  O421     1.0000 0.32300  0.92340  0.07660  Biso   1.000  O
  O422     1.0000 0.32300  0.07660  0.92340  Biso   1.000  O
  O423     1.0000 0.67700  0.07660  0.07660  Biso   1.000  O
  O424     1.0000 0.67700  0.92340  0.92340  Biso   1.000  O
  O425     1.0000 0.07660  0.32300  0.92340  Biso   1.000  O
  O426     1.0000 0.92340  0.32300  0.07660  Biso   1.000  O
  O427     1.0000 0.07660  0.67700  0.07660  Biso   1.000  O
  O428     1.0000 0.92340  0.67700  0.92340  Biso   1.000  O
  O429     1.0000 0.07660  0.92340  0.67700  Biso   1.000  O
  O430     1.0000 0.92340  0.07660  0.67700  Biso   1.000  O
  O431     1.0000 0.07660  0.07660  0.32300  Biso   1.000  O
  O432     1.0000 0.92340  0.92340  0.32300  Biso   1.000  O
  O433     1.0000 0.92340  0.32300  0.92340  Biso   1.000  O
  O434     1.0000 0.07660  0.32300  0.07660  Biso   1.000  O
  O435     1.0000 0.07660  0.67700  0.92340  Biso   1.000  O
  O436     1.0000 0.92340  0.67700  0.07660  Biso   1.000  O
  O437     1.0000 0.32300  0.07660  0.07660  Biso   1.000  O
  O438     1.0000 0.32300  0.92340  0.92340  Biso   1.000  O
  O439     1.0000 0.67700  0.07660  0.92340  Biso   1.000  O
  O440     1.0000 0.67700  0.92340  0.07660  Biso   1.000  O
  O441     1.0000 0.92340  0.57660  0.82300  Biso   1.000  O
  O442     1.0000 0.07660  0.42340  0.82300  Biso   1.000  O
  O443     1.0000 0.07660  0.57660  0.17700  Biso   1.000  O
  O444     1.0000 0.92340  0.42340  0.17700  Biso   1.000  O
  O445     1.0000 0.32300  0.42340  0.57660  Biso   1.000  O
  O446     1.0000 0.32300  0.57660  0.42340  Biso   1.000  O
  O447     1.0000 0.67700  0.57660  0.57660  Biso   1.000  O
  O448     1.0000 0.67700  0.42340  0.42340  Biso   1.000  O
  O449     1.0000 0.07660  0.82300  0.42340  Biso   1.000  O
  O450     1.0000 0.92340  0.82300  0.57660  Biso   1.000  O
  O451     1.0000 0.07660  0.17700  0.57660  Biso   1.000  O
  O452     1.0000 0.92340  0.17700  0.42340  Biso   1.000  O
  O453     1.0000 0.07660  0.42340  0.17700  Biso   1.000  O
  O454     1.0000 0.92340  0.57660  0.17700  Biso   1.000  O
  O455     1.0000 0.07660  0.57660  0.82300  Biso   1.000  O
  O456     1.0000 0.92340  0.42340  0.82300  Biso   1.000  O
  O457     1.0000 0.92340  0.82300  0.42340  Biso   1.000  O
  O458     1.0000 0.07660  0.82300  0.57660  Biso   1.000  O
  O459     1.0000 0.07660  0.17700  0.42340  Biso   1.000  O
  O460     1.0000 0.92340  0.17700  0.57660  Biso   1.000  O
  O461     1.0000 0.32300  0.57660  0.57660  Biso   1.000  O
  O462     1.0000 0.32300  0.42340  0.42340  Biso   1.000  O
  O463     1.0000 0.67700  0.57660  0.42340  Biso   1.000  O
  O464     1.0000 0.67700  0.42340  0.57660  Biso   1.000  O
  O465     1.0000 0.42340  0.07660  0.82300  Biso   1.000  O
  O466     1.0000 0.57660  0.92340  0.82300  Biso   1.000  O
  O467     1.0000 0.57660  0.07660  0.17700  Biso   1.000  O
  O468     1.0000 0.42340  0.92340  0.17700  Biso   1.000  O
  O469     1.0000 0.82300  0.92340  0.57660  Biso   1.000  O
  O470     1.0000 0.82300  0.07660  0.42340  Biso   1.000  O
  O471     1.0000 0.17700  0.07660  0.57660  Biso   1.000  O
  O472     1.0000 0.17700  0.92340  0.42340  Biso   1.000  O
  O473     1.0000 0.57660  0.32300  0.42340  Biso   1.000  O
  O474     1.0000 0.42340  0.32300  0.57660  Biso   1.000  O
  O475     1.0000 0.57660  0.67700  0.57660  Biso   1.000  O
  O476     1.0000 0.42340  0.67700  0.42340  Biso   1.000  O
  O477     1.0000 0.57660  0.92340  0.17700  Biso   1.000  O
  O478     1.0000 0.42340  0.07660  0.17700  Biso   1.000  O
  O479     1.0000 0.57660  0.07660  0.82300  Biso   1.000  O
  O480     1.0000 0.42340  0.92340  0.82300  Biso   1.000  O
  O481     1.0000 0.42340  0.32300  0.42340  Biso   1.000  O
  O482     1.0000 0.57660  0.32300  0.57660  Biso   1.000  O
  O483     1.0000 0.57660  0.67700  0.42340  Biso   1.000  O
  O484     1.0000 0.42340  0.67700  0.57660  Biso   1.000  O
  O485     1.0000 0.82300  0.07660  0.57660  Biso   1.000  O
  O486     1.0000 0.82300  0.92340  0.42340  Biso   1.000  O
  O487     1.0000 0.17700  0.07660  0.42340  Biso   1.000  O
  O488     1.0000 0.17700  0.92340  0.57660  Biso   1.000  O
  O489     1.0000 0.42340  0.57660  0.32300  Biso   1.000  O
  O490     1.0000 0.57660  0.42340  0.32300  Biso   1.000  O
  O491     1.0000 0.57660  0.57660  0.67700  Biso   1.000  O
  O492     1.0000 0.42340  0.42340  0.67700  Biso   1.000  O
  O493     1.0000 0.82300  0.42340  0.07660  Biso   1.000  O
  O494     1.0000 0.82300  0.57660  0.92340  Biso   1.000  O
  O495     1.0000 0.17700  0.57660  0.07660  Biso   1.000  O
  O496     1.0000 0.17700  0.42340  0.92340  Biso   1.000  O
  O497     1.0000 0.57660  0.82300  0.92340  Biso   1.000  O
  O498     1.0000 0.42340  0.82300  0.07660  Biso   1.000  O
  O499     1.0000 0.57660  0.17700  0.07660  Biso   1.000  O
  O500     1.0000 0.42340  0.17700  0.92340  Biso   1.000  O
  O501     1.0000 0.57660  0.42340  0.67700  Biso   1.000  O
  O502     1.0000 0.42340  0.57660  0.67700  Biso   1.000  O
  O503     1.0000 0.57660  0.57660  0.32300  Biso   1.000  O
  O504     1.0000 0.42340  0.42340  0.32300  Biso   1.000  O
  O505     1.0000 0.42340  0.82300  0.92340  Biso   1.000  O
  O506     1.0000 0.57660  0.82300  0.07660  Biso   1.000  O
  O507     1.0000 0.57660  0.17700  0.92340  Biso   1.000  O
  O508     1.0000 0.42340  0.17700  0.07660  Biso   1.000  O
  O509     1.0000 0.82300  0.57660  0.07660  Biso   1.000  O
  O510     1.0000 0.82300  0.42340  0.92340  Biso   1.000  O
  O511     1.0000 0.17700  0.57660  0.92340  Biso   1.000  O
  O512     1.0000 0.17700  0.42340  0.07660  Biso   1.000  O
