data_image0
_cell_length_a       19.8913
_cell_length_b       21.1284
_cell_length_c       19.7411
_cell_angle_alpha    90
_cell_angle_beta     95.314
_cell_angle_gamma    90

_symmetry_space_group_name_H-M    "P 1"
_symmetry_int_tables_number       1

loop_
  _symmetry_equiv_pos_as_xyz
  'x, y, z'

loop_
  _atom_site_label
  _atom_site_occupancy
  _atom_site_fract_x
  _atom_site_fract_y
  _atom_site_fract_z
  _atom_site_thermal_displace_type
  _atom_site_B_iso_or_equiv
  _atom_site_type_symbol
  Ti1      1.0000 0.59280  0.57165  0.05838  Biso   1.000  Ti
  Ti2      1.0000 0.40720  0.07165  0.44162  Biso   1.000  Ti
  Ti3      1.0000 0.40720  0.42835  0.94162  Biso   1.000  Ti
  Ti4      1.0000 0.59280  0.92835  0.55838  Biso   1.000  Ti
  Ti5      1.0000 0.44646  0.60926  0.08830  Biso   1.000  Ti
  Ti6      1.0000 0.55354  0.10926  0.41170  Biso   1.000  Ti
  Ti7      1.0000 0.55354  0.39074  0.91170  Biso   1.000  Ti
  Ti8      1.0000 0.44646  0.89074  0.58830  Biso   1.000  Ti
  Ti9      1.0000 0.45781  0.46319  0.11234  Biso   1.000  Ti
  Ti10     1.0000 0.54219  0.96319  0.38766  Biso   1.000  Ti
  Ti11     1.0000 0.54219  0.53681  0.88766  Biso   1.000  Ti
  Ti12     1.0000 0.45781  0.03681  0.61234  Biso   1.000  Ti
  Ti13     1.0000 0.11265  0.48136  0.44897  Biso   1.000  Ti
  Ti14     1.0000 0.88735  0.98136  0.05103  Biso   1.000  Ti
  Ti15     1.0000 0.88735  0.51864  0.55103  Biso   1.000  Ti
  Ti16     1.0000 0.11265  0.01864  0.94897  Biso   1.000  Ti
  Ti17     1.0000 0.08829  0.62258  0.48607  Biso   1.000  Ti
  Ti18     1.0000 0.91171  0.12258  0.01393  Biso   1.000  Ti
  Ti19     1.0000 0.91171  0.37742  0.51393  Biso   1.000  Ti
  Ti20     1.0000 0.08829  0.87742  0.98607  Biso   1.000  Ti
  Ti21     1.0000 0.05612  0.54205  0.61303  Biso   1.000  Ti
  Ti22     1.0000 0.94388  0.04205  0.88697  Biso   1.000  Ti
  Ti23     1.0000 0.94388  0.45795  0.38697  Biso   1.000  Ti
  Ti24     1.0000 0.05612  0.95795  0.11303  Biso   1.000  Ti
  Cu1      1.0000 0.47867  0.57908  0.48847  Biso   1.000  Cu
  Cu2      1.0000 0.52133  0.07908  0.01153  Biso   1.000  Cu
  Cu3      1.0000 0.52133  0.42092  0.51153  Biso   1.000  Cu
  Cu4      1.0000 0.47867  0.92092  0.98847  Biso   1.000  Cu
  Cl1      1.0000 0.41059  0.64782  0.42942  Biso   1.000  Cl
  Cl2      1.0000 0.58941  0.14782  0.07058  Biso   1.000  Cl
  Cl3      1.0000 0.58941  0.35218  0.57058  Biso   1.000  Cl
  Cl4      1.0000 0.41059  0.85218  0.92942  Biso   1.000  Cl
  Cl5      1.0000 0.43723  0.46674  0.43854  Biso   1.000  Cl
  Cl6      1.0000 0.56277  0.96674  0.06146  Biso   1.000  Cl
  Cl7      1.0000 0.56277  0.53326  0.56146  Biso   1.000  Cl
  Cl8      1.0000 0.43723  0.03326  0.93854  Biso   1.000  Cl
  P1       1.0000 0.60540  0.42015  0.07395  Biso   1.000  P
  P2       1.0000 0.39460  0.92015  0.42605  Biso   1.000  P
  P3       1.0000 0.39460  0.57985  0.92605  Biso   1.000  P
  P4       1.0000 0.60540  0.07985  0.57395  Biso   1.000  P
  P5       1.0000 0.07273  0.39503  0.57410  Biso   1.000  P
  P6       1.0000 0.92727  0.89503  0.92590  Biso   1.000  P
  P7       1.0000 0.92727  0.60497  0.42590  Biso   1.000  P
  P8       1.0000 0.07273  0.10497  0.07410  Biso   1.000  P
  S1       1.0000 0.54442  0.56628  0.21577  Biso   1.000  S
  S2       1.0000 0.45558  0.06628  0.28423  Biso   1.000  S
  S3       1.0000 0.45558  0.43372  0.78423  Biso   1.000  S
  S4       1.0000 0.54442  0.93372  0.71577  Biso   1.000  S
  S5       1.0000 0.21399  0.55467  0.56457  Biso   1.000  S
  S6       1.0000 0.78601  0.05467  0.93543  Biso   1.000  S
  S7       1.0000 0.78601  0.44533  0.43543  Biso   1.000  S
  S8       1.0000 0.21399  0.94533  0.06457  Biso   1.000  S
  N1       1.0000 0.54570  0.58910  0.41682  Biso   1.000  N
  N2       1.0000 0.45430  0.08910  0.08318  Biso   1.000  N
  N3       1.0000 0.45430  0.41090  0.58318  Biso   1.000  N
  N4       1.0000 0.54570  0.91090  0.91682  Biso   1.000  N
  N5       1.0000 0.41250  0.57580  0.56240  Biso   1.000  N
  N6       1.0000 0.58750  0.07580  0.93760  Biso   1.000  N
  N7       1.0000 0.58750  0.42420  0.43760  Biso   1.000  N
  N8       1.0000 0.41250  0.92420  0.06240  Biso   1.000  N
  C1       1.0000 0.60930  0.60890  0.43380  Biso   1.000  C
  C2       1.0000 0.39070  0.10890  0.06620  Biso   1.000  C
  C3       1.0000 0.39070  0.39110  0.56620  Biso   1.000  C
  C4       1.0000 0.60930  0.89110  0.93380  Biso   1.000  C
  H1       1.0000 0.62280  0.61680  0.47940  Biso   1.000  H
  H2       1.0000 0.37720  0.11680  0.02060  Biso   1.000  H
  H3       1.0000 0.37720  0.38320  0.52060  Biso   1.000  H
  H4       1.0000 0.62280  0.88320  0.97940  Biso   1.000  H
  C5       1.0000 0.65550  0.61800  0.38680  Biso   1.000  C
  C6       1.0000 0.34450  0.11800  0.11320  Biso   1.000  C
  C7       1.0000 0.34450  0.38200  0.61320  Biso   1.000  C
  C8       1.0000 0.65550  0.88200  0.88680  Biso   1.000  C
  H5       1.0000 0.69870  0.63270  0.40050  Biso   1.000  H
  H6       1.0000 0.30130  0.13270  0.09950  Biso   1.000  H
  H7       1.0000 0.30130  0.36730  0.59950  Biso   1.000  H
  H8       1.0000 0.69870  0.86730  0.90050  Biso   1.000  H
  C9       1.0000 0.63670  0.60500  0.31940  Biso   1.000  C
  C10      1.0000 0.36330  0.10500  0.18060  Biso   1.000  C
  C11      1.0000 0.36330  0.39500  0.68060  Biso   1.000  C
  C12      1.0000 0.63670  0.89500  0.81940  Biso   1.000  C
  H9       1.0000 0.66720  0.60940  0.28670  Biso   1.000  H
  H10      1.0000 0.33280  0.10940  0.21330  Biso   1.000  H
  H11      1.0000 0.33280  0.39060  0.71330  Biso   1.000  H
  H12      1.0000 0.66720  0.89060  0.78670  Biso   1.000  H
  C13      1.0000 0.57110  0.58510  0.30160  Biso   1.000  C
  C14      1.0000 0.42890  0.08510  0.19840  Biso   1.000  C
  C15      1.0000 0.42890  0.41490  0.69840  Biso   1.000  C
  C16      1.0000 0.57110  0.91490  0.80160  Biso   1.000  C
  C17      1.0000 0.52670  0.57830  0.35090  Biso   1.000  C
  C18      1.0000 0.47330  0.07830  0.14910  Biso   1.000  C
  C19      1.0000 0.47330  0.42170  0.64910  Biso   1.000  C
  C20      1.0000 0.52670  0.92170  0.85090  Biso   1.000  C
  H13      1.0000 0.48250  0.56590  0.33810  Biso   1.000  H
  H14      1.0000 0.51750  0.06590  0.16190  Biso   1.000  H
  H15      1.0000 0.51750  0.43410  0.66190  Biso   1.000  H
  H16      1.0000 0.48250  0.93410  0.83810  Biso   1.000  H
  C21      1.0000 0.66730  0.37190  0.12050  Biso   1.000  C
  C22      1.0000 0.33270  0.87190  0.37950  Biso   1.000  C
  C23      1.0000 0.33270  0.62810  0.87950  Biso   1.000  C
  C24      1.0000 0.66730  0.12810  0.62050  Biso   1.000  C
  C25      1.0000 0.71960  0.39760  0.16280  Biso   1.000  C
  C26      1.0000 0.28040  0.89760  0.33720  Biso   1.000  C
  C27      1.0000 0.28040  0.60240  0.83720  Biso   1.000  C
  C28      1.0000 0.71960  0.10240  0.66280  Biso   1.000  C
  H17      1.0000 0.72480  0.44130  0.16510  Biso   1.000  H
  H18      1.0000 0.27520  0.94130  0.33490  Biso   1.000  H
  H19      1.0000 0.27520  0.55870  0.83490  Biso   1.000  H
  H20      1.0000 0.72480  0.05870  0.66510  Biso   1.000  H
  C29      1.0000 0.76430  0.35900  0.20180  Biso   1.000  C
  C30      1.0000 0.23570  0.85900  0.29820  Biso   1.000  C
  C31      1.0000 0.23570  0.64100  0.79820  Biso   1.000  C
  C32      1.0000 0.76430  0.14100  0.70180  Biso   1.000  C
  H21      1.0000 0.79880  0.37660  0.23090  Biso   1.000  H
  H22      1.0000 0.20120  0.87660  0.26910  Biso   1.000  H
  H23      1.0000 0.20120  0.62340  0.76910  Biso   1.000  H
  H24      1.0000 0.79880  0.12340  0.73090  Biso   1.000  H
  C33      1.0000 0.75700  0.29410  0.19680  Biso   1.000  C
  C34      1.0000 0.24300  0.79410  0.30320  Biso   1.000  C
  C35      1.0000 0.24300  0.70590  0.80320  Biso   1.000  C
  C36      1.0000 0.75700  0.20590  0.69680  Biso   1.000  C
  H25      1.0000 0.78750  0.26790  0.22180  Biso   1.000  H
  H26      1.0000 0.21250  0.76790  0.27820  Biso   1.000  H
  H27      1.0000 0.21250  0.73210  0.77820  Biso   1.000  H
  H28      1.0000 0.78750  0.23210  0.72180  Biso   1.000  H
  C37      1.0000 0.70530  0.26790  0.15540  Biso   1.000  C
  C38      1.0000 0.29470  0.76790  0.34460  Biso   1.000  C
  C39      1.0000 0.29470  0.73210  0.84460  Biso   1.000  C
  C40      1.0000 0.70530  0.23210  0.65540  Biso   1.000  C
  H29      1.0000 0.70060  0.22410  0.15280  Biso   1.000  H
  H30      1.0000 0.29940  0.72410  0.34720  Biso   1.000  H
  H31      1.0000 0.29940  0.77590  0.84720  Biso   1.000  H
  H32      1.0000 0.70060  0.27590  0.65280  Biso   1.000  H
  C41      1.0000 0.66010  0.30660  0.11760  Biso   1.000  C
  C42      1.0000 0.33990  0.80660  0.38240  Biso   1.000  C
  C43      1.0000 0.33990  0.69340  0.88240  Biso   1.000  C
  C44      1.0000 0.66010  0.19340  0.61760  Biso   1.000  C
  H33      1.0000 0.62470  0.28880  0.09010  Biso   1.000  H
  H34      1.0000 0.37530  0.78880  0.40990  Biso   1.000  H
  H35      1.0000 0.37530  0.71120  0.90990  Biso   1.000  H
  H36      1.0000 0.62470  0.21120  0.59010  Biso   1.000  H
  C45      1.0000 0.76890  0.58590  0.13600  Biso   1.000  C
  C46      1.0000 0.23110  0.08590  0.36400  Biso   1.000  C
  C47      1.0000 0.23110  0.41410  0.86400  Biso   1.000  C
  C48      1.0000 0.76890  0.91410  0.63600  Biso   1.000  C
  H37      1.0000 0.73980  0.56400  0.16400  Biso   1.000  H
  H38      1.0000 0.26020  0.06400  0.33600  Biso   1.000  H
  H39      1.0000 0.26020  0.43600  0.83600  Biso   1.000  H
  H40      1.0000 0.73980  0.93600  0.66400  Biso   1.000  H
  H41      1.0000 0.80630  0.60380  0.16340  Biso   1.000  H
  H42      1.0000 0.19370  0.10380  0.33660  Biso   1.000  H
  H43      1.0000 0.19370  0.39620  0.83660  Biso   1.000  H
  H44      1.0000 0.80630  0.89620  0.66340  Biso   1.000  H
  H45      1.0000 0.78540  0.55670  0.10380  Biso   1.000  H
  H46      1.0000 0.21460  0.05670  0.39620  Biso   1.000  H
  H47      1.0000 0.21460  0.44330  0.89620  Biso   1.000  H
  H48      1.0000 0.78540  0.94330  0.60380  Biso   1.000  H
  C49      1.0000 0.73310  0.63370  0.10070  Biso   1.000  C
  C50      1.0000 0.26690  0.13370  0.39930  Biso   1.000  C
  C51      1.0000 0.26690  0.36630  0.89930  Biso   1.000  C
  C52      1.0000 0.73310  0.86630  0.60070  Biso   1.000  C
  H49      1.0000 0.72080  0.66200  0.13690  Biso   1.000  H
  H50      1.0000 0.27920  0.16200  0.36310  Biso   1.000  H
  H51      1.0000 0.27920  0.33800  0.86310  Biso   1.000  H
  H52      1.0000 0.72080  0.83800  0.63690  Biso   1.000  H
  C53      1.0000 0.76700  0.67360  0.05850  Biso   1.000  C
  C54      1.0000 0.23300  0.17360  0.44150  Biso   1.000  C
  C55      1.0000 0.23300  0.32640  0.94150  Biso   1.000  C
  C56      1.0000 0.76700  0.82640  0.55850  Biso   1.000  C
  H53      1.0000 0.73620  0.70500  0.03880  Biso   1.000  H
  H54      1.0000 0.26380  0.20500  0.46120  Biso   1.000  H
  H55      1.0000 0.26380  0.29500  0.96120  Biso   1.000  H
  H56      1.0000 0.73620  0.79500  0.53880  Biso   1.000  H
  H57      1.0000 0.78420  0.64910  0.02300  Biso   1.000  H
  H58      1.0000 0.21580  0.14910  0.47700  Biso   1.000  H
  H59      1.0000 0.21580  0.35090  0.97700  Biso   1.000  H
  H60      1.0000 0.78420  0.85090  0.52300  Biso   1.000  H
  H61      1.0000 0.80370  0.69410  0.08490  Biso   1.000  H
  H62      1.0000 0.19630  0.19410  0.41510  Biso   1.000  H
  H63      1.0000 0.19630  0.30590  0.91510  Biso   1.000  H
  H64      1.0000 0.80370  0.80590  0.58490  Biso   1.000  H
  C57      1.0000 0.55240  0.72150  0.98030  Biso   1.000  C
  C58      1.0000 0.44760  0.22150  0.51970  Biso   1.000  C
  C59      1.0000 0.44760  0.27850  0.01970  Biso   1.000  C
  C60      1.0000 0.55240  0.77850  0.48030  Biso   1.000  C
  H65      1.0000 0.52430  0.69370  0.95150  Biso   1.000  H
  H66      1.0000 0.47570  0.19370  0.54850  Biso   1.000  H
  H67      1.0000 0.47570  0.30630  0.04850  Biso   1.000  H
  H68      1.0000 0.52430  0.80630  0.45150  Biso   1.000  H
  H69      1.0000 0.59900  0.71240  0.97560  Biso   1.000  H
  H70      1.0000 0.40100  0.21240  0.52440  Biso   1.000  H
  H71      1.0000 0.40100  0.28760  0.02440  Biso   1.000  H
  H72      1.0000 0.59900  0.78760  0.47560  Biso   1.000  H
  H73      1.0000 0.54290  0.76460  0.96730  Biso   1.000  H
  H74      1.0000 0.45710  0.26460  0.53270  Biso   1.000  H
  H75      1.0000 0.45710  0.23540  0.03270  Biso   1.000  H
  H76      1.0000 0.54290  0.73540  0.46730  Biso   1.000  H
  C61      1.0000 0.53970  0.71290  0.04540  Biso   1.000  C
  C62      1.0000 0.46030  0.21290  0.45460  Biso   1.000  C
  C63      1.0000 0.46030  0.28710  0.95460  Biso   1.000  C
  C64      1.0000 0.53970  0.78710  0.54540  Biso   1.000  C
  C65      1.0000 0.57370  0.74840  0.10350  Biso   1.000  C
  C66      1.0000 0.42630  0.24840  0.39650  Biso   1.000  C
  C67      1.0000 0.42630  0.25160  0.89650  Biso   1.000  C
  C68      1.0000 0.57370  0.75160  0.60350  Biso   1.000  C
  H77      1.0000 0.57930  0.79170  0.09060  Biso   1.000  H
  H78      1.0000 0.42070  0.29170  0.40940  Biso   1.000  H
  H79      1.0000 0.42070  0.20830  0.90940  Biso   1.000  H
  H80      1.0000 0.57930  0.70830  0.59060  Biso   1.000  H
  H81      1.0000 0.61710  0.72990  0.11630  Biso   1.000  H
  H82      1.0000 0.38290  0.22990  0.38370  Biso   1.000  H
  H83      1.0000 0.38290  0.27010  0.88370  Biso   1.000  H
  H84      1.0000 0.61710  0.77010  0.61630  Biso   1.000  H
  H85      1.0000 0.54660  0.74650  0.14130  Biso   1.000  H
  H86      1.0000 0.45340  0.24650  0.35870  Biso   1.000  H
  H87      1.0000 0.45340  0.25350  0.85870  Biso   1.000  H
  H88      1.0000 0.54660  0.75350  0.64130  Biso   1.000  H
  C69      1.0000 0.32460  0.75640  0.10080  Biso   1.000  C
  C70      1.0000 0.67540  0.25640  0.39920  Biso   1.000  C
  C71      1.0000 0.67540  0.24360  0.89920  Biso   1.000  C
  C72      1.0000 0.32460  0.74360  0.60080  Biso   1.000  C
  H89      1.0000 0.32640  0.74180  0.05490  Biso   1.000  H
  H90      1.0000 0.67360  0.24180  0.44510  Biso   1.000  H
  H91      1.0000 0.67360  0.25820  0.94510  Biso   1.000  H
  H92      1.0000 0.32640  0.75820  0.55490  Biso   1.000  H
  H93      1.0000 0.32840  0.80170  0.10190  Biso   1.000  H
  H94      1.0000 0.67160  0.30170  0.39810  Biso   1.000  H
  H95      1.0000 0.67160  0.19830  0.89810  Biso   1.000  H
  H96      1.0000 0.32840  0.69830  0.60190  Biso   1.000  H
  H97      1.0000 0.28250  0.74410  0.11690  Biso   1.000  H
  H98      1.0000 0.71750  0.24410  0.38310  Biso   1.000  H
  H99      1.0000 0.71750  0.25590  0.88310  Biso   1.000  H
  H100     1.0000 0.28250  0.75590  0.61690  Biso   1.000  H
  C73      1.0000 0.37640  0.73060  0.14120  Biso   1.000  C
  C74      1.0000 0.62360  0.23060  0.35880  Biso   1.000  C
  C75      1.0000 0.62360  0.26940  0.85880  Biso   1.000  C
  C76      1.0000 0.37640  0.76940  0.64120  Biso   1.000  C
  C77      1.0000 0.39240  0.73390  0.21010  Biso   1.000  C
  C78      1.0000 0.60760  0.23390  0.28990  Biso   1.000  C
  C79      1.0000 0.60760  0.26610  0.78990  Biso   1.000  C
  C80      1.0000 0.39240  0.76610  0.71010  Biso   1.000  C
  H101     1.0000 0.37400  0.77200  0.22740  Biso   1.000  H
  H102     1.0000 0.62600  0.27200  0.27260  Biso   1.000  H
  H103     1.0000 0.62600  0.22800  0.77260  Biso   1.000  H
  H104     1.0000 0.37400  0.72800  0.72740  Biso   1.000  H
  H105     1.0000 0.44060  0.73400  0.21980  Biso   1.000  H
  H106     1.0000 0.55940  0.23400  0.28020  Biso   1.000  H
  H107     1.0000 0.55940  0.26600  0.78020  Biso   1.000  H
  H108     1.0000 0.44060  0.76600  0.71980  Biso   1.000  H
  H109     1.0000 0.37390  0.69790  0.23150  Biso   1.000  H
  H110     1.0000 0.62610  0.19790  0.26850  Biso   1.000  H
  H111     1.0000 0.62610  0.30210  0.76850  Biso   1.000  H
  H112     1.0000 0.37390  0.80210  0.73150  Biso   1.000  H
  C81      1.0000 0.28080  0.53120  0.09140  Biso   1.000  C
  C82      1.0000 0.71920  0.03120  0.40860  Biso   1.000  C
  C83      1.0000 0.71920  0.46880  0.90860  Biso   1.000  C
  C84      1.0000 0.28080  0.96880  0.59140  Biso   1.000  C
  H113     1.0000 0.30090  0.52370  0.04980  Biso   1.000  H
  H114     1.0000 0.69910  0.02370  0.45020  Biso   1.000  H
  H115     1.0000 0.69910  0.47630  0.95020  Biso   1.000  H
  H116     1.0000 0.30090  0.97630  0.54980  Biso   1.000  H
  H117     1.0000 0.25580  0.57010  0.08780  Biso   1.000  H
  H118     1.0000 0.74420  0.07010  0.41220  Biso   1.000  H
  H119     1.0000 0.74420  0.42990  0.91220  Biso   1.000  H
  H120     1.0000 0.25580  0.92990  0.58780  Biso   1.000  H
  H121     1.0000 0.25090  0.49700  0.09960  Biso   1.000  H
  H122     1.0000 0.74910  0.99700  0.40040  Biso   1.000  H
  H123     1.0000 0.74910  0.50300  0.90040  Biso   1.000  H
  H124     1.0000 0.25090  0.00300  0.59960  Biso   1.000  H
  C85      1.0000 0.32610  0.53490  0.13960  Biso   1.000  C
  C86      1.0000 0.67390  0.03490  0.36040  Biso   1.000  C
  C87      1.0000 0.67390  0.46510  0.86040  Biso   1.000  C
  C88      1.0000 0.32610  0.96510  0.63960  Biso   1.000  C
  C89      1.0000 0.32810  0.54550  0.21450  Biso   1.000  C
  C90      1.0000 0.67190  0.04550  0.28550  Biso   1.000  C
  C91      1.0000 0.67190  0.45450  0.78550  Biso   1.000  C
  C92      1.0000 0.32810  0.95450  0.71450  Biso   1.000  C
  H125     1.0000 0.28300  0.54430  0.22810  Biso   1.000  H
  H126     1.0000 0.71700  0.04430  0.27190  Biso   1.000  H
  H127     1.0000 0.71700  0.45570  0.77190  Biso   1.000  H
  H128     1.0000 0.28300  0.95570  0.72810  Biso   1.000  H
  H129     1.0000 0.34790  0.58600  0.22570  Biso   1.000  H
  H130     1.0000 0.65210  0.08600  0.27430  Biso   1.000  H
  H131     1.0000 0.65210  0.41400  0.77430  Biso   1.000  H
  H132     1.0000 0.34790  0.91400  0.72570  Biso   1.000  H
  H133     1.0000 0.35460  0.51290  0.23800  Biso   1.000  H
  H134     1.0000 0.64540  0.01290  0.26200  Biso   1.000  H
  H135     1.0000 0.64540  0.48710  0.76200  Biso   1.000  H
  H136     1.0000 0.35460  0.98710  0.73800  Biso   1.000  H
  C93      1.0000 0.46450  0.31040  0.21170  Biso   1.000  C
  C94      1.0000 0.53550  0.81040  0.28830  Biso   1.000  C
  C95      1.0000 0.53550  0.68960  0.78830  Biso   1.000  C
  C96      1.0000 0.46450  0.18960  0.71170  Biso   1.000  C
  H137     1.0000 0.45650  0.27940  0.24570  Biso   1.000  H
  H138     1.0000 0.54350  0.77940  0.25430  Biso   1.000  H
  H139     1.0000 0.54350  0.72060  0.75430  Biso   1.000  H
  H140     1.0000 0.45650  0.22060  0.74570  Biso   1.000  H
  H141     1.0000 0.50970  0.32640  0.22010  Biso   1.000  H
  H142     1.0000 0.49030  0.82640  0.27990  Biso   1.000  H
  H143     1.0000 0.49030  0.67360  0.77990  Biso   1.000  H
  H144     1.0000 0.50970  0.17360  0.72010  Biso   1.000  H
  H145     1.0000 0.45900  0.29110  0.16750  Biso   1.000  H
  H146     1.0000 0.54100  0.79110  0.33250  Biso   1.000  H
  H147     1.0000 0.54100  0.70890  0.83250  Biso   1.000  H
  H148     1.0000 0.45900  0.20890  0.66750  Biso   1.000  H
  C97      1.0000 0.41540  0.36350  0.21470  Biso   1.000  C
  C98      1.0000 0.58460  0.86350  0.28530  Biso   1.000  C
  C99      1.0000 0.58460  0.63650  0.78530  Biso   1.000  C
  C100     1.0000 0.41540  0.13650  0.71470  Biso   1.000  C
  H149     1.0000 0.41910  0.38120  0.26080  Biso   1.000  H
  H150     1.0000 0.58090  0.88120  0.23920  Biso   1.000  H
  H151     1.0000 0.58090  0.61880  0.73920  Biso   1.000  H
  H152     1.0000 0.41910  0.11880  0.76080  Biso   1.000  H
  C101     1.0000 0.35720  0.33510  0.20300  Biso   1.000  C
  C102     1.0000 0.64280  0.83510  0.29700  Biso   1.000  C
  C103     1.0000 0.64280  0.66490  0.79700  Biso   1.000  C
  C104     1.0000 0.35720  0.16490  0.70300  Biso   1.000  C
  H153     1.0000 0.32150  0.36550  0.20430  Biso   1.000  H
  H154     1.0000 0.67850  0.86550  0.29570  Biso   1.000  H
  H155     1.0000 0.67850  0.63450  0.79570  Biso   1.000  H
  H156     1.0000 0.32150  0.13450  0.70430  Biso   1.000  H
  H157     1.0000 0.35280  0.30330  0.23700  Biso   1.000  H
  H158     1.0000 0.64720  0.80330  0.26300  Biso   1.000  H
  H159     1.0000 0.64720  0.69670  0.76300  Biso   1.000  H
  H160     1.0000 0.35280  0.19670  0.73700  Biso   1.000  H
  H161     1.0000 0.35440  0.31550  0.15890  Biso   1.000  H
  H162     1.0000 0.64560  0.81550  0.34110  Biso   1.000  H
  H163     1.0000 0.64560  0.68450  0.84110  Biso   1.000  H
  H164     1.0000 0.35440  0.18450  0.65890  Biso   1.000  H
  C105     1.0000 0.43270  0.58270  0.62910  Biso   1.000  C
  C106     1.0000 0.56730  0.08270  0.87090  Biso   1.000  C
  C107     1.0000 0.56730  0.41730  0.37090  Biso   1.000  C
  C108     1.0000 0.43270  0.91730  0.12910  Biso   1.000  C
  H165     1.0000 0.47840  0.58820  0.64220  Biso   1.000  H
  H166     1.0000 0.52160  0.08820  0.85780  Biso   1.000  H
  H167     1.0000 0.52160  0.41180  0.35780  Biso   1.000  H
  H168     1.0000 0.47840  0.91180  0.14220  Biso   1.000  H
  C109     1.0000 0.38860  0.58180  0.67830  Biso   1.000  C
  C110     1.0000 0.61140  0.08180  0.82170  Biso   1.000  C
  C111     1.0000 0.61140  0.41820  0.32170  Biso   1.000  C
  C112     1.0000 0.38860  0.91820  0.17830  Biso   1.000  C
  H169     1.0000 0.40410  0.58780  0.72380  Biso   1.000  H
  H170     1.0000 0.59590  0.08780  0.77620  Biso   1.000  H
  H171     1.0000 0.59590  0.41220  0.27620  Biso   1.000  H
  H172     1.0000 0.40410  0.91220  0.22380  Biso   1.000  H
  C113     1.0000 0.32170  0.57210  0.65990  Biso   1.000  C
  C114     1.0000 0.67830  0.07210  0.84010  Biso   1.000  C
  C115     1.0000 0.67830  0.42790  0.34010  Biso   1.000  C
  C116     1.0000 0.32170  0.92790  0.15990  Biso   1.000  C
  H173     1.0000 0.29100  0.57030  0.69270  Biso   1.000  H
  H174     1.0000 0.70900  0.07030  0.80730  Biso   1.000  H
  H175     1.0000 0.70900  0.42970  0.30730  Biso   1.000  H
  H176     1.0000 0.29100  0.92970  0.19270  Biso   1.000  H
  C117     1.0000 0.30030  0.56480  0.59190  Biso   1.000  C
  C118     1.0000 0.69970  0.06480  0.90810  Biso   1.000  C
  C119     1.0000 0.69970  0.43520  0.40810  Biso   1.000  C
  C120     1.0000 0.30030  0.93520  0.09190  Biso   1.000  C
  C121     1.0000 0.34710  0.56740  0.54440  Biso   1.000  C
  C122     1.0000 0.65290  0.06740  0.95560  Biso   1.000  C
  C123     1.0000 0.65290  0.43260  0.45560  Biso   1.000  C
  C124     1.0000 0.34710  0.93260  0.04440  Biso   1.000  C
  H177     1.0000 0.33240  0.56300  0.49860  Biso   1.000  H
  H178     1.0000 0.66760  0.06300  0.00140  Biso   1.000  H
  H179     1.0000 0.66760  0.43700  0.50140  Biso   1.000  H
  H180     1.0000 0.33240  0.93700  0.99860  Biso   1.000  H
  C125     1.0000 0.14490  0.28590  0.58700  Biso   1.000  C
  C126     1.0000 0.85510  0.78590  0.91300  Biso   1.000  C
  C127     1.0000 0.85510  0.71410  0.41300  Biso   1.000  C
  C128     1.0000 0.14490  0.21410  0.08700  Biso   1.000  C
  H181     1.0000 0.14420  0.28730  0.53980  Biso   1.000  H
  H182     1.0000 0.85580  0.78730  0.96020  Biso   1.000  H
  H183     1.0000 0.85580  0.71270  0.46020  Biso   1.000  H
  H184     1.0000 0.14420  0.21270  0.03980  Biso   1.000  H
  C129     1.0000 0.17510  0.23480  0.62150  Biso   1.000  C
  C130     1.0000 0.82490  0.73480  0.87850  Biso   1.000  C
  C131     1.0000 0.82490  0.76520  0.37850  Biso   1.000  C
  C132     1.0000 0.17510  0.26520  0.12150  Biso   1.000  C
  H185     1.0000 0.18700  0.19930  0.59730  Biso   1.000  H
  H186     1.0000 0.81300  0.69930  0.90270  Biso   1.000  H
  H187     1.0000 0.81300  0.80070  0.40270  Biso   1.000  H
  H188     1.0000 0.18700  0.30070  0.09730  Biso   1.000  H
  C133     1.0000 0.18710  0.23590  0.68760  Biso   1.000  C
  C134     1.0000 0.81290  0.73590  0.81240  Biso   1.000  C
  C135     1.0000 0.81290  0.76410  0.31240  Biso   1.000  C
  C136     1.0000 0.18710  0.26410  0.18760  Biso   1.000  C
  C137     1.0000 0.16780  0.28080  0.71330  Biso   1.000  C
  C138     1.0000 0.83220  0.78080  0.78670  Biso   1.000  C
  C139     1.0000 0.83220  0.71920  0.28670  Biso   1.000  C
  C140     1.0000 0.16780  0.21920  0.21330  Biso   1.000  C
  H189     1.0000 0.17190  0.28190  0.76050  Biso   1.000  H
  H190     1.0000 0.82810  0.78190  0.73950  Biso   1.000  H
  H191     1.0000 0.82810  0.71810  0.23950  Biso   1.000  H
  H192     1.0000 0.17190  0.21810  0.26050  Biso   1.000  H
  C141     1.0000 0.13820  0.33490  0.67820  Biso   1.000  C
  C142     1.0000 0.86180  0.83490  0.82180  Biso   1.000  C
  C143     1.0000 0.86180  0.66510  0.32180  Biso   1.000  C
  C144     1.0000 0.13820  0.16510  0.17820  Biso   1.000  C
  H193     1.0000 0.13490  0.37270  0.70180  Biso   1.000  H
  H194     1.0000 0.86510  0.87270  0.79820  Biso   1.000  H
  H195     1.0000 0.86510  0.62730  0.29820  Biso   1.000  H
  H196     1.0000 0.13490  0.12730  0.20180  Biso   1.000  H
  C145     1.0000 0.11740  0.33270  0.61840  Biso   1.000  C
  C146     1.0000 0.88260  0.83270  0.88160  Biso   1.000  C
  C147     1.0000 0.88260  0.66730  0.38160  Biso   1.000  C
  C148     1.0000 0.11740  0.16730  0.11840  Biso   1.000  C
  C149     1.0000 0.98300  0.56510  0.77670  Biso   1.000  C
  C150     1.0000 0.01700  0.06510  0.72330  Biso   1.000  C
  C151     1.0000 0.01700  0.43490  0.22330  Biso   1.000  C
  C152     1.0000 0.98300  0.93490  0.27670  Biso   1.000  C
  H197     1.0000 0.96650  0.59660  0.74440  Biso   1.000  H
  H198     1.0000 0.03350  0.09660  0.75560  Biso   1.000  H
  H199     1.0000 0.03350  0.40340  0.25560  Biso   1.000  H
  H200     1.0000 0.96650  0.90340  0.24440  Biso   1.000  H
  H201     1.0000 0.97970  0.58060  0.82200  Biso   1.000  H
  H202     1.0000 0.02030  0.08060  0.67800  Biso   1.000  H
  H203     1.0000 0.02030  0.41940  0.17800  Biso   1.000  H
  H204     1.0000 0.97970  0.91940  0.32200  Biso   1.000  H
  H205     1.0000 0.95650  0.52720  0.76980  Biso   1.000  H
  H206     1.0000 0.04350  0.02720  0.73020  Biso   1.000  H
  H207     1.0000 0.04350  0.47280  0.23020  Biso   1.000  H
  H208     1.0000 0.95650  0.97280  0.26980  Biso   1.000  H
  C153     1.0000 0.05080  0.55150  0.76790  Biso   1.000  C
  C154     1.0000 0.94920  0.05150  0.73210  Biso   1.000  C
  C155     1.0000 0.94920  0.44850  0.23210  Biso   1.000  C
  C156     1.0000 0.05080  0.94850  0.26790  Biso   1.000  C
  C157     1.0000 0.09530  0.50690  0.80200  Biso   1.000  C
  C158     1.0000 0.90470  0.00690  0.69800  Biso   1.000  C
  C159     1.0000 0.90470  0.49310  0.19800  Biso   1.000  C
  C160     1.0000 0.09530  0.99310  0.30200  Biso   1.000  C
  H209     1.0000 0.13790  0.50800  0.78300  Biso   1.000  H
  H210     1.0000 0.86210  0.00800  0.71700  Biso   1.000  H
  H211     1.0000 0.86210  0.49200  0.21700  Biso   1.000  H
  H212     1.0000 0.13790  0.99200  0.28300  Biso   1.000  H
  H213     1.0000 0.07620  0.46520  0.79660  Biso   1.000  H
  H214     1.0000 0.92380  0.96520  0.70340  Biso   1.000  H
  H215     1.0000 0.92380  0.53480  0.20340  Biso   1.000  H
  H216     1.0000 0.07620  0.03480  0.29660  Biso   1.000  H
  H217     1.0000 0.10170  0.51730  0.84950  Biso   1.000  H
  H218     1.0000 0.89830  0.01730  0.65050  Biso   1.000  H
  H219     1.0000 0.89830  0.48270  0.15050  Biso   1.000  H
  H220     1.0000 0.10170  0.98270  0.34950  Biso   1.000  H
  C161     1.0000 0.97670  0.69720  0.62040  Biso   1.000  C
  C162     1.0000 0.02330  0.19720  0.87960  Biso   1.000  C
  C163     1.0000 0.02330  0.30280  0.37960  Biso   1.000  C
  C164     1.0000 0.97670  0.80280  0.12040  Biso   1.000  C
  H221     1.0000 0.95060  0.68070  0.58100  Biso   1.000  H
  H222     1.0000 0.04940  0.18070  0.91900  Biso   1.000  H
  H223     1.0000 0.04940  0.31930  0.41900  Biso   1.000  H
  H224     1.0000 0.95060  0.81930  0.08100  Biso   1.000  H
  H225     1.0000 0.96520  0.74080  0.62650  Biso   1.000  H
  H226     1.0000 0.03480  0.24080  0.87350  Biso   1.000  H
  H227     1.0000 0.03480  0.25920  0.37350  Biso   1.000  H
  H228     1.0000 0.96520  0.75920  0.12650  Biso   1.000  H
  H229     1.0000 0.96720  0.67340  0.65980  Biso   1.000  H
  H230     1.0000 0.03280  0.17340  0.84020  Biso   1.000  H
  H231     1.0000 0.03280  0.32660  0.34020  Biso   1.000  H
  H232     1.0000 0.96720  0.82660  0.15980  Biso   1.000  H
  C165     1.0000 0.04680  0.69220  0.61130  Biso   1.000  C
  C166     1.0000 0.95320  0.19220  0.88870  Biso   1.000  C
  C167     1.0000 0.95320  0.30780  0.38870  Biso   1.000  C
  C168     1.0000 0.04680  0.80780  0.11130  Biso   1.000  C
  H233     1.0000 0.04980  0.72170  0.57330  Biso   1.000  H
  H234     1.0000 0.95020  0.22170  0.92670  Biso   1.000  H
  H235     1.0000 0.95020  0.27830  0.42670  Biso   1.000  H
  H236     1.0000 0.04980  0.77830  0.07330  Biso   1.000  H
  C169     1.0000 0.10440  0.71450  0.65840  Biso   1.000  C
  C170     1.0000 0.89560  0.21450  0.84160  Biso   1.000  C
  C171     1.0000 0.89560  0.28550  0.34160  Biso   1.000  C
  C172     1.0000 0.10440  0.78550  0.15840  Biso   1.000  C
  H237     1.0000 0.14580  0.70720  0.63830  Biso   1.000  H
  H238     1.0000 0.85420  0.20720  0.86170  Biso   1.000  H
  H239     1.0000 0.85420  0.29280  0.36170  Biso   1.000  H
  H240     1.0000 0.14580  0.79280  0.13830  Biso   1.000  H
  H241     1.0000 0.10510  0.69180  0.70050  Biso   1.000  H
  H242     1.0000 0.89490  0.19180  0.79950  Biso   1.000  H
  H243     1.0000 0.89490  0.30820  0.29950  Biso   1.000  H
  H244     1.0000 0.10510  0.80820  0.20050  Biso   1.000  H
  H245     1.0000 0.09940  0.75900  0.66680  Biso   1.000  H
  H246     1.0000 0.90060  0.25900  0.83320  Biso   1.000  H
  H247     1.0000 0.90060  0.24100  0.33320  Biso   1.000  H
  H248     1.0000 0.09940  0.74100  0.16680  Biso   1.000  H
  C173     1.0000 0.06280  0.79210  0.41700  Biso   1.000  C
  C174     1.0000 0.93720  0.29210  0.08300  Biso   1.000  C
  C175     1.0000 0.93720  0.20790  0.58300  Biso   1.000  C
  C176     1.0000 0.06280  0.70790  0.91700  Biso   1.000  C
  H249     1.0000 0.07190  0.83310  0.39890  Biso   1.000  H
  H250     1.0000 0.92810  0.33310  0.10110  Biso   1.000  H
  H251     1.0000 0.92810  0.16690  0.60110  Biso   1.000  H
  H252     1.0000 0.07190  0.66690  0.89890  Biso   1.000  H
  H253     1.0000 0.03650  0.79680  0.45510  Biso   1.000  H
  H254     1.0000 0.96350  0.29680  0.04490  Biso   1.000  H
  H255     1.0000 0.96350  0.20320  0.54490  Biso   1.000  H
  H256     1.0000 0.03650  0.70320  0.95510  Biso   1.000  H
  H257     1.0000 0.03810  0.76710  0.38250  Biso   1.000  H
  H258     1.0000 0.96190  0.26710  0.11750  Biso   1.000  H
  H259     1.0000 0.96190  0.23290  0.61750  Biso   1.000  H
  H260     1.0000 0.03810  0.73290  0.88250  Biso   1.000  H
  C177     1.0000 0.12740  0.76020  0.43940  Biso   1.000  C
  C178     1.0000 0.87260  0.26020  0.06060  Biso   1.000  C
  C179     1.0000 0.87260  0.23980  0.56060  Biso   1.000  C
  C180     1.0000 0.12740  0.73980  0.93940  Biso   1.000  C
  H261     1.0000 0.15250  0.75430  0.39940  Biso   1.000  H
  H262     1.0000 0.84750  0.25430  0.10060  Biso   1.000  H
  H263     1.0000 0.84750  0.24570  0.60060  Biso   1.000  H
  H264     1.0000 0.15250  0.74570  0.89940  Biso   1.000  H
  C181     1.0000 0.16990  0.79090  0.48990  Biso   1.000  C
  C182     1.0000 0.83010  0.29090  0.01010  Biso   1.000  C
  C183     1.0000 0.83010  0.20910  0.51010  Biso   1.000  C
  C184     1.0000 0.16990  0.70910  0.98990  Biso   1.000  C
  H265     1.0000 0.21000  0.76620  0.50030  Biso   1.000  H
  H266     1.0000 0.79000  0.26620  0.99970  Biso   1.000  H
  H267     1.0000 0.79000  0.23380  0.49970  Biso   1.000  H
  H268     1.0000 0.21000  0.73380  0.00030  Biso   1.000  H
  H269     1.0000 0.14680  0.79580  0.53020  Biso   1.000  H
  H270     1.0000 0.85320  0.29580  0.96980  Biso   1.000  H
  H271     1.0000 0.85320  0.20420  0.46980  Biso   1.000  H
  H272     1.0000 0.14680  0.70420  0.03020  Biso   1.000  H
  H273     1.0000 0.18200  0.83190  0.47370  Biso   1.000  H
  H274     1.0000 0.81800  0.33190  0.02630  Biso   1.000  H
  H275     1.0000 0.81800  0.16810  0.52630  Biso   1.000  H
  H276     1.0000 0.18200  0.66810  0.97370  Biso   1.000  H
  C185     1.0000 0.09210  0.62110  0.30420  Biso   1.000  C
  C186     1.0000 0.90790  0.12110  0.19580  Biso   1.000  C
  C187     1.0000 0.90790  0.37890  0.69580  Biso   1.000  C
  C188     1.0000 0.09210  0.87890  0.80420  Biso   1.000  C
  H277     1.0000 0.04960  0.59930  0.30210  Biso   1.000  H
  H278     1.0000 0.95040  0.09930  0.19790  Biso   1.000  H
  H279     1.0000 0.95040  0.40070  0.69790  Biso   1.000  H
  H280     1.0000 0.04960  0.90070  0.80210  Biso   1.000  H
  H281     1.0000 0.10610  0.62550  0.25920  Biso   1.000  H
  H282     1.0000 0.89390  0.12550  0.24080  Biso   1.000  H
  H283     1.0000 0.89390  0.37450  0.74080  Biso   1.000  H
  H284     1.0000 0.10610  0.87450  0.75920  Biso   1.000  H
  H285     1.0000 0.08740  0.66220  0.32390  Biso   1.000  H
  H286     1.0000 0.91260  0.16220  0.17610  Biso   1.000  H
  H287     1.0000 0.91260  0.33780  0.67610  Biso   1.000  H
  H288     1.0000 0.08740  0.83780  0.82390  Biso   1.000  H
  C189     1.0000 0.14300  0.58480  0.34630  Biso   1.000  C
  C190     1.0000 0.85700  0.08480  0.15370  Biso   1.000  C
  C191     1.0000 0.85700  0.41520  0.65370  Biso   1.000  C
  C192     1.0000 0.14300  0.91520  0.84630  Biso   1.000  C
  H289     1.0000 0.14540  0.54400  0.32310  Biso   1.000  H
  H290     1.0000 0.85460  0.04400  0.17690  Biso   1.000  H
  H291     1.0000 0.85460  0.45600  0.67690  Biso   1.000  H
  H292     1.0000 0.14540  0.95600  0.82310  Biso   1.000  H
  C193     1.0000 0.21430  0.60770  0.35620  Biso   1.000  C
  C194     1.0000 0.78570  0.10770  0.14380  Biso   1.000  C
  C195     1.0000 0.78570  0.39230  0.64380  Biso   1.000  C
  C196     1.0000 0.21430  0.89230  0.85620  Biso   1.000  C
  H293     1.0000 0.24120  0.57780  0.38340  Biso   1.000  H
  H294     1.0000 0.75880  0.07780  0.11660  Biso   1.000  H
  H295     1.0000 0.75880  0.42220  0.61660  Biso   1.000  H
  H296     1.0000 0.24120  0.92220  0.88340  Biso   1.000  H
  H297     1.0000 0.21560  0.64800  0.37880  Biso   1.000  H
  H298     1.0000 0.78440  0.14800  0.12120  Biso   1.000  H
  H299     1.0000 0.78440  0.35200  0.62120  Biso   1.000  H
  H300     1.0000 0.21560  0.85200  0.87880  Biso   1.000  H
  H301     1.0000 0.23180  0.61210  0.31270  Biso   1.000  H
  H302     1.0000 0.76820  0.11210  0.18730  Biso   1.000  H
  H303     1.0000 0.76820  0.38790  0.68730  Biso   1.000  H
  H304     1.0000 0.23180  0.88790  0.81270  Biso   1.000  H
  C197     1.0000 0.24830  0.41870  0.32130  Biso   1.000  C
  C198     1.0000 0.75170  0.91870  0.17870  Biso   1.000  C
  C199     1.0000 0.75170  0.58130  0.67870  Biso   1.000  C
  C200     1.0000 0.24830  0.08130  0.82130  Biso   1.000  C
  H305     1.0000 0.29100  0.39830  0.31840  Biso   1.000  H
  H306     1.0000 0.70900  0.89830  0.18160  Biso   1.000  H
  H307     1.0000 0.70900  0.60170  0.68160  Biso   1.000  H
  H308     1.0000 0.29100  0.10170  0.81840  Biso   1.000  H
  H309     1.0000 0.25140  0.46230  0.30800  Biso   1.000  H
  H310     1.0000 0.74860  0.96230  0.19200  Biso   1.000  H
  H311     1.0000 0.74860  0.53770  0.69200  Biso   1.000  H
  H312     1.0000 0.25140  0.03770  0.80800  Biso   1.000  H
  H313     1.0000 0.21430  0.39780  0.29170  Biso   1.000  H
  H314     1.0000 0.78570  0.89780  0.20830  Biso   1.000  H
  H315     1.0000 0.78570  0.60220  0.70830  Biso   1.000  H
  H316     1.0000 0.21430  0.10220  0.79170  Biso   1.000  H
  C201     1.0000 0.23120  0.41560  0.38750  Biso   1.000  C
  C202     1.0000 0.76880  0.91560  0.11250  Biso   1.000  C
  C203     1.0000 0.76880  0.58440  0.61250  Biso   1.000  C
  C204     1.0000 0.23120  0.08440  0.88750  Biso   1.000  C
  H317     1.0000 0.26410  0.44400  0.41170  Biso   1.000  H
  H318     1.0000 0.73590  0.94400  0.08830  Biso   1.000  H
  H319     1.0000 0.73590  0.55600  0.58830  Biso   1.000  H
  H320     1.0000 0.26410  0.05600  0.91170  Biso   1.000  H
  C205     1.0000 0.24280  0.35730  0.42300  Biso   1.000  C
  C206     1.0000 0.75720  0.85730  0.07700  Biso   1.000  C
  C207     1.0000 0.75720  0.64270  0.57700  Biso   1.000  C
  C208     1.0000 0.24280  0.14270  0.92300  Biso   1.000  C
  H321     1.0000 0.28630  0.34100  0.41460  Biso   1.000  H
  H322     1.0000 0.71370  0.84100  0.08540  Biso   1.000  H
  H323     1.0000 0.71370  0.65900  0.58540  Biso   1.000  H
  H324     1.0000 0.28630  0.15900  0.91460  Biso   1.000  H
  H325     1.0000 0.20850  0.32740  0.40730  Biso   1.000  H
  H326     1.0000 0.79150  0.82740  0.09270  Biso   1.000  H
  H327     1.0000 0.79150  0.67260  0.59270  Biso   1.000  H
  H328     1.0000 0.20850  0.17260  0.90730  Biso   1.000  H
  H329     1.0000 0.24130  0.36430  0.47090  Biso   1.000  H
  H330     1.0000 0.75870  0.86430  0.02910  Biso   1.000  H
  H331     1.0000 0.75870  0.63570  0.52910  Biso   1.000  H
  H332     1.0000 0.24130  0.13570  0.97090  Biso   1.000  H
  O1       1.0000 0.51570  0.50330  0.21666  Biso   1.000  O
  O2       1.0000 0.48430  0.00330  0.28334  Biso   1.000  O
  O3       1.0000 0.48430  0.49670  0.78334  Biso   1.000  O
  O4       1.0000 0.51570  0.99670  0.71666  Biso   1.000  O
  O5       1.0000 0.49250  0.61393  0.19366  Biso   1.000  O
  O6       1.0000 0.50750  0.11393  0.30634  Biso   1.000  O
  O7       1.0000 0.50750  0.38607  0.80634  Biso   1.000  O
  O8       1.0000 0.49250  0.88607  0.69366  Biso   1.000  O
  O9       1.0000 0.60440  0.57194  0.18031  Biso   1.000  O
  O10      1.0000 0.39560  0.07194  0.31969  Biso   1.000  O
  O11      1.0000 0.39560  0.42806  0.81969  Biso   1.000  O
  O12      1.0000 0.60440  0.92806  0.68031  Biso   1.000  O
  O13      1.0000 0.59520  0.39200  0.00230  Biso   1.000  O
  O14      1.0000 0.40480  0.89200  0.49770  Biso   1.000  O
  O15      1.0000 0.40480  0.60800  0.99770  Biso   1.000  O
  O16      1.0000 0.59520  0.10800  0.50230  Biso   1.000  O
  O17      1.0000 0.54083  0.41471  0.10913  Biso   1.000  O
  O18      1.0000 0.45917  0.91471  0.39087  Biso   1.000  O
  O19      1.0000 0.45917  0.58529  0.89087  Biso   1.000  O
  O20      1.0000 0.54083  0.08529  0.60913  Biso   1.000  O
  O21      1.0000 0.63306  0.48717  0.07382  Biso   1.000  O
  O22      1.0000 0.36694  0.98717  0.42618  Biso   1.000  O
  O23      1.0000 0.36694  0.51283  0.92618  Biso   1.000  O
  O24      1.0000 0.63306  0.01283  0.57382  Biso   1.000  O
  O25      1.0000 0.50611  0.53678  0.07977  Biso   1.000  O
  O26      1.0000 0.49389  0.03678  0.42023  Biso   1.000  O
  O27      1.0000 0.49389  0.46322  0.92023  Biso   1.000  O
  O28      1.0000 0.50611  0.96322  0.57977  Biso   1.000  O
  O29      1.0000 0.41770  0.43501  0.03248  Biso   1.000  O
  O30      1.0000 0.58230  0.93501  0.46752  Biso   1.000  O
  O31      1.0000 0.58230  0.56499  0.96752  Biso   1.000  O
  O32      1.0000 0.41770  0.06499  0.53248  Biso   1.000  O
  O33      1.0000 0.67110  0.61330  0.07020  Biso   1.000  O
  O34      1.0000 0.32890  0.11330  0.42980  Biso   1.000  O
  O35      1.0000 0.32890  0.38670  0.92980  Biso   1.000  O
  O36      1.0000 0.67110  0.88670  0.57020  Biso   1.000  O
  O37      1.0000 0.53130  0.64772  0.06394  Biso   1.000  O
  O38      1.0000 0.46870  0.14772  0.43606  Biso   1.000  O
  O39      1.0000 0.46870  0.35228  0.93606  Biso   1.000  O
  O40      1.0000 0.53130  0.85228  0.56394  Biso   1.000  O
  O41      1.0000 0.40140  0.67560  0.11320  Biso   1.000  O
  O42      1.0000 0.59860  0.17560  0.38680  Biso   1.000  O
  O43      1.0000 0.59860  0.32440  0.88680  Biso   1.000  O
  O44      1.0000 0.40140  0.82440  0.61320  Biso   1.000  O
  O45      1.0000 0.39450  0.53731  0.12060  Biso   1.000  O
  O46      1.0000 0.60550  0.03731  0.37940  Biso   1.000  O
  O47      1.0000 0.60550  0.46269  0.87940  Biso   1.000  O
  O48      1.0000 0.39450  0.96269  0.62060  Biso   1.000  O
  O49      1.0000 0.42160  0.41060  0.16950  Biso   1.000  O
  O50      1.0000 0.57840  0.91060  0.33050  Biso   1.000  O
  O51      1.0000 0.57840  0.58940  0.83050  Biso   1.000  O
  O52      1.0000 0.42160  0.08940  0.66950  Biso   1.000  O
  O53      1.0000 0.21193  0.50313  0.51600  Biso   1.000  O
  O54      1.0000 0.78807  0.00313  0.98400  Biso   1.000  O
  O55      1.0000 0.78807  0.49687  0.48400  Biso   1.000  O
  O56      1.0000 0.21193  0.99687  0.01600  Biso   1.000  O
  O57      1.0000 0.19220  0.61447  0.53120  Biso   1.000  O
  O58      1.0000 0.80780  0.11447  0.96880  Biso   1.000  O
  O59      1.0000 0.80780  0.38553  0.46880  Biso   1.000  O
  O60      1.0000 0.19220  0.88553  0.03120  Biso   1.000  O
  O61      1.0000 0.18017  0.54260  0.62490  Biso   1.000  O
  O62      1.0000 0.81983  0.04260  0.87510  Biso   1.000  O
  O63      1.0000 0.81983  0.45740  0.37510  Biso   1.000  O
  O64      1.0000 0.18017  0.95740  0.12490  Biso   1.000  O
  O65      1.0000 0.10826  0.40915  0.51140  Biso   1.000  O
  O66      1.0000 0.89174  0.90915  0.98860  Biso   1.000  O
  O67      1.0000 0.89174  0.59085  0.48860  Biso   1.000  O
  O68      1.0000 0.10826  0.09085  0.01140  Biso   1.000  O
  O69      1.0000 0.07190  0.45026  0.62238  Biso   1.000  O
  O70      1.0000 0.92810  0.95026  0.87762  Biso   1.000  O
  O71      1.0000 0.92810  0.54974  0.37762  Biso   1.000  O
  O72      1.0000 0.07190  0.04974  0.12238  Biso   1.000  O
  O73      1.0000 0.00235  0.36947  0.55480  Biso   1.000  O
  O74      1.0000 0.99765  0.86947  0.94520  Biso   1.000  O
  O75      1.0000 0.99765  0.63053  0.44520  Biso   1.000  O
  O76      1.0000 0.00235  0.13053  0.05480  Biso   1.000  O
  O77      1.0000 0.07825  0.53570  0.51802  Biso   1.000  O
  O78      1.0000 0.92175  0.03570  0.98198  Biso   1.000  O
  O79      1.0000 0.92175  0.46430  0.48198  Biso   1.000  O
  O80      1.0000 0.07825  0.96430  0.01802  Biso   1.000  O
  O81      1.0000 0.96718  0.53645  0.60070  Biso   1.000  O
  O82      1.0000 0.03282  0.03645  0.89930  Biso   1.000  O
  O83      1.0000 0.03282  0.46355  0.39930  Biso   1.000  O
  O84      1.0000 0.96718  0.96355  0.10070  Biso   1.000  O
  O85      1.0000 0.16980  0.44480  0.39680  Biso   1.000  O
  O86      1.0000 0.83020  0.94480  0.10320  Biso   1.000  O
  O87      1.0000 0.83020  0.55520  0.60320  Biso   1.000  O
  O88      1.0000 0.16980  0.05520  0.89680  Biso   1.000  O
  O89      1.0000 0.12022  0.56973  0.41230  Biso   1.000  O
  O90      1.0000 0.87978  0.06973  0.08770  Biso   1.000  O
  O91      1.0000 0.87978  0.43027  0.58770  Biso   1.000  O
  O92      1.0000 0.12022  0.93027  0.91230  Biso   1.000  O
  O93      1.0000 0.11060  0.69990  0.46350  Biso   1.000  O
  O94      1.0000 0.88940  0.19990  0.03650  Biso   1.000  O
  O95      1.0000 0.88940  0.30010  0.53650  Biso   1.000  O
  O96      1.0000 0.11060  0.80010  0.96350  Biso   1.000  O
  O97      1.0000 0.06405  0.63347  0.57950  Biso   1.000  O
  O98      1.0000 0.93595  0.13347  0.92050  Biso   1.000  O
  O99      1.0000 0.93595  0.36653  0.42050  Biso   1.000  O
  O100     1.0000 0.06405  0.86653  0.07950  Biso   1.000  O
  O101     1.0000 0.06890  0.55890  0.70250  Biso   1.000  O
  O102     1.0000 0.93110  0.05890  0.79750  Biso   1.000  O
  O103     1.0000 0.93110  0.44110  0.29750  Biso   1.000  O
  O104     1.0000 0.06890  0.94110  0.20250  Biso   1.000  O
