data_image0
_cell_length_a       11.754
_cell_length_b       19.794
_cell_length_c       29.926
_cell_angle_alpha    90
_cell_angle_beta     90
_cell_angle_gamma    90

_symmetry_space_group_name_H-M    "P 1"
_symmetry_int_tables_number       1

loop_
  _symmetry_equiv_pos_as_xyz
  'x, y, z'

loop_
  _atom_site_label
  _atom_site_occupancy
  _atom_site_fract_x
  _atom_site_fract_y
  _atom_site_fract_z
  _atom_site_thermal_displace_type
  _atom_site_B_iso_or_equiv
  _atom_site_type_symbol
  S1       1.0000 0.72890  0.14250  0.09739  Biso   1.000  S
  S2       1.0000 0.22890  0.35750  0.90261  Biso   1.000  S
  S3       1.0000 0.27110  0.64250  0.40261  Biso   1.000  S
  S4       1.0000 0.77110  0.85750  0.59739  Biso   1.000  S
  O1       1.0000 0.81680  0.10310  0.12490  Biso   1.000  O
  O2       1.0000 0.31680  0.39690  0.87510  Biso   1.000  O
  O3       1.0000 0.18320  0.60310  0.37510  Biso   1.000  O
  O4       1.0000 0.68320  0.89690  0.62490  Biso   1.000  O
  O5       1.0000 0.72720  0.21050  0.11380  Biso   1.000  O
  O6       1.0000 0.22720  0.28950  0.88620  Biso   1.000  O
  O7       1.0000 0.27280  0.71050  0.38620  Biso   1.000  O
  O8       1.0000 0.77280  0.78950  0.61380  Biso   1.000  O
  O9       1.0000 0.61980  0.10840  0.10170  Biso   1.000  O
  O10      1.0000 0.11980  0.39160  0.89830  Biso   1.000  O
  O11      1.0000 0.38020  0.60840  0.39830  Biso   1.000  O
  O12      1.0000 0.88020  0.89160  0.60170  Biso   1.000  O
  O13      1.0000 0.76700  0.13730  0.05110  Biso   1.000  O
  O14      1.0000 0.26700  0.36270  0.94890  Biso   1.000  O
  O15      1.0000 0.23300  0.63730  0.44890  Biso   1.000  O
  O16      1.0000 0.73300  0.86270  0.55110  Biso   1.000  O
  Cu1      1.0000 0.44150  0.14524  0.12236  Biso   1.000  Cu
  Cu2      1.0000 0.94150  0.35476  0.87764  Biso   1.000  Cu
  Cu3      1.0000 0.55850  0.64524  0.37764  Biso   1.000  Cu
  Cu4      1.0000 0.05850  0.85476  0.62236  Biso   1.000  Cu
  N1       1.0000 0.37930  0.15140  0.06350  Biso   1.000  N
  N2       1.0000 0.87930  0.34860  0.93650  Biso   1.000  N
  N3       1.0000 0.62070  0.65140  0.43650  Biso   1.000  N
  N4       1.0000 0.12070  0.84860  0.56350  Biso   1.000  N
  N5       1.0000 0.35680  0.05850  0.12170  Biso   1.000  N
  N6       1.0000 0.85680  0.44150  0.87830  Biso   1.000  N
  N7       1.0000 0.64320  0.55850  0.37830  Biso   1.000  N
  N8       1.0000 0.14320  0.94150  0.62170  Biso   1.000  N
  N9       1.0000 0.48440  0.24220  0.11300  Biso   1.000  N
  N10      1.0000 0.98440  0.25780  0.88700  Biso   1.000  N
  N11      1.0000 0.51560  0.74220  0.38700  Biso   1.000  N
  N12      1.0000 0.01560  0.75780  0.61300  Biso   1.000  N
  C1       1.0000 0.31190  0.10710  0.04640  Biso   1.000  C
  C2       1.0000 0.81190  0.39290  0.95360  Biso   1.000  C
  C3       1.0000 0.68810  0.60710  0.45360  Biso   1.000  C
  C4       1.0000 0.18810  0.89290  0.54640  Biso   1.000  C
  C5       1.0000 0.25720  0.11300  0.00600  Biso   1.000  C
  C6       1.0000 0.75720  0.38700  0.99400  Biso   1.000  C
  C7       1.0000 0.74280  0.61300  0.49400  Biso   1.000  C
  C8       1.0000 0.24280  0.88700  0.50600  Biso   1.000  C
  C9       1.0000 0.27500  0.17050  0.98210  Biso   1.000  C
  C10      1.0000 0.77500  0.32950  0.01790  Biso   1.000  C
  C11      1.0000 0.72500  0.67050  0.51790  Biso   1.000  C
  C12      1.0000 0.22500  0.82950  0.48210  Biso   1.000  C
  C13      1.0000 0.34890  0.22480  0.99810  Biso   1.000  C
  C14      1.0000 0.84890  0.27520  0.00190  Biso   1.000  C
  C15      1.0000 0.65110  0.72480  0.50190  Biso   1.000  C
  C16      1.0000 0.15110  0.77520  0.49810  Biso   1.000  C
  C17      1.0000 0.39890  0.21130  0.04070  Biso   1.000  C
  C18      1.0000 0.89890  0.28870  0.95930  Biso   1.000  C
  C19      1.0000 0.60110  0.71130  0.45930  Biso   1.000  C
  C20      1.0000 0.10110  0.78870  0.54070  Biso   1.000  C
  C21      1.0000 0.29460  0.04620  0.07630  Biso   1.000  C
  C22      1.0000 0.79460  0.45380  0.92370  Biso   1.000  C
  C23      1.0000 0.70540  0.54620  0.42370  Biso   1.000  C
  C24      1.0000 0.20540  0.95380  0.57630  Biso   1.000  C
  C25      1.0000 0.35400  0.98040  0.05970  Biso   1.000  C
  C26      1.0000 0.85400  0.51960  0.94030  Biso   1.000  C
  C27      1.0000 0.64600  0.48040  0.44030  Biso   1.000  C
  C28      1.0000 0.14600  0.01960  0.55970  Biso   1.000  C
  C29      1.0000 0.37200  0.93700  0.10120  Biso   1.000  C
  C30      1.0000 0.87200  0.56300  0.89880  Biso   1.000  C
  C31      1.0000 0.62800  0.43700  0.39880  Biso   1.000  C
  C32      1.0000 0.12800  0.06300  0.60120  Biso   1.000  C
  C33      1.0000 0.42020  0.99490  0.12870  Biso   1.000  C
  C34      1.0000 0.92020  0.50510  0.87130  Biso   1.000  C
  C35      1.0000 0.57980  0.49490  0.37130  Biso   1.000  C
  C36      1.0000 0.07980  0.00510  0.62870  Biso   1.000  C
  C37      1.0000 0.47900  0.25940  0.06400  Biso   1.000  C
  C38      1.0000 0.97900  0.24060  0.93600  Biso   1.000  C
  C39      1.0000 0.52100  0.75940  0.43600  Biso   1.000  C
  C40      1.0000 0.02100  0.74060  0.56400  Biso   1.000  C
  C41      1.0000 0.44600  0.33530  0.06100  Biso   1.000  C
  C42      1.0000 0.94600  0.16470  0.93900  Biso   1.000  C
  C43      1.0000 0.55400  0.83530  0.43900  Biso   1.000  C
  C44      1.0000 0.05400  0.66470  0.56100  Biso   1.000  C
  C45      1.0000 0.38900  0.35110  0.10250  Biso   1.000  C
  C46      1.0000 0.88900  0.14890  0.89750  Biso   1.000  C
  C47      1.0000 0.61100  0.85110  0.39750  Biso   1.000  C
  C48      1.0000 0.11100  0.64890  0.60250  Biso   1.000  C
  C49      1.0000 0.41170  0.29370  0.13730  Biso   1.000  C
  C50      1.0000 0.91170  0.20630  0.86270  Biso   1.000  C
  C51      1.0000 0.58830  0.79370  0.36270  Biso   1.000  C
  C52      1.0000 0.08830  0.70630  0.63730  Biso   1.000  C
  S5       1.0000 0.05550  0.99090  0.15747  Biso   1.000  S
  S6       1.0000 0.55550  0.50910  0.84253  Biso   1.000  S
  S7       1.0000 0.94450  0.49090  0.34253  Biso   1.000  S
  S8       1.0000 0.44450  0.00910  0.65747  Biso   1.000  S
  O17      1.0000 0.14170  0.04310  0.16620  Biso   1.000  O
  O18      1.0000 0.64170  0.45690  0.83380  Biso   1.000  O
  O19      1.0000 0.85830  0.54310  0.33380  Biso   1.000  O
  O20      1.0000 0.35830  0.95690  0.66620  Biso   1.000  O
  O21      1.0000 0.95270  0.01220  0.18130  Biso   1.000  O
  O22      1.0000 0.45270  0.48780  0.81870  Biso   1.000  O
  O23      1.0000 0.04730  0.51220  0.31870  Biso   1.000  O
  O24      1.0000 0.54730  0.98780  0.68130  Biso   1.000  O
  O25      1.0000 0.03550  0.98770  0.10980  Biso   1.000  O
  O26      1.0000 0.53550  0.51230  0.89020  Biso   1.000  O
  O27      1.0000 0.96450  0.48770  0.39020  Biso   1.000  O
  O28      1.0000 0.46450  0.01230  0.60980  Biso   1.000  O
  O29      1.0000 0.09450  0.92740  0.17290  Biso   1.000  O
  O30      1.0000 0.59450  0.57260  0.82710  Biso   1.000  O
  O31      1.0000 0.90550  0.42740  0.32710  Biso   1.000  O
  O32      1.0000 0.40550  0.07260  0.67290  Biso   1.000  O
  Cu5      1.0000 0.76600  0.02343  0.15717  Biso   1.000  Cu
  Cu6      1.0000 0.26600  0.47657  0.84283  Biso   1.000  Cu
  Cu7      1.0000 0.23400  0.52343  0.34283  Biso   1.000  Cu
  Cu8      1.0000 0.73400  0.97657  0.65717  Biso   1.000  Cu
  N13      1.0000 0.72230  0.94630  0.19140  Biso   1.000  N
  N14      1.0000 0.22230  0.55370  0.80860  Biso   1.000  N
  N15      1.0000 0.27770  0.44630  0.30860  Biso   1.000  N
  N16      1.0000 0.77770  0.05370  0.69140  Biso   1.000  N
  N17      1.0000 0.69650  0.07180  0.20930  Biso   1.000  N
  N18      1.0000 0.19650  0.42820  0.79070  Biso   1.000  N
  N19      1.0000 0.30350  0.57180  0.29070  Biso   1.000  N
  N20      1.0000 0.80350  0.92820  0.70930  Biso   1.000  N
  N21      1.0000 0.79860  0.95230  0.10810  Biso   1.000  N
  N22      1.0000 0.29860  0.54770  0.89190  Biso   1.000  N
  N23      1.0000 0.20140  0.45230  0.39190  Biso   1.000  N
  N24      1.0000 0.70140  0.04770  0.60810  Biso   1.000  N
  C53      1.0000 0.68330  0.95470  0.23190  Biso   1.000  C
  C54      1.0000 0.18330  0.54530  0.76810  Biso   1.000  C
  C55      1.0000 0.31670  0.45470  0.26810  Biso   1.000  C
  C56      1.0000 0.81670  0.04530  0.73190  Biso   1.000  C
  C57      1.0000 0.66910  0.90230  0.26120  Biso   1.000  C
  C58      1.0000 0.16910  0.59770  0.73880  Biso   1.000  C
  C59      1.0000 0.33090  0.40230  0.23880  Biso   1.000  C
  C60      1.0000 0.83090  0.09770  0.76120  Biso   1.000  C
  C61      1.0000 0.68820  0.83830  0.24630  Biso   1.000  C
  C62      1.0000 0.18820  0.66170  0.75370  Biso   1.000  C
  C63      1.0000 0.31180  0.33830  0.25370  Biso   1.000  C
  C64      1.0000 0.81180  0.16170  0.74630  Biso   1.000  C
  C65      1.0000 0.72600  0.82880  0.20330  Biso   1.000  C
  C66      1.0000 0.22600  0.67120  0.79670  Biso   1.000  C
  C67      1.0000 0.27400  0.32880  0.29670  Biso   1.000  C
  C68      1.0000 0.77400  0.17120  0.70330  Biso   1.000  C
  C69      1.0000 0.74910  0.88480  0.17630  Biso   1.000  C
  C70      1.0000 0.24910  0.61520  0.82370  Biso   1.000  C
  C71      1.0000 0.25090  0.38480  0.32370  Biso   1.000  C
  C72      1.0000 0.75090  0.11520  0.67630  Biso   1.000  C
  C73      1.0000 0.64870  0.02670  0.24500  Biso   1.000  C
  C74      1.0000 0.14870  0.47330  0.75500  Biso   1.000  C
  C75      1.0000 0.35130  0.52670  0.25500  Biso   1.000  C
  C76      1.0000 0.85130  0.97330  0.74500  Biso   1.000  C
  C77      1.0000 0.70430  0.05400  0.28750  Biso   1.000  C
  C78      1.0000 0.20430  0.44600  0.71250  Biso   1.000  C
  C79      1.0000 0.29570  0.55400  0.21250  Biso   1.000  C
  C80      1.0000 0.79570  0.94600  0.78750  Biso   1.000  C
  C81      1.0000 0.72950  0.12720  0.28140  Biso   1.000  C
  C82      1.0000 0.22950  0.37280  0.71860  Biso   1.000  C
  C83      1.0000 0.27050  0.62720  0.21860  Biso   1.000  C
  C84      1.0000 0.77050  0.87280  0.78140  Biso   1.000  C
  C85      1.0000 0.76640  0.12180  0.23150  Biso   1.000  C
  C86      1.0000 0.26640  0.37820  0.76850  Biso   1.000  C
  C87      1.0000 0.23360  0.62180  0.26850  Biso   1.000  C
  C88      1.0000 0.73360  0.87820  0.73150  Biso   1.000  C
  C89      1.0000 0.79250  0.88320  0.13130  Biso   1.000  C
  C90      1.0000 0.29250  0.61680  0.86870  Biso   1.000  C
  C91      1.0000 0.20750  0.38320  0.36870  Biso   1.000  C
  C92      1.0000 0.70750  0.11680  0.63130  Biso   1.000  C
  C93      1.0000 0.73000  0.84120  0.09740  Biso   1.000  C
  C94      1.0000 0.23000  0.65880  0.90260  Biso   1.000  C
  C95      1.0000 0.27000  0.34120  0.40260  Biso   1.000  C
  C96      1.0000 0.77000  0.15880  0.59740  Biso   1.000  C
  C97      1.0000 0.73100  0.87660  0.05280  Biso   1.000  C
  C98      1.0000 0.23100  0.62340  0.94720  Biso   1.000  C
  C99      1.0000 0.26900  0.37660  0.44720  Biso   1.000  C
  C100     1.0000 0.76900  0.12340  0.55280  Biso   1.000  C
  C101     1.0000 0.72500  0.95130  0.06870  Biso   1.000  C
  C102     1.0000 0.22500  0.54870  0.93130  Biso   1.000  C
  C103     1.0000 0.27500  0.45130  0.43130  Biso   1.000  C
  C104     1.0000 0.77500  0.04870  0.56870  Biso   1.000  C
  S9       1.0000 0.38800  0.14710  0.22027  Biso   1.000  S
  S10      1.0000 0.88800  0.35290  0.77973  Biso   1.000  S
  S11      1.0000 0.61200  0.64710  0.27973  Biso   1.000  S
  S12      1.0000 0.11200  0.85290  0.72027  Biso   1.000  S
  O33      1.0000 0.48050  0.14740  0.18560  Biso   1.000  O
  O34      1.0000 0.98050  0.35260  0.81440  Biso   1.000  O
  O35      1.0000 0.51950  0.64740  0.31440  Biso   1.000  O
  O36      1.0000 0.01950  0.85260  0.68560  Biso   1.000  O
  O37      1.0000 0.42310  0.19290  0.25510  Biso   1.000  O
  O38      1.0000 0.92310  0.30710  0.74490  Biso   1.000  O
  O39      1.0000 0.57690  0.69290  0.24490  Biso   1.000  O
  O40      1.0000 0.07690  0.80710  0.75510  Biso   1.000  O
  O41      1.0000 0.28140  0.16880  0.19870  Biso   1.000  O
  O42      1.0000 0.78140  0.33120  0.80130  Biso   1.000  O
  O43      1.0000 0.71860  0.66880  0.30130  Biso   1.000  O
  O44      1.0000 0.21860  0.83120  0.69870  Biso   1.000  O
  O45      1.0000 0.37820  0.07980  0.23920  Biso   1.000  O
  O46      1.0000 0.87820  0.42020  0.76080  Biso   1.000  O
  O47      1.0000 0.62180  0.57980  0.26080  Biso   1.000  O
  O48      1.0000 0.12180  0.92020  0.73920  Biso   1.000  O
  Cu9      1.0000 0.09970  0.11512  0.20610  Biso   1.000  Cu
  Cu10     1.0000 0.59970  0.38488  0.79390  Biso   1.000  Cu
  Cu11     1.0000 0.90030  0.61512  0.29390  Biso   1.000  Cu
  Cu12     1.0000 0.40030  0.88488  0.70610  Biso   1.000  Cu
  N25      1.0000 0.04640  0.18450  0.24660  Biso   1.000  N
  N26      1.0000 0.54640  0.31550  0.75340  Biso   1.000  N
  N27      1.0000 0.95360  0.68450  0.25340  Biso   1.000  N
  N28      1.0000 0.45360  0.81550  0.74660  Biso   1.000  N
  N29      1.0000 0.02090  0.17400  0.16010  Biso   1.000  N
  N30      1.0000 0.52090  0.32600  0.83990  Biso   1.000  N
  N31      1.0000 0.97910  0.67400  0.33990  Biso   1.000  N
  N32      1.0000 0.47910  0.82600  0.66010  Biso   1.000  N
  N33      1.0000 0.13820  0.06680  0.26440  Biso   1.000  N
  N34      1.0000 0.63820  0.43320  0.73560  Biso   1.000  N
  N35      1.0000 0.86180  0.56680  0.23560  Biso   1.000  N
  N36      1.0000 0.36180  0.93320  0.76440  Biso   1.000  N
  C105     1.0000 0.99390  0.23770  0.22800  Biso   1.000  C
  C106     1.0000 0.49390  0.26230  0.77200  Biso   1.000  C
  C107     1.0000 0.00610  0.73770  0.27200  Biso   1.000  C
  C108     1.0000 0.50610  0.76230  0.72800  Biso   1.000  C
  C109     1.0000 0.95620  0.28940  0.25760  Biso   1.000  C
  C110     1.0000 0.45620  0.21060  0.74240  Biso   1.000  C
  C111     1.0000 0.04380  0.78940  0.24240  Biso   1.000  C
  C112     1.0000 0.54380  0.71060  0.75760  Biso   1.000  C
  C113     1.0000 0.97100  0.28060  0.30020  Biso   1.000  C
  C114     1.0000 0.47100  0.21940  0.69980  Biso   1.000  C
  C115     1.0000 0.02900  0.78060  0.19980  Biso   1.000  C
  C116     1.0000 0.52900  0.71940  0.80020  Biso   1.000  C
  C117     1.0000 0.02120  0.22390  0.32210  Biso   1.000  C
  C118     1.0000 0.52120  0.27610  0.67790  Biso   1.000  C
  C119     1.0000 0.97880  0.72390  0.17790  Biso   1.000  C
  C120     1.0000 0.47880  0.77610  0.82210  Biso   1.000  C
  C121     1.0000 0.05680  0.17510  0.29010  Biso   1.000  C
  C122     1.0000 0.55680  0.32490  0.70990  Biso   1.000  C
  C123     1.0000 0.94320  0.67510  0.20990  Biso   1.000  C
  C124     1.0000 0.44320  0.82490  0.79010  Biso   1.000  C
  C125     1.0000 0.97790  0.23740  0.18110  Biso   1.000  C
  C126     1.0000 0.47790  0.26260  0.81890  Biso   1.000  C
  C127     1.0000 0.02210  0.73740  0.31890  Biso   1.000  C
  C128     1.0000 0.52210  0.76260  0.68110  Biso   1.000  C
  C129     1.0000 0.04400  0.29480  0.15610  Biso   1.000  C
  C130     1.0000 0.54400  0.20520  0.84390  Biso   1.000  C
  C131     1.0000 0.95600  0.79480  0.34390  Biso   1.000  C
  C132     1.0000 0.45600  0.70520  0.65610  Biso   1.000  C
  C133     1.0000 0.06000  0.26460  0.11050  Biso   1.000  C
  C134     1.0000 0.56000  0.23540  0.88950  Biso   1.000  C
  C135     1.0000 0.94000  0.76460  0.38950  Biso   1.000  C
  C136     1.0000 0.44000  0.73540  0.61050  Biso   1.000  C
  C137     1.0000 0.08590  0.19170  0.11790  Biso   1.000  C
  C138     1.0000 0.58590  0.30830  0.88210  Biso   1.000  C
  C139     1.0000 0.91410  0.69170  0.38210  Biso   1.000  C
  C140     1.0000 0.41410  0.80830  0.61790  Biso   1.000  C
  C141     1.0000 0.12000  0.11170  0.30200  Biso   1.000  C
  C142     1.0000 0.62000  0.38830  0.69800  Biso   1.000  C
  C143     1.0000 0.88000  0.61170  0.19800  Biso   1.000  C
  C144     1.0000 0.38000  0.88830  0.80200  Biso   1.000  C
  C145     1.0000 0.05800  0.07130  0.33820  Biso   1.000  C
  C146     1.0000 0.55800  0.42870  0.66180  Biso   1.000  C
  C147     1.0000 0.94200  0.57130  0.16180  Biso   1.000  C
  C148     1.0000 0.44200  0.92870  0.83820  Biso   1.000  C
  C149     1.0000 0.04300  0.00740  0.32250  Biso   1.000  C
  C150     1.0000 0.54300  0.49260  0.67750  Biso   1.000  C
  C151     1.0000 0.95700  0.50740  0.17750  Biso   1.000  C
  C152     1.0000 0.45700  0.99260  0.82250  Biso   1.000  C
  C153     1.0000 0.07200  0.00420  0.27620  Biso   1.000  C
  C154     1.0000 0.57200  0.49580  0.72380  Biso   1.000  C
  C155     1.0000 0.92800  0.50420  0.22380  Biso   1.000  C
  C156     1.0000 0.42800  0.99580  0.77620  Biso   1.000  C
  O49      1.0000 0.49710  0.49590  0.03550  Biso   1.000  O
  O50      1.0000 0.99710  0.00410  0.96450  Biso   1.000  O
  O51      1.0000 0.50290  0.99590  0.46450  Biso   1.000  O
  O52      1.0000 0.00290  0.50410  0.53550  Biso   1.000  O
  O53      1.0000 0.55900  0.58620  0.99900  Biso   1.000  O
  O54      1.0000 0.05900  0.91380  0.00100  Biso   1.000  O
  O55      1.0000 0.44100  0.08620  0.50100  Biso   1.000  O
  O56      1.0000 0.94100  0.41380  0.49900  Biso   1.000  O
  O57      1.0000 0.69160  0.68280  0.13920  Biso   1.000  O
  O58      1.0000 0.19160  0.81720  0.86080  Biso   1.000  O
  O59      1.0000 0.30840  0.18280  0.36080  Biso   1.000  O
  O60      1.0000 0.80840  0.31720  0.63920  Biso   1.000  O
  O61      1.0000 0.51870  0.66500  0.16690  Biso   1.000  O
  O62      1.0000 0.01870  0.83500  0.83310  Biso   1.000  O
  O63      1.0000 0.48130  0.16500  0.33310  Biso   1.000  O
  O64      1.0000 0.98130  0.33500  0.66690  Biso   1.000  O
  O65      1.0000 0.72430  0.46960  0.08200  Biso   1.000  O
  O66      1.0000 0.22430  0.03040  0.91800  Biso   1.000  O
  O67      1.0000 0.27570  0.96960  0.41800  Biso   1.000  O
  O68      1.0000 0.77570  0.53040  0.58200  Biso   1.000  O
  O69      1.0000 0.58950  0.53280  0.11280  Biso   1.000  O
  O70      1.0000 0.08950  0.96720  0.88720  Biso   1.000  O
  O71      1.0000 0.41050  0.03280  0.38720  Biso   1.000  O
  O72      1.0000 0.91050  0.46720  0.61280  Biso   1.000  O
  O73      1.0000 0.42470  0.75540  0.08320  Biso   1.000  O
  O74      1.0000 0.92470  0.74460  0.91680  Biso   1.000  O
  O75      1.0000 0.57530  0.25540  0.41680  Biso   1.000  O
  O76      1.0000 0.07530  0.24460  0.58320  Biso   1.000  O
  O77      1.0000 0.42830  0.64150  0.08690  Biso   1.000  O
  O78      1.0000 0.92830  0.85850  0.91310  Biso   1.000  O
  O79      1.0000 0.57170  0.14150  0.41310  Biso   1.000  O
  O80      1.0000 0.07170  0.35850  0.58690  Biso   1.000  O
  C157     1.0000 0.60230  0.57680  0.07530  Biso   1.000  C
  C158     1.0000 0.10230  0.92320  0.92470  Biso   1.000  C
  C159     1.0000 0.39770  0.07680  0.42470  Biso   1.000  C
  C160     1.0000 0.89770  0.42320  0.57530  Biso   1.000  C
  C161     1.0000 0.54950  0.64740  0.09020  Biso   1.000  C
  C162     1.0000 0.04950  0.85260  0.90980  Biso   1.000  C
  C163     1.0000 0.45050  0.14740  0.40980  Biso   1.000  C
  C164     1.0000 0.95050  0.35260  0.59020  Biso   1.000  C
  C165     1.0000 0.54900  0.54970  0.03180  Biso   1.000  C
  C166     1.0000 0.04900  0.95030  0.96820  Biso   1.000  C
  C167     1.0000 0.45100  0.04970  0.46820  Biso   1.000  C
  C168     1.0000 0.95100  0.45030  0.53180  Biso   1.000  C
  C169     1.0000 0.59100  0.66890  0.13610  Biso   1.000  C
  C170     1.0000 0.09100  0.83110  0.86390  Biso   1.000  C
  C171     1.0000 0.40900  0.16890  0.36390  Biso   1.000  C
  C172     1.0000 0.90900  0.33110  0.63610  Biso   1.000  C
  C173     1.0000 0.65940  0.47770  0.11390  Biso   1.000  C
  C174     1.0000 0.15940  0.02230  0.88610  Biso   1.000  C
  C175     1.0000 0.34060  0.97770  0.38610  Biso   1.000  C
  C176     1.0000 0.84060  0.52230  0.61390  Biso   1.000  C
  C177     1.0000 0.37200  0.70440  0.08180  Biso   1.000  C
  C178     1.0000 0.87200  0.79560  0.91820  Biso   1.000  C
  C179     1.0000 0.62800  0.20440  0.41820  Biso   1.000  C
  C180     1.0000 0.12800  0.29560  0.58180  Biso   1.000  C
  C181     1.0000 0.65090  0.43870  0.15310  Biso   1.000  C
  C182     1.0000 0.15090  0.06130  0.84690  Biso   1.000  C
  C183     1.0000 0.34910  0.93870  0.34690  Biso   1.000  C
  C184     1.0000 0.84910  0.56130  0.65310  Biso   1.000  C
  C185     1.0000 0.61420  0.46680  0.19290  Biso   1.000  C
  C186     1.0000 0.11420  0.03320  0.80710  Biso   1.000  C
  C187     1.0000 0.38580  0.96680  0.30710  Biso   1.000  C
  C188     1.0000 0.88580  0.53320  0.69290  Biso   1.000  C
  C189     1.0000 0.61310  0.42830  0.22970  Biso   1.000  C
  C190     1.0000 0.11310  0.07170  0.77030  Biso   1.000  C
  C191     1.0000 0.38690  0.92830  0.27030  Biso   1.000  C
  C192     1.0000 0.88690  0.57170  0.72970  Biso   1.000  C
  C193     1.0000 0.65000  0.35940  0.23290  Biso   1.000  C
  C194     1.0000 0.15000  0.14060  0.76710  Biso   1.000  C
  C195     1.0000 0.35000  0.85940  0.26710  Biso   1.000  C
  C196     1.0000 0.85000  0.64060  0.73290  Biso   1.000  C
  C197     1.0000 0.68600  0.33320  0.19220  Biso   1.000  C
  C198     1.0000 0.18600  0.16680  0.80780  Biso   1.000  C
  C199     1.0000 0.31400  0.83320  0.30780  Biso   1.000  C
  C200     1.0000 0.81400  0.66680  0.69220  Biso   1.000  C
  C201     1.0000 0.69300  0.37200  0.15320  Biso   1.000  C
  C202     1.0000 0.19300  0.12800  0.84680  Biso   1.000  C
  C203     1.0000 0.30700  0.87200  0.34680  Biso   1.000  C
  C204     1.0000 0.80700  0.62800  0.65320  Biso   1.000  C
  C205     1.0000 0.64000  0.31740  0.27380  Biso   1.000  C
  C206     1.0000 0.14000  0.18260  0.72620  Biso   1.000  C
  C207     1.0000 0.36000  0.81740  0.22620  Biso   1.000  C
  C208     1.0000 0.86000  0.68260  0.77380  Biso   1.000  C
  C209     1.0000 0.25000  0.69260  0.07200  Biso   1.000  C
  C210     1.0000 0.75000  0.80740  0.92800  Biso   1.000  C
  C211     1.0000 0.75000  0.19260  0.42800  Biso   1.000  C
  C212     1.0000 0.25000  0.30740  0.57200  Biso   1.000  C
  C213     1.0000 0.20300  0.62800  0.06990  Biso   1.000  C
  C214     1.0000 0.70300  0.87200  0.93010  Biso   1.000  C
  C215     1.0000 0.79700  0.12800  0.43010  Biso   1.000  C
  C216     1.0000 0.29700  0.37200  0.56990  Biso   1.000  C
  C217     1.0000 0.08000  0.63070  0.05780  Biso   1.000  C
  C218     1.0000 0.58000  0.86930  0.94220  Biso   1.000  C
  C219     1.0000 0.92000  0.13070  0.44220  Biso   1.000  C
  C220     1.0000 0.42000  0.36930  0.55780  Biso   1.000  C
  C221     1.0000 0.02900  0.69050  0.04780  Biso   1.000  C
  C222     1.0000 0.52900  0.80950  0.95220  Biso   1.000  C
  C223     1.0000 0.97100  0.19050  0.45220  Biso   1.000  C
  C224     1.0000 0.47100  0.30950  0.54780  Biso   1.000  C
  C225     1.0000 0.07300  0.74900  0.05440  Biso   1.000  C
  C226     1.0000 0.57300  0.75100  0.94560  Biso   1.000  C
  C227     1.0000 0.92700  0.24900  0.44560  Biso   1.000  C
  C228     1.0000 0.42700  0.25100  0.55440  Biso   1.000  C
  C229     1.0000 0.18600  0.75280  0.06400  Biso   1.000  C
  C230     1.0000 0.68600  0.74720  0.93600  Biso   1.000  C
  C231     1.0000 0.81400  0.25280  0.43600  Biso   1.000  C
  C232     1.0000 0.31400  0.24720  0.56400  Biso   1.000  C
  C233     1.0000 0.89800  0.67230  0.03560  Biso   1.000  C
  C234     1.0000 0.39800  0.82770  0.96440  Biso   1.000  C
  C235     1.0000 0.10200  0.17230  0.46440  Biso   1.000  C
  C236     1.0000 0.60200  0.32770  0.53560  Biso   1.000  C
  O81      1.0000 0.95990  0.06100  0.03940  Biso   1.000  O
  O82      1.0000 0.45990  0.43900  0.96060  Biso   1.000  O
  O83      1.0000 0.04010  0.56100  0.46060  Biso   1.000  O
  O84      1.0000 0.54010  0.93900  0.53940  Biso   1.000  O
  O85      1.0000 0.61200  0.08800  0.97660  Biso   1.000  O
  O86      1.0000 0.11200  0.41200  0.02340  Biso   1.000  O
  O87      1.0000 0.38800  0.58800  0.52340  Biso   1.000  O
  O88      1.0000 0.88800  0.91200  0.47660  Biso   1.000  O
  H1       1.0000 0.29400  0.06400  0.14700  Biso   1.000  H
  H2       1.0000 0.79400  0.43600  0.85300  Biso   1.000  H
  H3       1.0000 0.70600  0.56400  0.35300  Biso   1.000  H
  H4       1.0000 0.20600  0.93600  0.64700  Biso   1.000  H
  H5       1.0000 0.57200  0.24600  0.12500  Biso   1.000  H
  H6       1.0000 0.07200  0.25400  0.87500  Biso   1.000  H
  H7       1.0000 0.42800  0.74600  0.37500  Biso   1.000  H
  H8       1.0000 0.92800  0.75400  0.62500  Biso   1.000  H
  H9       1.0000 0.20100  0.07400  0.99400  Biso   1.000  H
  H10      1.0000 0.70100  0.42600  0.00600  Biso   1.000  H
  H11      1.0000 0.79900  0.57400  0.50600  Biso   1.000  H
  H12      1.0000 0.29900  0.92600  0.49400  Biso   1.000  H
  H13      1.0000 0.23400  0.17600  0.95000  Biso   1.000  H
  H14      1.0000 0.73400  0.32400  0.05000  Biso   1.000  H
  H15      1.0000 0.76600  0.67600  0.55000  Biso   1.000  H
  H16      1.0000 0.26600  0.82400  0.45000  Biso   1.000  H
  H17      1.0000 0.36400  0.27100  0.98000  Biso   1.000  H
  H18      1.0000 0.86400  0.22900  0.02000  Biso   1.000  H
  H19      1.0000 0.63600  0.77100  0.52000  Biso   1.000  H
  H20      1.0000 0.13600  0.72900  0.48000  Biso   1.000  H
  H21      1.0000 0.20500  0.03700  0.08200  Biso   1.000  H
  H22      1.0000 0.70500  0.46300  0.91800  Biso   1.000  H
  H23      1.0000 0.79500  0.53700  0.41800  Biso   1.000  H
  H24      1.0000 0.29500  0.96300  0.58200  Biso   1.000  H
  H25      1.0000 0.43300  0.99300  0.04400  Biso   1.000  H
  H26      1.0000 0.93300  0.50700  0.95600  Biso   1.000  H
  H27      1.0000 0.56700  0.49300  0.45600  Biso   1.000  H
  H28      1.0000 0.06700  0.00700  0.54400  Biso   1.000  H
  H29      1.0000 0.29900  0.95500  0.03600  Biso   1.000  H
  H30      1.0000 0.79900  0.54500  0.96400  Biso   1.000  H
  H31      1.0000 0.70100  0.45500  0.46400  Biso   1.000  H
  H32      1.0000 0.20100  0.04500  0.53600  Biso   1.000  H
  H33      1.0000 0.43300  0.89700  0.09600  Biso   1.000  H
  H34      1.0000 0.93300  0.60300  0.90400  Biso   1.000  H
  H35      1.0000 0.56700  0.39700  0.40400  Biso   1.000  H
  H36      1.0000 0.06700  0.10300  0.59600  Biso   1.000  H
  H37      1.0000 0.29500  0.91700  0.11500  Biso   1.000  H
  H38      1.0000 0.79500  0.58300  0.88500  Biso   1.000  H
  H39      1.0000 0.70500  0.41700  0.38500  Biso   1.000  H
  H40      1.0000 0.20500  0.08300  0.61500  Biso   1.000  H
  H41      1.0000 0.50700  0.00300  0.11900  Biso   1.000  H
  H42      1.0000 0.00700  0.49700  0.88100  Biso   1.000  H
  H43      1.0000 0.49300  0.50300  0.38100  Biso   1.000  H
  H44      1.0000 0.99300  0.99700  0.61900  Biso   1.000  H
  H45      1.0000 0.41500  0.98200  0.16300  Biso   1.000  H
  H46      1.0000 0.91500  0.51800  0.83700  Biso   1.000  H
  H47      1.0000 0.58500  0.48200  0.33700  Biso   1.000  H
  H48      1.0000 0.08500  0.01800  0.66300  Biso   1.000  H
  H49      1.0000 0.56300  0.25400  0.05000  Biso   1.000  H
  H50      1.0000 0.06300  0.24600  0.95000  Biso   1.000  H
  H51      1.0000 0.43700  0.75400  0.45000  Biso   1.000  H
  H52      1.0000 0.93700  0.74600  0.55000  Biso   1.000  H
  H53      1.0000 0.39000  0.34400  0.03300  Biso   1.000  H
  H54      1.0000 0.89000  0.15600  0.96700  Biso   1.000  H
  H55      1.0000 0.61000  0.84400  0.46700  Biso   1.000  H
  H56      1.0000 0.11000  0.65600  0.53300  Biso   1.000  H
  H57      1.0000 0.52100  0.36600  0.05700  Biso   1.000  H
  H58      1.0000 0.02100  0.13400  0.94300  Biso   1.000  H
  H59      1.0000 0.47900  0.86600  0.44300  Biso   1.000  H
  H60      1.0000 0.97900  0.63400  0.55700  Biso   1.000  H
  H61      1.0000 0.42000  0.39800  0.11600  Biso   1.000  H
  H62      1.0000 0.92000  0.10200  0.88400  Biso   1.000  H
  H63      1.0000 0.58000  0.89800  0.38400  Biso   1.000  H
  H64      1.0000 0.08000  0.60200  0.61600  Biso   1.000  H
  H65      1.0000 0.29800  0.35500  0.09700  Biso   1.000  H
  H66      1.0000 0.79800  0.14500  0.90300  Biso   1.000  H
  H67      1.0000 0.70200  0.85500  0.40300  Biso   1.000  H
  H68      1.0000 0.20200  0.64500  0.59700  Biso   1.000  H
  H69      1.0000 0.33300  0.27100  0.14800  Biso   1.000  H
  H70      1.0000 0.83300  0.22900  0.85200  Biso   1.000  H
  H71      1.0000 0.66700  0.77100  0.35200  Biso   1.000  H
  H72      1.0000 0.16700  0.72900  0.64800  Biso   1.000  H
  H73      1.0000 0.45700  0.31300  0.16600  Biso   1.000  H
  H74      1.0000 0.95700  0.18700  0.83400  Biso   1.000  H
  H75      1.0000 0.54300  0.81300  0.33400  Biso   1.000  H
  H76      1.0000 0.04300  0.68700  0.66600  Biso   1.000  H
  H77      1.0000 0.62500  0.09800  0.19400  Biso   1.000  H
  H78      1.0000 0.12500  0.40200  0.80600  Biso   1.000  H
  H79      1.0000 0.37500  0.59800  0.30600  Biso   1.000  H
  H80      1.0000 0.87500  0.90200  0.69400  Biso   1.000  H
  H81      1.0000 0.88600  0.96200  0.09800  Biso   1.000  H
  H82      1.0000 0.38600  0.53800  0.90200  Biso   1.000  H
  H83      1.0000 0.11400  0.46200  0.40200  Biso   1.000  H
  H84      1.0000 0.61400  0.03800  0.59800  Biso   1.000  H
  H85      1.0000 0.64300  0.91100  0.29500  Biso   1.000  H
  H86      1.0000 0.14300  0.58900  0.70500  Biso   1.000  H
  H87      1.0000 0.35700  0.41100  0.20500  Biso   1.000  H
  H88      1.0000 0.85700  0.08900  0.79500  Biso   1.000  H
  H89      1.0000 0.67400  0.79600  0.26900  Biso   1.000  H
  H90      1.0000 0.17400  0.70400  0.73100  Biso   1.000  H
  H91      1.0000 0.32600  0.29600  0.23100  Biso   1.000  H
  H92      1.0000 0.82600  0.20400  0.76900  Biso   1.000  H
  H93      1.0000 0.74000  0.77800  0.19000  Biso   1.000  H
  H94      1.0000 0.24000  0.72200  0.81000  Biso   1.000  H
  H95      1.0000 0.26000  0.27800  0.31000  Biso   1.000  H
  H96      1.0000 0.76000  0.22200  0.69000  Biso   1.000  H
  H97      1.0000 0.55700  0.03100  0.24700  Biso   1.000  H
  H98      1.0000 0.05700  0.46900  0.75300  Biso   1.000  H
  H99      1.0000 0.44300  0.53100  0.25300  Biso   1.000  H
  H100     1.0000 0.94300  0.96900  0.74700  Biso   1.000  H
  H101     1.0000 0.78200  0.02700  0.29400  Biso   1.000  H
  H102     1.0000 0.28200  0.47300  0.70600  Biso   1.000  H
  H103     1.0000 0.21800  0.52700  0.20600  Biso   1.000  H
  H104     1.0000 0.71800  0.97300  0.79400  Biso   1.000  H
  H105     1.0000 0.64700  0.04800  0.31600  Biso   1.000  H
  H106     1.0000 0.14700  0.45200  0.68400  Biso   1.000  H
  H107     1.0000 0.35300  0.54800  0.18400  Biso   1.000  H
  H108     1.0000 0.85300  0.95200  0.81600  Biso   1.000  H
  H109     1.0000 0.65600  0.15900  0.28600  Biso   1.000  H
  H110     1.0000 0.15600  0.34100  0.71400  Biso   1.000  H
  H111     1.0000 0.34400  0.65900  0.21400  Biso   1.000  H
  H112     1.0000 0.84400  0.84100  0.78600  Biso   1.000  H
  H113     1.0000 0.79800  0.14500  0.30300  Biso   1.000  H
  H114     1.0000 0.29800  0.35500  0.69700  Biso   1.000  H
  H115     1.0000 0.20200  0.64500  0.19700  Biso   1.000  H
  H116     1.0000 0.70200  0.85500  0.80300  Biso   1.000  H
  H117     1.0000 0.85500  0.10700  0.23000  Biso   1.000  H
  H118     1.0000 0.35500  0.39300  0.77000  Biso   1.000  H
  H119     1.0000 0.14500  0.60700  0.27000  Biso   1.000  H
  H120     1.0000 0.64500  0.89300  0.73000  Biso   1.000  H
  H121     1.0000 0.75600  0.17000  0.21500  Biso   1.000  H
  H122     1.0000 0.25600  0.33000  0.78500  Biso   1.000  H
  H123     1.0000 0.24400  0.67000  0.28500  Biso   1.000  H
  H124     1.0000 0.74400  0.83000  0.71500  Biso   1.000  H
  H125     1.0000 0.87800  0.86400  0.13300  Biso   1.000  H
  H126     1.0000 0.37800  0.63600  0.86700  Biso   1.000  H
  H127     1.0000 0.12200  0.36400  0.36700  Biso   1.000  H
  H128     1.0000 0.62200  0.13600  0.63300  Biso   1.000  H
  H129     1.0000 0.77300  0.79300  0.09400  Biso   1.000  H
  H130     1.0000 0.27300  0.70700  0.90600  Biso   1.000  H
  H131     1.0000 0.22700  0.29300  0.40600  Biso   1.000  H
  H132     1.0000 0.72700  0.20700  0.59400  Biso   1.000  H
  H133     1.0000 0.64400  0.83400  0.10800  Biso   1.000  H
  H134     1.0000 0.14400  0.66600  0.89200  Biso   1.000  H
  H135     1.0000 0.35600  0.33400  0.39200  Biso   1.000  H
  H136     1.0000 0.85600  0.16600  0.60800  Biso   1.000  H
  H137     1.0000 0.80700  0.86700  0.03400  Biso   1.000  H
  H138     1.0000 0.30700  0.63300  0.96600  Biso   1.000  H
  H139     1.0000 0.19300  0.36700  0.46600  Biso   1.000  H
  H140     1.0000 0.69300  0.13300  0.53400  Biso   1.000  H
  H141     1.0000 0.65700  0.86300  0.03300  Biso   1.000  H
  H142     1.0000 0.15700  0.63700  0.96700  Biso   1.000  H
  H143     1.0000 0.34300  0.36300  0.46700  Biso   1.000  H
  H144     1.0000 0.84300  0.13700  0.53300  Biso   1.000  H
  H145     1.0000 0.64000  0.96600  0.07700  Biso   1.000  H
  H146     1.0000 0.14000  0.53400  0.92300  Biso   1.000  H
  H147     1.0000 0.36000  0.46600  0.42300  Biso   1.000  H
  H148     1.0000 0.86000  0.03400  0.57700  Biso   1.000  H
  H149     1.0000 0.75800  0.98500  0.04300  Biso   1.000  H
  H150     1.0000 0.25800  0.51500  0.95700  Biso   1.000  H
  H151     1.0000 0.24200  0.48500  0.45700  Biso   1.000  H
  H152     1.0000 0.74200  0.01500  0.54300  Biso   1.000  H
  H153     1.0000 0.94800  0.14400  0.15100  Biso   1.000  H
  H154     1.0000 0.44800  0.35600  0.84900  Biso   1.000  H
  H155     1.0000 0.05200  0.64400  0.34900  Biso   1.000  H
  H156     1.0000 0.55200  0.85600  0.65100  Biso   1.000  H
  H157     1.0000 0.22800  0.05500  0.26200  Biso   1.000  H
  H158     1.0000 0.72800  0.44500  0.73800  Biso   1.000  H
  H159     1.0000 0.77200  0.55500  0.23800  Biso   1.000  H
  H160     1.0000 0.27200  0.94500  0.76200  Biso   1.000  H
  H161     1.0000 0.91500  0.33500  0.24500  Biso   1.000  H
  H162     1.0000 0.41500  0.16500  0.75500  Biso   1.000  H
  H163     1.0000 0.08500  0.83500  0.25500  Biso   1.000  H
  H164     1.0000 0.58500  0.66500  0.74500  Biso   1.000  H
  H165     1.0000 0.94400  0.32100  0.32200  Biso   1.000  H
  H166     1.0000 0.44400  0.17900  0.67800  Biso   1.000  H
  H167     1.0000 0.05600  0.82100  0.17800  Biso   1.000  H
  H168     1.0000 0.55600  0.67900  0.82200  Biso   1.000  H
  H169     1.0000 0.03100  0.21800  0.35800  Biso   1.000  H
  H170     1.0000 0.53100  0.28200  0.64200  Biso   1.000  H
  H171     1.0000 0.96900  0.71800  0.14200  Biso   1.000  H
  H172     1.0000 0.46900  0.78200  0.85800  Biso   1.000  H
  H173     1.0000 0.88800  0.24300  0.17400  Biso   1.000  H
  H174     1.0000 0.38800  0.25700  0.82600  Biso   1.000  H
  H175     1.0000 0.11200  0.74300  0.32600  Biso   1.000  H
  H176     1.0000 0.61200  0.75700  0.67400  Biso   1.000  H
  H177     1.0000 0.12500  0.30500  0.17100  Biso   1.000  H
  H178     1.0000 0.62500  0.19500  0.82900  Biso   1.000  H
  H179     1.0000 0.87500  0.80500  0.32900  Biso   1.000  H
  H180     1.0000 0.37500  0.69500  0.67100  Biso   1.000  H
  H181     1.0000 0.99400  0.34100  0.15400  Biso   1.000  H
  H182     1.0000 0.49400  0.15900  0.84600  Biso   1.000  H
  H183     1.0000 0.00600  0.84100  0.34600  Biso   1.000  H
  H184     1.0000 0.50600  0.65900  0.65400  Biso   1.000  H
  H185     1.0000 0.98200  0.27000  0.09100  Biso   1.000  H
  H186     1.0000 0.48200  0.23000  0.90900  Biso   1.000  H
  H187     1.0000 0.01800  0.77000  0.40900  Biso   1.000  H
  H188     1.0000 0.51800  0.73000  0.59100  Biso   1.000  H
  H189     1.0000 0.12800  0.28900  0.09400  Biso   1.000  H
  H190     1.0000 0.62800  0.21100  0.90600  Biso   1.000  H
  H191     1.0000 0.87200  0.78900  0.40600  Biso   1.000  H
  H192     1.0000 0.37200  0.71100  0.59400  Biso   1.000  H
  H193     1.0000 0.05600  0.16200  0.09000  Biso   1.000  H
  H194     1.0000 0.55600  0.33800  0.91000  Biso   1.000  H
  H195     1.0000 0.94400  0.66200  0.41000  Biso   1.000  H
  H196     1.0000 0.44400  0.83800  0.59000  Biso   1.000  H
  H197     1.0000 0.17500  0.18400  0.12200  Biso   1.000  H
  H198     1.0000 0.67500  0.31600  0.87800  Biso   1.000  H
  H199     1.0000 0.82500  0.68400  0.37800  Biso   1.000  H
  H200     1.0000 0.32500  0.81600  0.62200  Biso   1.000  H
  H201     1.0000 0.20100  0.12600  0.31500  Biso   1.000  H
  H202     1.0000 0.70100  0.37400  0.68500  Biso   1.000  H
  H203     1.0000 0.79900  0.62600  0.18500  Biso   1.000  H
  H204     1.0000 0.29900  0.87400  0.81500  Biso   1.000  H
  H205     1.0000 0.97600  0.09400  0.34500  Biso   1.000  H
  H206     1.0000 0.47600  0.40600  0.65500  Biso   1.000  H
  H207     1.0000 0.02400  0.59400  0.15500  Biso   1.000  H
  H208     1.0000 0.52400  0.90600  0.84500  Biso   1.000  H
  H209     1.0000 0.10800  0.07000  0.36800  Biso   1.000  H
  H210     1.0000 0.60800  0.43000  0.63200  Biso   1.000  H
  H211     1.0000 0.89200  0.57000  0.13200  Biso   1.000  H
  H212     1.0000 0.39200  0.93000  0.86800  Biso   1.000  H
  H213     1.0000 0.09700  0.97300  0.34100  Biso   1.000  H
  H214     1.0000 0.59700  0.52700  0.65900  Biso   1.000  H
  H215     1.0000 0.90300  0.47300  0.15900  Biso   1.000  H
  H216     1.0000 0.40300  0.02700  0.84100  Biso   1.000  H
  H217     1.0000 0.95500  0.99300  0.32600  Biso   1.000  H
  H218     1.0000 0.45500  0.50700  0.67400  Biso   1.000  H
  H219     1.0000 0.04500  0.49300  0.17400  Biso   1.000  H
  H220     1.0000 0.54500  0.00700  0.82600  Biso   1.000  H
  H221     1.0000 0.12400  0.96000  0.27000  Biso   1.000  H
  H222     1.0000 0.62400  0.54000  0.73000  Biso   1.000  H
  H223     1.0000 0.87600  0.46000  0.23000  Biso   1.000  H
  H224     1.0000 0.37600  0.04000  0.77000  Biso   1.000  H
  H225     1.0000 0.99600  0.00200  0.25600  Biso   1.000  H
  H226     1.0000 0.49600  0.49800  0.74400  Biso   1.000  H
  H227     1.0000 0.00400  0.50200  0.24400  Biso   1.000  H
  H228     1.0000 0.50400  0.99800  0.75600  Biso   1.000  H
  H229     1.0000 0.69100  0.58500  0.06900  Biso   1.000  H
  H230     1.0000 0.19100  0.91500  0.93100  Biso   1.000  H
  H231     1.0000 0.30900  0.08500  0.43100  Biso   1.000  H
  H232     1.0000 0.80900  0.41500  0.56900  Biso   1.000  H
  H233     1.0000 0.57800  0.68500  0.06600  Biso   1.000  H
  H234     1.0000 0.07800  0.81500  0.93400  Biso   1.000  H
  H235     1.0000 0.42200  0.18500  0.43400  Biso   1.000  H
  H236     1.0000 0.92200  0.31500  0.56600  Biso   1.000  H
  H237     1.0000 0.58700  0.51900  0.19400  Biso   1.000  H
  H238     1.0000 0.08700  0.98100  0.80600  Biso   1.000  H
  H239     1.0000 0.41300  0.01900  0.30600  Biso   1.000  H
  H240     1.0000 0.91300  0.48100  0.69400  Biso   1.000  H
  H241     1.0000 0.58200  0.45200  0.26000  Biso   1.000  H
  H242     1.0000 0.08200  0.04800  0.74000  Biso   1.000  H
  H243     1.0000 0.41800  0.95200  0.24000  Biso   1.000  H
  H244     1.0000 0.91800  0.54800  0.76000  Biso   1.000  H
  H245     1.0000 0.70700  0.28000  0.19100  Biso   1.000  H
  H246     1.0000 0.20700  0.22000  0.80900  Biso   1.000  H
  H247     1.0000 0.29300  0.78000  0.30900  Biso   1.000  H
  H248     1.0000 0.79300  0.72000  0.69100  Biso   1.000  H
  H249     1.0000 0.73000  0.35000  0.12300  Biso   1.000  H
  H250     1.0000 0.23000  0.15000  0.87700  Biso   1.000  H
  H251     1.0000 0.27000  0.85000  0.37700  Biso   1.000  H
  H252     1.0000 0.77000  0.65000  0.62300  Biso   1.000  H
  H253     1.0000 0.67500  0.26800  0.26600  Biso   1.000  H
  H254     1.0000 0.17500  0.23200  0.73400  Biso   1.000  H
  H255     1.0000 0.32500  0.76800  0.23400  Biso   1.000  H
  H256     1.0000 0.82500  0.73200  0.76600  Biso   1.000  H
  H257     1.0000 0.68800  0.34100  0.30000  Biso   1.000  H
  H258     1.0000 0.18800  0.15900  0.70000  Biso   1.000  H
  H259     1.0000 0.31200  0.84100  0.20000  Biso   1.000  H
  H260     1.0000 0.81200  0.65900  0.80000  Biso   1.000  H
  H261     1.0000 0.55200  0.31400  0.28300  Biso   1.000  H
  H262     1.0000 0.05200  0.18600  0.71700  Biso   1.000  H
  H263     1.0000 0.44800  0.81400  0.21700  Biso   1.000  H
  H264     1.0000 0.94800  0.68600  0.78300  Biso   1.000  H
  H265     1.0000 0.24900  0.58200  0.07600  Biso   1.000  H
  H266     1.0000 0.74900  0.91800  0.92400  Biso   1.000  H
  H267     1.0000 0.75100  0.08200  0.42400  Biso   1.000  H
  H268     1.0000 0.25100  0.41800  0.57600  Biso   1.000  H
  H269     1.0000 0.03000  0.58400  0.05700  Biso   1.000  H
  H270     1.0000 0.53000  0.91600  0.94300  Biso   1.000  H
  H271     1.0000 0.97000  0.08400  0.44300  Biso   1.000  H
  H272     1.0000 0.47000  0.41600  0.55700  Biso   1.000  H
  H273     1.0000 0.02000  0.79400  0.05400  Biso   1.000  H
  H274     1.0000 0.52000  0.70600  0.94600  Biso   1.000  H
  H275     1.0000 0.98000  0.29400  0.44600  Biso   1.000  H
  H276     1.0000 0.48000  0.20600  0.55400  Biso   1.000  H
  H277     1.0000 0.22600  0.80100  0.06500  Biso   1.000  H
  H278     1.0000 0.72600  0.69900  0.93500  Biso   1.000  H
  H279     1.0000 0.77400  0.30100  0.43500  Biso   1.000  H
  H280     1.0000 0.27400  0.19900  0.56500  Biso   1.000  H
  H281     1.0000 0.85400  0.71800  0.02700  Biso   1.000  H
  H282     1.0000 0.35400  0.78200  0.97300  Biso   1.000  H
  H283     1.0000 0.14600  0.21800  0.47300  Biso   1.000  H
  H284     1.0000 0.64600  0.28200  0.52700  Biso   1.000  H
  H285     1.0000 0.89800  0.63800  0.00800  Biso   1.000  H
  H286     1.0000 0.39800  0.86200  0.99200  Biso   1.000  H
  H287     1.0000 0.10200  0.13800  0.49200  Biso   1.000  H
  H288     1.0000 0.60200  0.36200  0.50800  Biso   1.000  H
  H289     1.0000 0.86000  0.64900  0.06400  Biso   1.000  H
  H290     1.0000 0.36000  0.85100  0.93600  Biso   1.000  H
  H291     1.0000 0.14000  0.14900  0.43600  Biso   1.000  H
  H292     1.0000 0.64000  0.35100  0.56400  Biso   1.000  H
