data_image0
_cell_length_a       13.6907
_cell_length_b       22.2234
_cell_length_c       22.1776
_cell_angle_alpha    90
_cell_angle_beta     90
_cell_angle_gamma    90

_symmetry_space_group_name_H-M    "P 1"
_symmetry_int_tables_number       1

loop_
  _symmetry_equiv_pos_as_xyz
  'x, y, z'

loop_
  _atom_site_label
  _atom_site_occupancy
  _atom_site_fract_x
  _atom_site_fract_y
  _atom_site_fract_z
  _atom_site_thermal_displace_type
  _atom_site_B_iso_or_equiv
  _atom_site_type_symbol
  I1       1.0000 0.50000  0.24444  0.07524  Biso   1.000  I
  I2       1.0000 0.50000  0.25556  0.57524  Biso   1.000  I
  I3       1.0000 0.50000  0.75556  0.92476  Biso   1.000  I
  I4       1.0000 0.50000  0.74444  0.42476  Biso   1.000  I
  I5       1.0000 0.00000  0.74444  0.07524  Biso   1.000  I
  I6       1.0000 0.00000  0.75556  0.57524  Biso   1.000  I
  I7       1.0000 0.00000  0.25556  0.92476  Biso   1.000  I
  I8       1.0000 0.00000  0.24444  0.42476  Biso   1.000  I
  I9       1.0000 0.50000  0.37599  0.07578  Biso   1.000  I
  I10      1.0000 0.50000  0.12401  0.57578  Biso   1.000  I
  I11      1.0000 0.50000  0.62401  0.92422  Biso   1.000  I
  I12      1.0000 0.50000  0.87599  0.42422  Biso   1.000  I
  I13      1.0000 0.00000  0.87599  0.07578  Biso   1.000  I
  I14      1.0000 0.00000  0.62401  0.57578  Biso   1.000  I
  I15      1.0000 0.00000  0.12401  0.92422  Biso   1.000  I
  I16      1.0000 0.00000  0.37599  0.42422  Biso   1.000  I
  I17      1.0000 0.50000  0.11238  0.07403  Biso   1.000  I
  I18      1.0000 0.50000  0.38762  0.57403  Biso   1.000  I
  I19      1.0000 0.50000  0.88762  0.92597  Biso   1.000  I
  I20      1.0000 0.50000  0.61238  0.42597  Biso   1.000  I
  I21      1.0000 0.00000  0.61238  0.07403  Biso   1.000  I
  I22      1.0000 0.00000  0.88762  0.57403  Biso   1.000  I
  I23      1.0000 0.00000  0.38762  0.92597  Biso   1.000  I
  I24      1.0000 0.00000  0.11238  0.42597  Biso   1.000  I
  Cu1      1.0000 0.25000  0.49254  0.25000  Biso   1.000  Cu
  Cu2      1.0000 0.75000  0.00746  0.75000  Biso   1.000  Cu
  Cu3      1.0000 0.25000  0.50746  0.75000  Biso   1.000  Cu
  Cu4      1.0000 0.75000  0.99254  0.25000  Biso   1.000  Cu
  Cu5      1.0000 0.75000  0.50746  0.75000  Biso   1.000  Cu
  Cu6      1.0000 0.25000  0.99254  0.25000  Biso   1.000  Cu
  Cu7      1.0000 0.75000  0.49254  0.25000  Biso   1.000  Cu
  Cu8      1.0000 0.25000  0.00746  0.75000  Biso   1.000  Cu
  N1       1.0000 0.25000  0.40250  0.25000  Biso   1.000  N
  N2       1.0000 0.75000  0.09750  0.75000  Biso   1.000  N
  N3       1.0000 0.25000  0.59750  0.75000  Biso   1.000  N
  N4       1.0000 0.75000  0.90250  0.25000  Biso   1.000  N
  N5       1.0000 0.75000  0.59750  0.75000  Biso   1.000  N
  N6       1.0000 0.25000  0.90250  0.25000  Biso   1.000  N
  N7       1.0000 0.75000  0.40250  0.25000  Biso   1.000  N
  N8       1.0000 0.25000  0.09750  0.75000  Biso   1.000  N
  N9       1.0000 0.24180  0.49353  0.34130  Biso   1.000  N
  N10      1.0000 0.75820  0.00647  0.84130  Biso   1.000  N
  N11      1.0000 0.24180  0.50647  0.65870  Biso   1.000  N
  N12      1.0000 0.75820  0.99353  0.15870  Biso   1.000  N
  N13      1.0000 0.74180  0.99353  0.34130  Biso   1.000  N
  N14      1.0000 0.25820  0.50647  0.84130  Biso   1.000  N
  N15      1.0000 0.74180  0.00647  0.65870  Biso   1.000  N
  N16      1.0000 0.25820  0.49353  0.15870  Biso   1.000  N
  N17      1.0000 0.75820  0.50647  0.65870  Biso   1.000  N
  N18      1.0000 0.24180  0.99353  0.15870  Biso   1.000  N
  N19      1.0000 0.75820  0.49353  0.34130  Biso   1.000  N
  N20      1.0000 0.24180  0.00647  0.84130  Biso   1.000  N
  N21      1.0000 0.25820  0.00647  0.65870  Biso   1.000  N
  N22      1.0000 0.74180  0.49353  0.15870  Biso   1.000  N
  N23      1.0000 0.25820  0.99353  0.34130  Biso   1.000  N
  N24      1.0000 0.74180  0.50647  0.84130  Biso   1.000  N
  O1       1.0000 0.42200  0.49640  0.25350  Biso   1.000  O
  O2       1.0000 0.57800  0.00360  0.75350  Biso   1.000  O
  O3       1.0000 0.42200  0.50360  0.74650  Biso   1.000  O
  O4       1.0000 0.57800  0.99640  0.24650  Biso   1.000  O
  O5       1.0000 0.92200  0.99640  0.25350  Biso   1.000  O
  O6       1.0000 0.07800  0.50360  0.75350  Biso   1.000  O
  O7       1.0000 0.92200  0.00360  0.74650  Biso   1.000  O
  O8       1.0000 0.07800  0.49640  0.24650  Biso   1.000  O
  O9       1.0000 0.57800  0.50360  0.74650  Biso   1.000  O
  O10      1.0000 0.42200  0.99640  0.24650  Biso   1.000  O
  O11      1.0000 0.57800  0.49640  0.25350  Biso   1.000  O
  O12      1.0000 0.42200  0.00360  0.75350  Biso   1.000  O
  O13      1.0000 0.07800  0.00360  0.74650  Biso   1.000  O
  O14      1.0000 0.92200  0.49640  0.24650  Biso   1.000  O
  O15      1.0000 0.07800  0.99640  0.25350  Biso   1.000  O
  O16      1.0000 0.92200  0.50360  0.75350  Biso   1.000  O
  C1       1.0000 0.25000  0.27520  0.25000  Biso   1.000  C
  C2       1.0000 0.75000  0.22480  0.75000  Biso   1.000  C
  C3       1.0000 0.25000  0.72480  0.75000  Biso   1.000  C
  C4       1.0000 0.75000  0.77520  0.25000  Biso   1.000  C
  C5       1.0000 0.75000  0.72480  0.75000  Biso   1.000  C
  C6       1.0000 0.25000  0.77520  0.25000  Biso   1.000  C
  C7       1.0000 0.75000  0.27520  0.25000  Biso   1.000  C
  C8       1.0000 0.25000  0.22480  0.75000  Biso   1.000  C
  C9       1.0000 0.31700  0.30900  0.21640  Biso   1.000  C
  C10      1.0000 0.68300  0.19100  0.71640  Biso   1.000  C
  C11      1.0000 0.31700  0.69100  0.78360  Biso   1.000  C
  C12      1.0000 0.68300  0.80900  0.28360  Biso   1.000  C
  C13      1.0000 0.81700  0.80900  0.21640  Biso   1.000  C
  C14      1.0000 0.18300  0.69100  0.71640  Biso   1.000  C
  C15      1.0000 0.81700  0.19100  0.78360  Biso   1.000  C
  C16      1.0000 0.18300  0.30900  0.28360  Biso   1.000  C
  C17      1.0000 0.68300  0.69100  0.78360  Biso   1.000  C
  C18      1.0000 0.31700  0.80900  0.28360  Biso   1.000  C
  C19      1.0000 0.68300  0.30900  0.21640  Biso   1.000  C
  C20      1.0000 0.31700  0.19100  0.71640  Biso   1.000  C
  C21      1.0000 0.18300  0.19100  0.78360  Biso   1.000  C
  C22      1.0000 0.81700  0.30900  0.28360  Biso   1.000  C
  C23      1.0000 0.18300  0.80900  0.21640  Biso   1.000  C
  C24      1.0000 0.81700  0.69100  0.71640  Biso   1.000  C
  H1       1.0000 0.36330  0.28940  0.19280  Biso   1.000  H
  H2       1.0000 0.63670  0.21060  0.69280  Biso   1.000  H
  H3       1.0000 0.36330  0.71060  0.80720  Biso   1.000  H
  H4       1.0000 0.63670  0.78940  0.30720  Biso   1.000  H
  H5       1.0000 0.86330  0.78940  0.19280  Biso   1.000  H
  H6       1.0000 0.13670  0.71060  0.69280  Biso   1.000  H
  H7       1.0000 0.86330  0.21060  0.80720  Biso   1.000  H
  H8       1.0000 0.13670  0.28940  0.30720  Biso   1.000  H
  H9       1.0000 0.63670  0.71060  0.80720  Biso   1.000  H
  H10      1.0000 0.36330  0.78940  0.30720  Biso   1.000  H
  H11      1.0000 0.63670  0.28940  0.19280  Biso   1.000  H
  H12      1.0000 0.36330  0.21060  0.69280  Biso   1.000  H
  H13      1.0000 0.13670  0.21060  0.80720  Biso   1.000  H
  H14      1.0000 0.86330  0.28940  0.30720  Biso   1.000  H
  H15      1.0000 0.13670  0.78940  0.19280  Biso   1.000  H
  H16      1.0000 0.86330  0.71060  0.69280  Biso   1.000  H
  C25      1.0000 0.31460  0.37100  0.21800  Biso   1.000  C
  C26      1.0000 0.68540  0.12900  0.71800  Biso   1.000  C
  C27      1.0000 0.31460  0.62900  0.78200  Biso   1.000  C
  C28      1.0000 0.68540  0.87100  0.28200  Biso   1.000  C
  C29      1.0000 0.81460  0.87100  0.21800  Biso   1.000  C
  C30      1.0000 0.18540  0.62900  0.71800  Biso   1.000  C
  C31      1.0000 0.81460  0.12900  0.78200  Biso   1.000  C
  C32      1.0000 0.18540  0.37100  0.28200  Biso   1.000  C
  C33      1.0000 0.68540  0.62900  0.78200  Biso   1.000  C
  C34      1.0000 0.31460  0.87100  0.28200  Biso   1.000  C
  C35      1.0000 0.68540  0.37100  0.21800  Biso   1.000  C
  C36      1.0000 0.31460  0.12900  0.71800  Biso   1.000  C
  C37      1.0000 0.18540  0.12900  0.78200  Biso   1.000  C
  C38      1.0000 0.81460  0.37100  0.28200  Biso   1.000  C
  C39      1.0000 0.18540  0.87100  0.21800  Biso   1.000  C
  C40      1.0000 0.81460  0.62900  0.71800  Biso   1.000  C
  H17      1.0000 0.36070  0.39200  0.19560  Biso   1.000  H
  H18      1.0000 0.63930  0.10800  0.69560  Biso   1.000  H
  H19      1.0000 0.36070  0.60800  0.80440  Biso   1.000  H
  H20      1.0000 0.63930  0.89200  0.30440  Biso   1.000  H
  H21      1.0000 0.86070  0.89200  0.19560  Biso   1.000  H
  H22      1.0000 0.13930  0.60800  0.69560  Biso   1.000  H
  H23      1.0000 0.86070  0.10800  0.80440  Biso   1.000  H
  H24      1.0000 0.13930  0.39200  0.30440  Biso   1.000  H
  H25      1.0000 0.63930  0.60800  0.80440  Biso   1.000  H
  H26      1.0000 0.36070  0.89200  0.30440  Biso   1.000  H
  H27      1.0000 0.63930  0.39200  0.19560  Biso   1.000  H
  H28      1.0000 0.36070  0.10800  0.69560  Biso   1.000  H
  H29      1.0000 0.13930  0.10800  0.80440  Biso   1.000  H
  H30      1.0000 0.86070  0.39200  0.30440  Biso   1.000  H
  H31      1.0000 0.13930  0.89200  0.19560  Biso   1.000  H
  H32      1.0000 0.86070  0.60800  0.69560  Biso   1.000  H
  C41      1.0000 0.25000  0.20890  0.25000  Biso   1.000  C
  C42      1.0000 0.75000  0.29110  0.75000  Biso   1.000  C
  C43      1.0000 0.25000  0.79110  0.75000  Biso   1.000  C
  C44      1.0000 0.75000  0.70890  0.25000  Biso   1.000  C
  C45      1.0000 0.75000  0.79110  0.75000  Biso   1.000  C
  C46      1.0000 0.25000  0.70890  0.25000  Biso   1.000  C
  C47      1.0000 0.75000  0.20890  0.25000  Biso   1.000  C
  C48      1.0000 0.25000  0.29110  0.75000  Biso   1.000  C
  C49      1.0000 0.23750  0.49840  0.46570  Biso   1.000  C
  C50      1.0000 0.76250  0.00160  0.96570  Biso   1.000  C
  C51      1.0000 0.23750  0.50160  0.53430  Biso   1.000  C
  C52      1.0000 0.76250  0.99840  0.03430  Biso   1.000  C
  C53      1.0000 0.73750  0.99840  0.46570  Biso   1.000  C
  C54      1.0000 0.26250  0.50160  0.96570  Biso   1.000  C
  C55      1.0000 0.73750  0.00160  0.53430  Biso   1.000  C
  C56      1.0000 0.26250  0.49840  0.03430  Biso   1.000  C
  C57      1.0000 0.76250  0.50160  0.53430  Biso   1.000  C
  C58      1.0000 0.23750  0.99840  0.03430  Biso   1.000  C
  C59      1.0000 0.76250  0.49840  0.46570  Biso   1.000  C
  C60      1.0000 0.23750  0.00160  0.96570  Biso   1.000  C
  C61      1.0000 0.26250  0.00160  0.53430  Biso   1.000  C
  C62      1.0000 0.73750  0.49840  0.03430  Biso   1.000  C
  C63      1.0000 0.26250  0.99840  0.46570  Biso   1.000  C
  C64      1.0000 0.73750  0.50160  0.96570  Biso   1.000  C
  C65      1.0000 0.16560  0.52500  0.43270  Biso   1.000  C
  C66      1.0000 0.83440  0.97500  0.93270  Biso   1.000  C
  C67      1.0000 0.16560  0.47500  0.56730  Biso   1.000  C
  C68      1.0000 0.83440  0.02500  0.06730  Biso   1.000  C
  C69      1.0000 0.66560  0.02500  0.43270  Biso   1.000  C
  C70      1.0000 0.33440  0.47500  0.93270  Biso   1.000  C
  C71      1.0000 0.66560  0.97500  0.56730  Biso   1.000  C
  C72      1.0000 0.33440  0.52500  0.06730  Biso   1.000  C
  C73      1.0000 0.83440  0.47500  0.56730  Biso   1.000  C
  C74      1.0000 0.16560  0.02500  0.06730  Biso   1.000  C
  C75      1.0000 0.83440  0.52500  0.43270  Biso   1.000  C
  C76      1.0000 0.16560  0.97500  0.93270  Biso   1.000  C
  C77      1.0000 0.33440  0.97500  0.56730  Biso   1.000  C
  C78      1.0000 0.66560  0.52500  0.06730  Biso   1.000  C
  C79      1.0000 0.33440  0.02500  0.43270  Biso   1.000  C
  C80      1.0000 0.66560  0.47500  0.93270  Biso   1.000  C
  H33      1.0000 0.11420  0.54480  0.45160  Biso   1.000  H
  H34      1.0000 0.88580  0.95520  0.95160  Biso   1.000  H
  H35      1.0000 0.11420  0.45520  0.54840  Biso   1.000  H
  H36      1.0000 0.88580  0.04480  0.04840  Biso   1.000  H
  H37      1.0000 0.61420  0.04480  0.45160  Biso   1.000  H
  H38      1.0000 0.38580  0.45520  0.95160  Biso   1.000  H
  H39      1.0000 0.61420  0.95520  0.54840  Biso   1.000  H
  H40      1.0000 0.38580  0.54480  0.04840  Biso   1.000  H
  H41      1.0000 0.88580  0.45520  0.54840  Biso   1.000  H
  H42      1.0000 0.11420  0.04480  0.04840  Biso   1.000  H
  H43      1.0000 0.88580  0.54480  0.45160  Biso   1.000  H
  H44      1.0000 0.11420  0.95520  0.95160  Biso   1.000  H
  H45      1.0000 0.38580  0.95520  0.54840  Biso   1.000  H
  H46      1.0000 0.61420  0.54480  0.04840  Biso   1.000  H
  H47      1.0000 0.38580  0.04480  0.45160  Biso   1.000  H
  H48      1.0000 0.61420  0.45520  0.95160  Biso   1.000  H
  C81      1.0000 0.31150  0.46870  0.43610  Biso   1.000  C
  C82      1.0000 0.68850  0.03130  0.93610  Biso   1.000  C
  C83      1.0000 0.31150  0.53130  0.56390  Biso   1.000  C
  C84      1.0000 0.68850  0.96870  0.06390  Biso   1.000  C
  C85      1.0000 0.81150  0.96870  0.43610  Biso   1.000  C
  C86      1.0000 0.18850  0.53130  0.93610  Biso   1.000  C
  C87      1.0000 0.81150  0.03130  0.56390  Biso   1.000  C
  C88      1.0000 0.18850  0.46870  0.06390  Biso   1.000  C
  C89      1.0000 0.68850  0.53130  0.56390  Biso   1.000  C
  C90      1.0000 0.31150  0.96870  0.06390  Biso   1.000  C
  C91      1.0000 0.68850  0.46870  0.43610  Biso   1.000  C
  C92      1.0000 0.31150  0.03130  0.93610  Biso   1.000  C
  C93      1.0000 0.18850  0.03130  0.56390  Biso   1.000  C
  C94      1.0000 0.81150  0.46870  0.06390  Biso   1.000  C
  C95      1.0000 0.18850  0.96870  0.43610  Biso   1.000  C
  C96      1.0000 0.81150  0.53130  0.93610  Biso   1.000  C
  H49      1.0000 0.36180  0.45070  0.45770  Biso   1.000  H
  H50      1.0000 0.63820  0.04930  0.95770  Biso   1.000  H
  H51      1.0000 0.36180  0.54930  0.54230  Biso   1.000  H
  H52      1.0000 0.63820  0.95070  0.04230  Biso   1.000  H
  H53      1.0000 0.86180  0.95070  0.45770  Biso   1.000  H
  H54      1.0000 0.13820  0.54930  0.95770  Biso   1.000  H
  H55      1.0000 0.86180  0.04930  0.54230  Biso   1.000  H
  H56      1.0000 0.13820  0.45070  0.04230  Biso   1.000  H
  H57      1.0000 0.63820  0.54930  0.54230  Biso   1.000  H
  H58      1.0000 0.36180  0.95070  0.04230  Biso   1.000  H
  H59      1.0000 0.63820  0.45070  0.45770  Biso   1.000  H
  H60      1.0000 0.36180  0.04930  0.95770  Biso   1.000  H
  H61      1.0000 0.13820  0.04930  0.54230  Biso   1.000  H
  H62      1.0000 0.86180  0.45070  0.04230  Biso   1.000  H
  H63      1.0000 0.13820  0.95070  0.45770  Biso   1.000  H
  H64      1.0000 0.86180  0.54930  0.95770  Biso   1.000  H
  C97      1.0000 0.31510  0.17630  0.21630  Biso   1.000  C
  C98      1.0000 0.68490  0.32370  0.71630  Biso   1.000  C
  C99      1.0000 0.31510  0.82370  0.78370  Biso   1.000  C
  C100     1.0000 0.68490  0.67630  0.28370  Biso   1.000  C
  C101     1.0000 0.81510  0.67630  0.21630  Biso   1.000  C
  C102     1.0000 0.18490  0.82370  0.71630  Biso   1.000  C
  C103     1.0000 0.81510  0.32370  0.78370  Biso   1.000  C
  C104     1.0000 0.18490  0.17630  0.28370  Biso   1.000  C
  C105     1.0000 0.68490  0.82370  0.78370  Biso   1.000  C
  C106     1.0000 0.31510  0.67630  0.28370  Biso   1.000  C
  C107     1.0000 0.68490  0.17630  0.21630  Biso   1.000  C
  C108     1.0000 0.31510  0.32370  0.71630  Biso   1.000  C
  C109     1.0000 0.18490  0.32370  0.78370  Biso   1.000  C
  C110     1.0000 0.81510  0.17630  0.28370  Biso   1.000  C
  C111     1.0000 0.18490  0.67630  0.21630  Biso   1.000  C
  C112     1.0000 0.81510  0.82370  0.71630  Biso   1.000  C
  H65      1.0000 0.36110  0.19620  0.19270  Biso   1.000  H
  H66      1.0000 0.63890  0.30380  0.69270  Biso   1.000  H
  H67      1.0000 0.36110  0.80380  0.80730  Biso   1.000  H
  H68      1.0000 0.63890  0.69620  0.30730  Biso   1.000  H
  H69      1.0000 0.86110  0.69620  0.19270  Biso   1.000  H
  H70      1.0000 0.13890  0.80380  0.69270  Biso   1.000  H
  H71      1.0000 0.86110  0.30380  0.80730  Biso   1.000  H
  H72      1.0000 0.13890  0.19620  0.30730  Biso   1.000  H
  H73      1.0000 0.63890  0.80380  0.80730  Biso   1.000  H
  H74      1.0000 0.36110  0.69620  0.30730  Biso   1.000  H
  H75      1.0000 0.63890  0.19620  0.19270  Biso   1.000  H
  H76      1.0000 0.36110  0.30380  0.69270  Biso   1.000  H
  H77      1.0000 0.13890  0.30380  0.80730  Biso   1.000  H
  H78      1.0000 0.86110  0.19620  0.30730  Biso   1.000  H
  H79      1.0000 0.13890  0.69620  0.19270  Biso   1.000  H
  H80      1.0000 0.86110  0.80380  0.69270  Biso   1.000  H
  C113     1.0000 0.31030  0.46610  0.37320  Biso   1.000  C
  C114     1.0000 0.68970  0.03390  0.87320  Biso   1.000  C
  C115     1.0000 0.31030  0.53390  0.62680  Biso   1.000  C
  C116     1.0000 0.68970  0.96610  0.12680  Biso   1.000  C
  C117     1.0000 0.81030  0.96610  0.37320  Biso   1.000  C
  C118     1.0000 0.18970  0.53390  0.87320  Biso   1.000  C
  C119     1.0000 0.81030  0.03390  0.62680  Biso   1.000  C
  C120     1.0000 0.18970  0.46610  0.12680  Biso   1.000  C
  C121     1.0000 0.68970  0.53390  0.62680  Biso   1.000  C
  C122     1.0000 0.31030  0.96610  0.12680  Biso   1.000  C
  C123     1.0000 0.68970  0.46610  0.37320  Biso   1.000  C
  C124     1.0000 0.31030  0.03390  0.87320  Biso   1.000  C
  C125     1.0000 0.18970  0.03390  0.62680  Biso   1.000  C
  C126     1.0000 0.81030  0.46610  0.12680  Biso   1.000  C
  C127     1.0000 0.18970  0.96610  0.37320  Biso   1.000  C
  C128     1.0000 0.81030  0.53390  0.87320  Biso   1.000  C
  H81      1.0000 0.35870  0.44450  0.35330  Biso   1.000  H
  H82      1.0000 0.64130  0.05550  0.85330  Biso   1.000  H
  H83      1.0000 0.35870  0.55550  0.64670  Biso   1.000  H
  H84      1.0000 0.64130  0.94450  0.14670  Biso   1.000  H
  H85      1.0000 0.85870  0.94450  0.35330  Biso   1.000  H
  H86      1.0000 0.14130  0.55550  0.85330  Biso   1.000  H
  H87      1.0000 0.85870  0.05550  0.64670  Biso   1.000  H
  H88      1.0000 0.14130  0.44450  0.14670  Biso   1.000  H
  H89      1.0000 0.64130  0.55550  0.64670  Biso   1.000  H
  H90      1.0000 0.35870  0.94450  0.14670  Biso   1.000  H
  H91      1.0000 0.64130  0.44450  0.35330  Biso   1.000  H
  H92      1.0000 0.35870  0.05550  0.85330  Biso   1.000  H
  H93      1.0000 0.14130  0.05550  0.64670  Biso   1.000  H
  H94      1.0000 0.85870  0.44450  0.14670  Biso   1.000  H
  H95      1.0000 0.14130  0.94450  0.35330  Biso   1.000  H
  H96      1.0000 0.85870  0.55550  0.85330  Biso   1.000  H
  C129     1.0000 0.17070  0.52190  0.37030  Biso   1.000  C
  C130     1.0000 0.82930  0.97810  0.87030  Biso   1.000  C
  C131     1.0000 0.17070  0.47810  0.62970  Biso   1.000  C
  C132     1.0000 0.82930  0.02190  0.12970  Biso   1.000  C
  C133     1.0000 0.67070  0.02190  0.37030  Biso   1.000  C
  C134     1.0000 0.32930  0.47810  0.87030  Biso   1.000  C
  C135     1.0000 0.67070  0.97810  0.62970  Biso   1.000  C
  C136     1.0000 0.32930  0.52190  0.12970  Biso   1.000  C
  C137     1.0000 0.82930  0.47810  0.62970  Biso   1.000  C
  C138     1.0000 0.17070  0.02190  0.12970  Biso   1.000  C
  C139     1.0000 0.82930  0.52190  0.37030  Biso   1.000  C
  C140     1.0000 0.17070  0.97810  0.87030  Biso   1.000  C
  C141     1.0000 0.32930  0.97810  0.62970  Biso   1.000  C
  C142     1.0000 0.67070  0.52190  0.12970  Biso   1.000  C
  C143     1.0000 0.32930  0.02190  0.37030  Biso   1.000  C
  C144     1.0000 0.67070  0.47810  0.87030  Biso   1.000  C
  H97      1.0000 0.12200  0.54060  0.34780  Biso   1.000  H
  H98      1.0000 0.87800  0.95940  0.84780  Biso   1.000  H
  H99      1.0000 0.12200  0.45940  0.65220  Biso   1.000  H
  H100     1.0000 0.87800  0.04060  0.15220  Biso   1.000  H
  H101     1.0000 0.62200  0.04060  0.34780  Biso   1.000  H
  H102     1.0000 0.37800  0.45940  0.84780  Biso   1.000  H
  H103     1.0000 0.62200  0.95940  0.65220  Biso   1.000  H
  H104     1.0000 0.37800  0.54060  0.15220  Biso   1.000  H
  H105     1.0000 0.87800  0.45940  0.65220  Biso   1.000  H
  H106     1.0000 0.12200  0.04060  0.15220  Biso   1.000  H
  H107     1.0000 0.87800  0.54060  0.34780  Biso   1.000  H
  H108     1.0000 0.12200  0.95940  0.84780  Biso   1.000  H
  H109     1.0000 0.37800  0.95940  0.65220  Biso   1.000  H
  H110     1.0000 0.62200  0.54060  0.15220  Biso   1.000  H
  H111     1.0000 0.37800  0.04060  0.34780  Biso   1.000  H
  H112     1.0000 0.62200  0.45940  0.84780  Biso   1.000  H
  N25      1.0000 0.25000  0.08340  0.25000  Biso   1.000  N
  N26      1.0000 0.75000  0.41660  0.75000  Biso   1.000  N
  N27      1.0000 0.25000  0.91660  0.75000  Biso   1.000  N
  N28      1.0000 0.75000  0.58340  0.25000  Biso   1.000  N
  N29      1.0000 0.75000  0.91660  0.75000  Biso   1.000  N
  N30      1.0000 0.25000  0.58340  0.25000  Biso   1.000  N
  N31      1.0000 0.75000  0.08340  0.25000  Biso   1.000  N
  N32      1.0000 0.25000  0.41660  0.75000  Biso   1.000  N
  C145     1.0000 0.31300  0.11470  0.21680  Biso   1.000  C
  C146     1.0000 0.68700  0.38530  0.71680  Biso   1.000  C
  C147     1.0000 0.31300  0.88530  0.78320  Biso   1.000  C
  C148     1.0000 0.68700  0.61470  0.28320  Biso   1.000  C
  C149     1.0000 0.81300  0.61470  0.21680  Biso   1.000  C
  C150     1.0000 0.18700  0.88530  0.71680  Biso   1.000  C
  C151     1.0000 0.81300  0.38530  0.78320  Biso   1.000  C
  C152     1.0000 0.18700  0.11470  0.28320  Biso   1.000  C
  C153     1.0000 0.68700  0.88530  0.78320  Biso   1.000  C
  C154     1.0000 0.31300  0.61470  0.28320  Biso   1.000  C
  C155     1.0000 0.68700  0.11470  0.21680  Biso   1.000  C
  C156     1.0000 0.31300  0.38530  0.71680  Biso   1.000  C
  C157     1.0000 0.18700  0.38530  0.78320  Biso   1.000  C
  C158     1.0000 0.81300  0.11470  0.28320  Biso   1.000  C
  C159     1.0000 0.18700  0.61470  0.21680  Biso   1.000  C
  C160     1.0000 0.81300  0.88530  0.71680  Biso   1.000  C
  H113     1.0000 0.35750  0.09380  0.19300  Biso   1.000  H
  H114     1.0000 0.64250  0.40620  0.69300  Biso   1.000  H
  H115     1.0000 0.35750  0.90620  0.80700  Biso   1.000  H
  H116     1.0000 0.64250  0.59380  0.30700  Biso   1.000  H
  H117     1.0000 0.85750  0.59380  0.19300  Biso   1.000  H
  H118     1.0000 0.14250  0.90620  0.69300  Biso   1.000  H
  H119     1.0000 0.85750  0.40620  0.80700  Biso   1.000  H
  H120     1.0000 0.14250  0.09380  0.30700  Biso   1.000  H
  H121     1.0000 0.64250  0.90620  0.80700  Biso   1.000  H
  H122     1.0000 0.35750  0.59380  0.30700  Biso   1.000  H
  H123     1.0000 0.64250  0.09380  0.19300  Biso   1.000  H
  H124     1.0000 0.35750  0.40620  0.69300  Biso   1.000  H
  H125     1.0000 0.14250  0.40620  0.80700  Biso   1.000  H
  H126     1.0000 0.85750  0.09380  0.30700  Biso   1.000  H
  H127     1.0000 0.14250  0.59380  0.19300  Biso   1.000  H
  H128     1.0000 0.85750  0.90620  0.69300  Biso   1.000  H
  N33      1.0000 0.50000  0.47400  0.26480  Biso   1.000  N
  N34      1.0000 0.50000  0.02600  0.76480  Biso   1.000  N
  N35      1.0000 0.50000  0.52600  0.73520  Biso   1.000  N
  N36      1.0000 0.50000  0.97400  0.23520  Biso   1.000  N
  N37      1.0000 0.00000  0.97400  0.26480  Biso   1.000  N
  N38      1.0000 0.00000  0.52600  0.76480  Biso   1.000  N
  N39      1.0000 0.00000  0.02600  0.73520  Biso   1.000  N
  N40      1.0000 0.00000  0.47400  0.23520  Biso   1.000  N
  O17      1.0000 0.50000  0.42380  0.29020  Biso   1.000  O
  O18      1.0000 0.50000  0.07620  0.79020  Biso   1.000  O
  O19      1.0000 0.50000  0.57620  0.70980  Biso   1.000  O
  O20      1.0000 0.50000  0.92380  0.20980  Biso   1.000  O
  O21      1.0000 0.00000  0.92380  0.29020  Biso   1.000  O
  O22      1.0000 0.00000  0.57620  0.79020  Biso   1.000  O
  O23      1.0000 0.00000  0.07620  0.70980  Biso   1.000  O
  O24      1.0000 0.00000  0.42380  0.20980  Biso   1.000  O
  O25      1.0000 0.70800  0.70600  0.05360  Biso   1.000  O
  O26      1.0000 0.29200  0.79400  0.55360  Biso   1.000  O
  O27      1.0000 0.70800  0.29400  0.94640  Biso   1.000  O
  O28      1.0000 0.29200  0.20600  0.44640  Biso   1.000  O
  O29      1.0000 0.20800  0.20600  0.05360  Biso   1.000  O
  O30      1.0000 0.79200  0.29400  0.55360  Biso   1.000  O
  O31      1.0000 0.20800  0.79400  0.94640  Biso   1.000  O
  O32      1.0000 0.79200  0.70600  0.44640  Biso   1.000  O
  O33      1.0000 0.29200  0.29400  0.94640  Biso   1.000  O
  O34      1.0000 0.70800  0.20600  0.44640  Biso   1.000  O
  O35      1.0000 0.29200  0.70600  0.05360  Biso   1.000  O
  O36      1.0000 0.70800  0.79400  0.55360  Biso   1.000  O
  O37      1.0000 0.79200  0.79400  0.94640  Biso   1.000  O
  O38      1.0000 0.20800  0.70600  0.44640  Biso   1.000  O
  O39      1.0000 0.79200  0.20600  0.05360  Biso   1.000  O
  O40      1.0000 0.20800  0.29400  0.55360  Biso   1.000  O
  N41      1.0000 0.59100  0.73890  0.11640  Biso   1.000  N
  N42      1.0000 0.40900  0.76110  0.61640  Biso   1.000  N
  N43      1.0000 0.59100  0.26110  0.88360  Biso   1.000  N
  N44      1.0000 0.40900  0.23890  0.38360  Biso   1.000  N
  N45      1.0000 0.09100  0.23890  0.11640  Biso   1.000  N
  N46      1.0000 0.90900  0.26110  0.61640  Biso   1.000  N
  N47      1.0000 0.09100  0.76110  0.88360  Biso   1.000  N
  N48      1.0000 0.90900  0.73890  0.38360  Biso   1.000  N
  N49      1.0000 0.40900  0.26110  0.88360  Biso   1.000  N
  N50      1.0000 0.59100  0.23890  0.38360  Biso   1.000  N
  N51      1.0000 0.40900  0.73890  0.11640  Biso   1.000  N
  N52      1.0000 0.59100  0.76110  0.61640  Biso   1.000  N
  N53      1.0000 0.90900  0.76110  0.88360  Biso   1.000  N
  N54      1.0000 0.09100  0.73890  0.38360  Biso   1.000  N
  N55      1.0000 0.90900  0.23890  0.11640  Biso   1.000  N
  N56      1.0000 0.09100  0.26110  0.61640  Biso   1.000  N
  C161     1.0000 0.66600  0.74590  0.08040  Biso   1.000  C
  C162     1.0000 0.33400  0.75410  0.58040  Biso   1.000  C
  C163     1.0000 0.66600  0.25410  0.91960  Biso   1.000  C
  C164     1.0000 0.33400  0.24590  0.41960  Biso   1.000  C
  C165     1.0000 0.16600  0.24590  0.08040  Biso   1.000  C
  C166     1.0000 0.83400  0.25410  0.58040  Biso   1.000  C
  C167     1.0000 0.16600  0.75410  0.91960  Biso   1.000  C
  C168     1.0000 0.83400  0.74590  0.41960  Biso   1.000  C
  C169     1.0000 0.33400  0.25410  0.91960  Biso   1.000  C
  C170     1.0000 0.66600  0.24590  0.41960  Biso   1.000  C
  C171     1.0000 0.33400  0.74590  0.08040  Biso   1.000  C
  C172     1.0000 0.66600  0.75410  0.58040  Biso   1.000  C
  C173     1.0000 0.83400  0.75410  0.91960  Biso   1.000  C
  C174     1.0000 0.16600  0.74590  0.41960  Biso   1.000  C
  C175     1.0000 0.83400  0.24590  0.08040  Biso   1.000  C
  C176     1.0000 0.16600  0.25410  0.58040  Biso   1.000  C
  H129     1.0000 0.68900  0.78480  0.07480  Biso   1.000  H
  H130     1.0000 0.31100  0.71520  0.57480  Biso   1.000  H
  H131     1.0000 0.68900  0.21520  0.92520  Biso   1.000  H
  H132     1.0000 0.31100  0.28480  0.42520  Biso   1.000  H
  H133     1.0000 0.18900  0.28480  0.07480  Biso   1.000  H
  H134     1.0000 0.81100  0.21520  0.57480  Biso   1.000  H
  H135     1.0000 0.18900  0.71520  0.92520  Biso   1.000  H
  H136     1.0000 0.81100  0.78480  0.42520  Biso   1.000  H
  H137     1.0000 0.31100  0.21520  0.92520  Biso   1.000  H
  H138     1.0000 0.68900  0.28480  0.42520  Biso   1.000  H
  H139     1.0000 0.31100  0.78480  0.07480  Biso   1.000  H
  H140     1.0000 0.68900  0.71520  0.57480  Biso   1.000  H
  H141     1.0000 0.81100  0.71520  0.92520  Biso   1.000  H
  H142     1.0000 0.18900  0.78480  0.42520  Biso   1.000  H
  H143     1.0000 0.81100  0.28480  0.07480  Biso   1.000  H
  H144     1.0000 0.18900  0.21520  0.57480  Biso   1.000  H
  C177     1.0000 0.55300  0.68050  0.12800  Biso   1.000  C
  C178     1.0000 0.44700  0.81950  0.62800  Biso   1.000  C
  C179     1.0000 0.55300  0.31950  0.87200  Biso   1.000  C
  C180     1.0000 0.44700  0.18050  0.37200  Biso   1.000  C
  C181     1.0000 0.05300  0.18050  0.12800  Biso   1.000  C
  C182     1.0000 0.94700  0.31950  0.62800  Biso   1.000  C
  C183     1.0000 0.05300  0.81950  0.87200  Biso   1.000  C
  C184     1.0000 0.94700  0.68050  0.37200  Biso   1.000  C
  C185     1.0000 0.44700  0.31950  0.87200  Biso   1.000  C
  C186     1.0000 0.55300  0.18050  0.37200  Biso   1.000  C
  C187     1.0000 0.44700  0.68050  0.12800  Biso   1.000  C
  C188     1.0000 0.55300  0.81950  0.62800  Biso   1.000  C
  C189     1.0000 0.94700  0.81950  0.87200  Biso   1.000  C
  C190     1.0000 0.05300  0.68050  0.37200  Biso   1.000  C
  C191     1.0000 0.94700  0.18050  0.12800  Biso   1.000  C
  C192     1.0000 0.05300  0.31950  0.62800  Biso   1.000  C
  H145     1.0000 0.49830  0.68370  0.15560  Biso   1.000  H
  H146     1.0000 0.50170  0.81630  0.65560  Biso   1.000  H
  H147     1.0000 0.49830  0.31630  0.84440  Biso   1.000  H
  H148     1.0000 0.50170  0.18370  0.34440  Biso   1.000  H
  H149     1.0000 0.99830  0.18370  0.15560  Biso   1.000  H
  H150     1.0000 0.00170  0.31630  0.65560  Biso   1.000  H
  H151     1.0000 0.99830  0.81630  0.84440  Biso   1.000  H
  H152     1.0000 0.00170  0.68370  0.34440  Biso   1.000  H
  H153     1.0000 0.50170  0.31630  0.84440  Biso   1.000  H
  H154     1.0000 0.49830  0.18370  0.34440  Biso   1.000  H
  H155     1.0000 0.50170  0.68370  0.15560  Biso   1.000  H
  H156     1.0000 0.49830  0.81630  0.65560  Biso   1.000  H
  H157     1.0000 0.00170  0.81630  0.84440  Biso   1.000  H
  H158     1.0000 0.99830  0.68370  0.34440  Biso   1.000  H
  H159     1.0000 0.00170  0.18370  0.15560  Biso   1.000  H
  H160     1.0000 0.99830  0.31630  0.65560  Biso   1.000  H
  H161     1.0000 0.53170  0.66230  0.09140  Biso   1.000  H
  H162     1.0000 0.46830  0.83770  0.59140  Biso   1.000  H
  H163     1.0000 0.53170  0.33770  0.90860  Biso   1.000  H
  H164     1.0000 0.46830  0.16230  0.40860  Biso   1.000  H
  H165     1.0000 0.03170  0.16230  0.09140  Biso   1.000  H
  H166     1.0000 0.96830  0.33770  0.59140  Biso   1.000  H
  H167     1.0000 0.03170  0.83770  0.90860  Biso   1.000  H
  H168     1.0000 0.96830  0.66230  0.40860  Biso   1.000  H
  H169     1.0000 0.46830  0.33770  0.90860  Biso   1.000  H
  H170     1.0000 0.53170  0.16230  0.40860  Biso   1.000  H
  H171     1.0000 0.46830  0.66230  0.09140  Biso   1.000  H
  H172     1.0000 0.53170  0.83770  0.59140  Biso   1.000  H
  H173     1.0000 0.96830  0.83770  0.90860  Biso   1.000  H
  H174     1.0000 0.03170  0.66230  0.40860  Biso   1.000  H
  H175     1.0000 0.96830  0.16230  0.09140  Biso   1.000  H
  H176     1.0000 0.03170  0.33770  0.59140  Biso   1.000  H
  H177     1.0000 0.60270  0.65600  0.14660  Biso   1.000  H
  H178     1.0000 0.39730  0.84400  0.64660  Biso   1.000  H
  H179     1.0000 0.60270  0.34400  0.85340  Biso   1.000  H
  H180     1.0000 0.39730  0.15600  0.35340  Biso   1.000  H
  H181     1.0000 0.10270  0.15600  0.14660  Biso   1.000  H
  H182     1.0000 0.89730  0.34400  0.64660  Biso   1.000  H
  H183     1.0000 0.10270  0.84400  0.85340  Biso   1.000  H
  H184     1.0000 0.89730  0.65600  0.35340  Biso   1.000  H
  H185     1.0000 0.39730  0.34400  0.85340  Biso   1.000  H
  H186     1.0000 0.60270  0.15600  0.35340  Biso   1.000  H
  H187     1.0000 0.39730  0.65600  0.14660  Biso   1.000  H
  H188     1.0000 0.60270  0.84400  0.64660  Biso   1.000  H
  H189     1.0000 0.89730  0.84400  0.85340  Biso   1.000  H
  H190     1.0000 0.10270  0.65600  0.35340  Biso   1.000  H
  H191     1.0000 0.89730  0.15600  0.14660  Biso   1.000  H
  H192     1.0000 0.10270  0.34400  0.64660  Biso   1.000  H
  C193     1.0000 0.54400  0.78940  0.14600  Biso   1.000  C
  C194     1.0000 0.45600  0.71060  0.64600  Biso   1.000  C
  C195     1.0000 0.54400  0.21060  0.85400  Biso   1.000  C
  C196     1.0000 0.45600  0.28940  0.35400  Biso   1.000  C
  C197     1.0000 0.04400  0.28940  0.14600  Biso   1.000  C
  C198     1.0000 0.95600  0.21060  0.64600  Biso   1.000  C
  C199     1.0000 0.04400  0.71060  0.85400  Biso   1.000  C
  C200     1.0000 0.95600  0.78940  0.35400  Biso   1.000  C
  C201     1.0000 0.45600  0.21060  0.85400  Biso   1.000  C
  C202     1.0000 0.54400  0.28940  0.35400  Biso   1.000  C
  C203     1.0000 0.45600  0.78940  0.14600  Biso   1.000  C
  C204     1.0000 0.54400  0.71060  0.64600  Biso   1.000  C
  C205     1.0000 0.95600  0.71060  0.85400  Biso   1.000  C
  C206     1.0000 0.04400  0.78940  0.35400  Biso   1.000  C
  C207     1.0000 0.95600  0.28940  0.14600  Biso   1.000  C
  C208     1.0000 0.04400  0.21060  0.64600  Biso   1.000  C
  H193     1.0000 0.49110  0.77510  0.17050  Biso   1.000  H
  H194     1.0000 0.50890  0.72490  0.67050  Biso   1.000  H
  H195     1.0000 0.49110  0.22490  0.82950  Biso   1.000  H
  H196     1.0000 0.50890  0.27510  0.32950  Biso   1.000  H
  H197     1.0000 0.99110  0.27510  0.17050  Biso   1.000  H
  H198     1.0000 0.00890  0.22490  0.67050  Biso   1.000  H
  H199     1.0000 0.99110  0.72490  0.82950  Biso   1.000  H
  H200     1.0000 0.00890  0.77510  0.32950  Biso   1.000  H
  H201     1.0000 0.50890  0.22490  0.82950  Biso   1.000  H
  H202     1.0000 0.49110  0.27510  0.32950  Biso   1.000  H
  H203     1.0000 0.50890  0.77510  0.17050  Biso   1.000  H
  H204     1.0000 0.49110  0.72490  0.67050  Biso   1.000  H
  H205     1.0000 0.00890  0.72490  0.82950  Biso   1.000  H
  H206     1.0000 0.99110  0.77510  0.32950  Biso   1.000  H
  H207     1.0000 0.00890  0.27510  0.17050  Biso   1.000  H
  H208     1.0000 0.99110  0.22490  0.67050  Biso   1.000  H
  H209     1.0000 0.59100  0.80950  0.17150  Biso   1.000  H
  H210     1.0000 0.40900  0.69050  0.67150  Biso   1.000  H
  H211     1.0000 0.59100  0.19050  0.82850  Biso   1.000  H
  H212     1.0000 0.40900  0.30950  0.32850  Biso   1.000  H
  H213     1.0000 0.09100  0.30950  0.17150  Biso   1.000  H
  H214     1.0000 0.90900  0.19050  0.67150  Biso   1.000  H
  H215     1.0000 0.09100  0.69050  0.82850  Biso   1.000  H
  H216     1.0000 0.90900  0.80950  0.32850  Biso   1.000  H
  H217     1.0000 0.40900  0.19050  0.82850  Biso   1.000  H
  H218     1.0000 0.59100  0.30950  0.32850  Biso   1.000  H
  H219     1.0000 0.40900  0.80950  0.17150  Biso   1.000  H
  H220     1.0000 0.59100  0.69050  0.67150  Biso   1.000  H
  H221     1.0000 0.90900  0.69050  0.82850  Biso   1.000  H
  H222     1.0000 0.09100  0.80950  0.32850  Biso   1.000  H
  H223     1.0000 0.90900  0.30950  0.17150  Biso   1.000  H
  H224     1.0000 0.09100  0.19050  0.67150  Biso   1.000  H
  H225     1.0000 0.52000  0.81700  0.11650  Biso   1.000  H
  H226     1.0000 0.48000  0.68300  0.61650  Biso   1.000  H
  H227     1.0000 0.52000  0.18300  0.88350  Biso   1.000  H
  H228     1.0000 0.48000  0.31700  0.38350  Biso   1.000  H
  H229     1.0000 0.02000  0.31700  0.11650  Biso   1.000  H
  H230     1.0000 0.98000  0.18300  0.61650  Biso   1.000  H
  H231     1.0000 0.02000  0.68300  0.88350  Biso   1.000  H
  H232     1.0000 0.98000  0.81700  0.38350  Biso   1.000  H
  H233     1.0000 0.48000  0.18300  0.88350  Biso   1.000  H
  H234     1.0000 0.52000  0.31700  0.38350  Biso   1.000  H
  H235     1.0000 0.48000  0.81700  0.11650  Biso   1.000  H
  H236     1.0000 0.52000  0.68300  0.61650  Biso   1.000  H
  H237     1.0000 0.98000  0.68300  0.88350  Biso   1.000  H
  H238     1.0000 0.02000  0.81700  0.38350  Biso   1.000  H
  H239     1.0000 0.98000  0.31700  0.11650  Biso   1.000  H
  H240     1.0000 0.02000  0.18300  0.61650  Biso   1.000  H
  N57      1.0000 0.50000  0.51100  0.25000  Biso   1.000  N
  N58      1.0000 0.50000  0.98900  0.75000  Biso   1.000  N
  N59      1.0000 0.50000  0.48900  0.75000  Biso   1.000  N
  N60      1.0000 0.50000  0.01100  0.25000  Biso   1.000  N
  N61      1.0000 0.00000  0.01100  0.25000  Biso   1.000  N
  N62      1.0000 0.00000  0.48900  0.75000  Biso   1.000  N
  N63      1.0000 0.00000  0.98900  0.75000  Biso   1.000  N
  N64      1.0000 0.00000  0.51100  0.25000  Biso   1.000  N
  O41      1.0000 0.50000  0.56100  0.22100  Biso   1.000  O
  O42      1.0000 0.50000  0.93900  0.72100  Biso   1.000  O
  O43      1.0000 0.50000  0.43900  0.77900  Biso   1.000  O
  O44      1.0000 0.50000  0.06100  0.27900  Biso   1.000  O
  O45      1.0000 0.00000  0.06100  0.22100  Biso   1.000  O
  O46      1.0000 0.00000  0.43900  0.72100  Biso   1.000  O
  O47      1.0000 0.00000  0.93900  0.77900  Biso   1.000  O
  O48      1.0000 0.00000  0.56100  0.27900  Biso   1.000  O
  O49      1.0000 0.50000  0.73300  0.16800  Biso   1.000  O
  O50      1.0000 0.50000  0.76700  0.66800  Biso   1.000  O
  O51      1.0000 0.50000  0.26700  0.83200  Biso   1.000  O
  O52      1.0000 0.50000  0.23300  0.33200  Biso   1.000  O
  O53      1.0000 0.00000  0.23300  0.16800  Biso   1.000  O
  O54      1.0000 0.00000  0.26700  0.66800  Biso   1.000  O
  O55      1.0000 0.00000  0.76700  0.83200  Biso   1.000  O
  O56      1.0000 0.00000  0.73300  0.33200  Biso   1.000  O
  O57      1.0000 0.78000  0.69900  0.95400  Biso   1.000  O
  O58      1.0000 0.22000  0.80100  0.45400  Biso   1.000  O
  O59      1.0000 0.78000  0.30100  0.04600  Biso   1.000  O
  O60      1.0000 0.22000  0.19900  0.54600  Biso   1.000  O
  O61      1.0000 0.28000  0.19900  0.95400  Biso   1.000  O
  O62      1.0000 0.72000  0.30100  0.45400  Biso   1.000  O
  O63      1.0000 0.28000  0.80100  0.04600  Biso   1.000  O
  O64      1.0000 0.72000  0.69900  0.54600  Biso   1.000  O
  O65      1.0000 0.22000  0.30100  0.04600  Biso   1.000  O
  O66      1.0000 0.78000  0.19900  0.54600  Biso   1.000  O
  O67      1.0000 0.22000  0.69900  0.95400  Biso   1.000  O
  O68      1.0000 0.78000  0.80100  0.45400  Biso   1.000  O
  O69      1.0000 0.72000  0.80100  0.04600  Biso   1.000  O
  O70      1.0000 0.28000  0.69900  0.54600  Biso   1.000  O
  O71      1.0000 0.72000  0.19900  0.95400  Biso   1.000  O
  O72      1.0000 0.28000  0.30100  0.45400  Biso   1.000  O
  N65      1.0000 0.72900  0.76600  0.02400  Biso   1.000  N
  N66      1.0000 0.27100  0.73400  0.52400  Biso   1.000  N
  N67      1.0000 0.72900  0.23400  0.97600  Biso   1.000  N
  N68      1.0000 0.27100  0.26600  0.47600  Biso   1.000  N
  N69      1.0000 0.22900  0.26600  0.02400  Biso   1.000  N
  N70      1.0000 0.77100  0.23400  0.52400  Biso   1.000  N
  N71      1.0000 0.22900  0.73400  0.97600  Biso   1.000  N
  N72      1.0000 0.77100  0.76600  0.47600  Biso   1.000  N
  N73      1.0000 0.27100  0.23400  0.97600  Biso   1.000  N
  N74      1.0000 0.72900  0.26600  0.47600  Biso   1.000  N
  N75      1.0000 0.27100  0.76600  0.02400  Biso   1.000  N
  N76      1.0000 0.72900  0.73400  0.52400  Biso   1.000  N
  N77      1.0000 0.77100  0.73400  0.97600  Biso   1.000  N
  N78      1.0000 0.22900  0.76600  0.47600  Biso   1.000  N
  N79      1.0000 0.77100  0.26600  0.02400  Biso   1.000  N
  N80      1.0000 0.22900  0.23400  0.52400  Biso   1.000  N
  C209     1.0000 0.74200  0.71100  0.00200  Biso   1.000  C
  C210     1.0000 0.25800  0.78900  0.50200  Biso   1.000  C
  C211     1.0000 0.74200  0.28900  0.99800  Biso   1.000  C
  C212     1.0000 0.25800  0.21100  0.49800  Biso   1.000  C
  C213     1.0000 0.24200  0.21100  0.00200  Biso   1.000  C
  C214     1.0000 0.75800  0.28900  0.50200  Biso   1.000  C
  C215     1.0000 0.24200  0.78900  0.99800  Biso   1.000  C
  C216     1.0000 0.75800  0.71100  0.49800  Biso   1.000  C
  C217     1.0000 0.25800  0.28900  0.99800  Biso   1.000  C
  C218     1.0000 0.74200  0.21100  0.49800  Biso   1.000  C
  C219     1.0000 0.25800  0.71100  0.00200  Biso   1.000  C
  C220     1.0000 0.74200  0.78900  0.50200  Biso   1.000  C
  C221     1.0000 0.75800  0.78900  0.99800  Biso   1.000  C
  C222     1.0000 0.24200  0.71100  0.49800  Biso   1.000  C
  C223     1.0000 0.75800  0.21100  0.00200  Biso   1.000  C
  C224     1.0000 0.24200  0.28900  0.50200  Biso   1.000  C
  H241     1.0000 0.72020  0.67950  0.02570  Biso   1.000  H
  H242     1.0000 0.27980  0.82050  0.52570  Biso   1.000  H
  H243     1.0000 0.72020  0.32050  0.97430  Biso   1.000  H
  H244     1.0000 0.27980  0.17950  0.47430  Biso   1.000  H
  H245     1.0000 0.22020  0.17950  0.02570  Biso   1.000  H
  H246     1.0000 0.77980  0.32050  0.52570  Biso   1.000  H
  H247     1.0000 0.22020  0.82050  0.97430  Biso   1.000  H
  H248     1.0000 0.77980  0.67950  0.47430  Biso   1.000  H
  H249     1.0000 0.27980  0.32050  0.97430  Biso   1.000  H
  H250     1.0000 0.72020  0.17950  0.47430  Biso   1.000  H
  H251     1.0000 0.27980  0.67950  0.02570  Biso   1.000  H
  H252     1.0000 0.72020  0.82050  0.52570  Biso   1.000  H
  H253     1.0000 0.77980  0.82050  0.97430  Biso   1.000  H
  H254     1.0000 0.22020  0.67950  0.47430  Biso   1.000  H
  H255     1.0000 0.77980  0.17950  0.02570  Biso   1.000  H
  H256     1.0000 0.22020  0.32050  0.52570  Biso   1.000  H
  C225     1.0000 0.75900  0.81700  0.99000  Biso   1.000  C
  C226     1.0000 0.24100  0.68300  0.49000  Biso   1.000  C
  C227     1.0000 0.75900  0.18300  0.01000  Biso   1.000  C
  C228     1.0000 0.24100  0.31700  0.51000  Biso   1.000  C
  C229     1.0000 0.25900  0.31700  0.99000  Biso   1.000  C
  C230     1.0000 0.74100  0.18300  0.49000  Biso   1.000  C
  C231     1.0000 0.25900  0.68300  0.01000  Biso   1.000  C
  C232     1.0000 0.74100  0.81700  0.51000  Biso   1.000  C
  C233     1.0000 0.24100  0.18300  0.01000  Biso   1.000  C
  C234     1.0000 0.75900  0.31700  0.51000  Biso   1.000  C
  C235     1.0000 0.24100  0.81700  0.99000  Biso   1.000  C
  C236     1.0000 0.75900  0.68300  0.49000  Biso   1.000  C
  C237     1.0000 0.74100  0.68300  0.01000  Biso   1.000  C
  C238     1.0000 0.25900  0.81700  0.51000  Biso   1.000  C
  C239     1.0000 0.74100  0.31700  0.99000  Biso   1.000  C
  C240     1.0000 0.25900  0.18300  0.49000  Biso   1.000  C
  H257     1.0000 0.74400  0.85310  0.01260  Biso   1.000  H
  H258     1.0000 0.25600  0.64690  0.51260  Biso   1.000  H
  H259     1.0000 0.74400  0.14690  0.98740  Biso   1.000  H
  H260     1.0000 0.25600  0.35310  0.48740  Biso   1.000  H
  H261     1.0000 0.24400  0.35310  0.01260  Biso   1.000  H
  H262     1.0000 0.75600  0.14690  0.51260  Biso   1.000  H
  H263     1.0000 0.24400  0.64690  0.98740  Biso   1.000  H
  H264     1.0000 0.75600  0.85310  0.48740  Biso   1.000  H
  H265     1.0000 0.25600  0.14690  0.98740  Biso   1.000  H
  H266     1.0000 0.74400  0.35310  0.48740  Biso   1.000  H
  H267     1.0000 0.25600  0.85310  0.01260  Biso   1.000  H
  H268     1.0000 0.74400  0.64690  0.51260  Biso   1.000  H
  H269     1.0000 0.75600  0.64690  0.98740  Biso   1.000  H
  H270     1.0000 0.24400  0.85310  0.48740  Biso   1.000  H
  H271     1.0000 0.75600  0.35310  0.01260  Biso   1.000  H
  H272     1.0000 0.24400  0.14690  0.51260  Biso   1.000  H
  H273     1.0000 0.82760  0.81530  0.98250  Biso   1.000  H
  H274     1.0000 0.17240  0.68470  0.48250  Biso   1.000  H
  H275     1.0000 0.82760  0.18470  0.01750  Biso   1.000  H
  H276     1.0000 0.17240  0.31530  0.51750  Biso   1.000  H
  H277     1.0000 0.32760  0.31530  0.98250  Biso   1.000  H
  H278     1.0000 0.67240  0.18470  0.48250  Biso   1.000  H
  H279     1.0000 0.32760  0.68470  0.01750  Biso   1.000  H
  H280     1.0000 0.67240  0.81530  0.51750  Biso   1.000  H
  H281     1.0000 0.17240  0.18470  0.01750  Biso   1.000  H
  H282     1.0000 0.82760  0.31530  0.51750  Biso   1.000  H
  H283     1.0000 0.17240  0.81530  0.98250  Biso   1.000  H
  H284     1.0000 0.82760  0.68470  0.48250  Biso   1.000  H
  H285     1.0000 0.67240  0.68470  0.01750  Biso   1.000  H
  H286     1.0000 0.32760  0.81530  0.51750  Biso   1.000  H
  H287     1.0000 0.67240  0.31530  0.98250  Biso   1.000  H
  H288     1.0000 0.32760  0.18470  0.48250  Biso   1.000  H
  H289     1.0000 0.72410  0.81810  0.95250  Biso   1.000  H
  H290     1.0000 0.27590  0.68190  0.45250  Biso   1.000  H
  H291     1.0000 0.72410  0.18190  0.04750  Biso   1.000  H
  H292     1.0000 0.27590  0.31810  0.54750  Biso   1.000  H
  H293     1.0000 0.22410  0.31810  0.95250  Biso   1.000  H
  H294     1.0000 0.77590  0.18190  0.45250  Biso   1.000  H
  H295     1.0000 0.22410  0.68190  0.04750  Biso   1.000  H
  H296     1.0000 0.77590  0.81810  0.54750  Biso   1.000  H
  H297     1.0000 0.27590  0.18190  0.04750  Biso   1.000  H
  H298     1.0000 0.72410  0.31810  0.54750  Biso   1.000  H
  H299     1.0000 0.27590  0.81810  0.95250  Biso   1.000  H
  H300     1.0000 0.72410  0.68190  0.45250  Biso   1.000  H
  H301     1.0000 0.77590  0.68190  0.04750  Biso   1.000  H
  H302     1.0000 0.22410  0.81810  0.54750  Biso   1.000  H
  H303     1.0000 0.77590  0.31810  0.95250  Biso   1.000  H
  H304     1.0000 0.22410  0.18190  0.45250  Biso   1.000  H
  C241     1.0000 0.68400  0.77600  0.08200  Biso   1.000  C
  C242     1.0000 0.31600  0.72400  0.58200  Biso   1.000  C
  C243     1.0000 0.68400  0.22400  0.91800  Biso   1.000  C
  C244     1.0000 0.31600  0.27600  0.41800  Biso   1.000  C
  C245     1.0000 0.18400  0.27600  0.08200  Biso   1.000  C
  C246     1.0000 0.81600  0.22400  0.58200  Biso   1.000  C
  C247     1.0000 0.18400  0.72400  0.91800  Biso   1.000  C
  C248     1.0000 0.81600  0.77600  0.41800  Biso   1.000  C
  C249     1.0000 0.31600  0.22400  0.91800  Biso   1.000  C
  C250     1.0000 0.68400  0.27600  0.41800  Biso   1.000  C
  C251     1.0000 0.31600  0.77600  0.08200  Biso   1.000  C
  C252     1.0000 0.68400  0.72400  0.58200  Biso   1.000  C
  C253     1.0000 0.81600  0.72400  0.91800  Biso   1.000  C
  C254     1.0000 0.18400  0.77600  0.41800  Biso   1.000  C
  C255     1.0000 0.81600  0.27600  0.08200  Biso   1.000  C
  C256     1.0000 0.18400  0.22400  0.58200  Biso   1.000  C
  H305     1.0000 0.68150  0.81880  0.08980  Biso   1.000  H
  H306     1.0000 0.31850  0.68120  0.58980  Biso   1.000  H
  H307     1.0000 0.68150  0.18120  0.91020  Biso   1.000  H
  H308     1.0000 0.31850  0.31880  0.41020  Biso   1.000  H
  H309     1.0000 0.18150  0.31880  0.08980  Biso   1.000  H
  H310     1.0000 0.81850  0.18120  0.58980  Biso   1.000  H
  H311     1.0000 0.18150  0.68120  0.91020  Biso   1.000  H
  H312     1.0000 0.81850  0.81880  0.41020  Biso   1.000  H
  H313     1.0000 0.31850  0.18120  0.91020  Biso   1.000  H
  H314     1.0000 0.68150  0.31880  0.41020  Biso   1.000  H
  H315     1.0000 0.31850  0.81880  0.08980  Biso   1.000  H
  H316     1.0000 0.68150  0.68120  0.58980  Biso   1.000  H
  H317     1.0000 0.81850  0.68120  0.91020  Biso   1.000  H
  H318     1.0000 0.18150  0.81880  0.41020  Biso   1.000  H
  H319     1.0000 0.81850  0.31880  0.08980  Biso   1.000  H
  H320     1.0000 0.18150  0.18120  0.58980  Biso   1.000  H
  H321     1.0000 0.61900  0.76020  0.08200  Biso   1.000  H
  H322     1.0000 0.38100  0.73980  0.58200  Biso   1.000  H
  H323     1.0000 0.61900  0.23980  0.91800  Biso   1.000  H
  H324     1.0000 0.38100  0.26020  0.41800  Biso   1.000  H
  H325     1.0000 0.11900  0.26020  0.08200  Biso   1.000  H
  H326     1.0000 0.88100  0.23980  0.58200  Biso   1.000  H
  H327     1.0000 0.11900  0.73980  0.91800  Biso   1.000  H
  H328     1.0000 0.88100  0.76020  0.41800  Biso   1.000  H
  H329     1.0000 0.38100  0.23980  0.91800  Biso   1.000  H
  H330     1.0000 0.61900  0.26020  0.41800  Biso   1.000  H
  H331     1.0000 0.38100  0.76020  0.08200  Biso   1.000  H
  H332     1.0000 0.61900  0.73980  0.58200  Biso   1.000  H
  H333     1.0000 0.88100  0.73980  0.91800  Biso   1.000  H
  H334     1.0000 0.11900  0.76020  0.41800  Biso   1.000  H
  H335     1.0000 0.88100  0.26020  0.08200  Biso   1.000  H
  H336     1.0000 0.11900  0.23980  0.58200  Biso   1.000  H
  H337     1.0000 0.72180  0.75700  0.11300  Biso   1.000  H
  H338     1.0000 0.27820  0.74300  0.61300  Biso   1.000  H
  H339     1.0000 0.72180  0.24300  0.88700  Biso   1.000  H
  H340     1.0000 0.27820  0.25700  0.38700  Biso   1.000  H
  H341     1.0000 0.22180  0.25700  0.11300  Biso   1.000  H
  H342     1.0000 0.77820  0.24300  0.61300  Biso   1.000  H
  H343     1.0000 0.22180  0.74300  0.88700  Biso   1.000  H
  H344     1.0000 0.77820  0.75700  0.38700  Biso   1.000  H
  H345     1.0000 0.27820  0.24300  0.88700  Biso   1.000  H
  H346     1.0000 0.72180  0.25700  0.38700  Biso   1.000  H
  H347     1.0000 0.27820  0.75700  0.11300  Biso   1.000  H
  H348     1.0000 0.72180  0.74300  0.61300  Biso   1.000  H
  H349     1.0000 0.77820  0.74300  0.88700  Biso   1.000  H
  H350     1.0000 0.22180  0.75700  0.38700  Biso   1.000  H
  H351     1.0000 0.77820  0.25700  0.11300  Biso   1.000  H
  H352     1.0000 0.22180  0.24300  0.61300  Biso   1.000  H
  O73      1.0000 0.50000  0.63200  0.13850  Biso   1.000  O
  O74      1.0000 0.50000  0.86800  0.63850  Biso   1.000  O
  O75      1.0000 0.50000  0.36800  0.86150  Biso   1.000  O
  O76      1.0000 0.50000  0.13200  0.36150  Biso   1.000  O
  O77      1.0000 0.00000  0.13200  0.13850  Biso   1.000  O
  O78      1.0000 0.00000  0.36800  0.63850  Biso   1.000  O
  O79      1.0000 0.00000  0.86800  0.86150  Biso   1.000  O
  O80      1.0000 0.00000  0.63200  0.36150  Biso   1.000  O
