data_image0
_cell_length_a       39.0472
_cell_length_b       12.7721
_cell_length_c       28.8454
_cell_angle_alpha    90
_cell_angle_beta     131.761
_cell_angle_gamma    90

_symmetry_space_group_name_H-M    "P 1"
_symmetry_int_tables_number       1

loop_
  _symmetry_equiv_pos_as_xyz
  'x, y, z'

loop_
  _atom_site_label
  _atom_site_occupancy
  _atom_site_fract_x
  _atom_site_fract_y
  _atom_site_fract_z
  _atom_site_thermal_displace_type
  _atom_site_B_iso_or_equiv
  _atom_site_type_symbol
  O1       1.0000 0.38870  0.61500  0.57280  Biso   1.000  O
  O2       1.0000 0.38870  0.38500  0.07280  Biso   1.000  O
  O3       1.0000 0.88870  0.11500  0.57280  Biso   1.000  O
  O4       1.0000 0.88870  0.88500  0.07280  Biso   1.000  O
  H1       1.0000 0.39660  0.66550  0.59690  Biso   1.000  H
  H2       1.0000 0.39660  0.33450  0.09690  Biso   1.000  H
  H3       1.0000 0.89660  0.16550  0.59690  Biso   1.000  H
  H4       1.0000 0.89660  0.83450  0.09690  Biso   1.000  H
  C1       1.0000 0.42170  0.60200  0.56600  Biso   1.000  C
  C2       1.0000 0.42170  0.39800  0.06600  Biso   1.000  C
  C3       1.0000 0.92170  0.10200  0.56600  Biso   1.000  C
  C4       1.0000 0.92170  0.89800  0.06600  Biso   1.000  C
  H5       1.0000 0.43690  0.53290  0.58300  Biso   1.000  H
  H6       1.0000 0.43690  0.46710  0.08300  Biso   1.000  H
  H7       1.0000 0.93690  0.03290  0.58300  Biso   1.000  H
  H8       1.0000 0.93690  0.96710  0.08300  Biso   1.000  H
  H9       1.0000 0.40640  0.60530  0.52190  Biso   1.000  H
  H10      1.0000 0.40640  0.39470  0.02190  Biso   1.000  H
  H11      1.0000 0.90640  0.10530  0.52190  Biso   1.000  H
  H12      1.0000 0.90640  0.89470  0.02190  Biso   1.000  H
  C5       1.0000 0.45670  0.68900  0.60200  Biso   1.000  C
  C6       1.0000 0.45670  0.31100  0.10200  Biso   1.000  C
  C7       1.0000 0.95670  0.18900  0.60200  Biso   1.000  C
  C8       1.0000 0.95670  0.81100  0.10200  Biso   1.000  C
  H13      1.0000 0.47710  0.68800  0.59350  Biso   1.000  H
  H14      1.0000 0.47710  0.31200  0.09350  Biso   1.000  H
  H15      1.0000 0.97710  0.18800  0.59350  Biso   1.000  H
  H16      1.0000 0.97710  0.81200  0.09350  Biso   1.000  H
  H17      1.0000 0.44090  0.75650  0.58970  Biso   1.000  H
  H18      1.0000 0.44090  0.24350  0.08970  Biso   1.000  H
  H19      1.0000 0.94090  0.25650  0.58970  Biso   1.000  H
  H20      1.0000 0.94090  0.74350  0.08970  Biso   1.000  H
  H21      1.0000 0.47490  0.67850  0.64690  Biso   1.000  H
  H22      1.0000 0.47490  0.32150  0.14690  Biso   1.000  H
  H23      1.0000 0.97490  0.17850  0.64690  Biso   1.000  H
  H24      1.0000 0.97490  0.82150  0.14690  Biso   1.000  H
  C9       1.0000 0.57140  0.69900  0.63840  Biso   1.000  C
  C10      1.0000 0.57140  0.30100  0.13840  Biso   1.000  C
  C11      1.0000 0.07140  0.19900  0.63840  Biso   1.000  C
  C12      1.0000 0.07140  0.80100  0.13840  Biso   1.000  C
  C13      1.0000 0.52460  0.68600  0.58860  Biso   1.000  C
  C14      1.0000 0.52460  0.31400  0.08860  Biso   1.000  C
  C15      1.0000 0.02460  0.18600  0.58860  Biso   1.000  C
  C16      1.0000 0.02460  0.81400  0.08860  Biso   1.000  C
  H25      1.0000 0.50300  0.71750  0.58960  Biso   1.000  H
  H26      1.0000 0.50300  0.28250  0.08960  Biso   1.000  H
  H27      1.0000 0.00300  0.21750  0.58960  Biso   1.000  H
  H28      1.0000 0.00300  0.78250  0.08960  Biso   1.000  H
  C17      1.0000 0.50930  0.62800  0.53720  Biso   1.000  C
  C18      1.0000 0.50930  0.37200  0.03720  Biso   1.000  C
  C19      1.0000 0.00930  0.12800  0.53720  Biso   1.000  C
  C20      1.0000 0.00930  0.87200  0.03720  Biso   1.000  C
  H29      1.0000 0.47730  0.61920  0.50310  Biso   1.000  H
  H30      1.0000 0.47730  0.38080  0.00310  Biso   1.000  H
  H31      1.0000 0.97730  0.11920  0.50310  Biso   1.000  H
  H32      1.0000 0.97730  0.88080  0.00310  Biso   1.000  H
  C21      1.0000 0.54080  0.58200  0.53560  Biso   1.000  C
  C22      1.0000 0.54080  0.41800  0.03560  Biso   1.000  C
  C23      1.0000 0.04080  0.08200  0.53560  Biso   1.000  C
  C24      1.0000 0.04080  0.91800  0.03560  Biso   1.000  C
  H33      1.0000 0.53040  0.54200  0.50050  Biso   1.000  H
  H34      1.0000 0.53040  0.45800  0.00050  Biso   1.000  H
  H35      1.0000 0.03040  0.04200  0.50050  Biso   1.000  H
  H36      1.0000 0.03040  0.95800  0.00050  Biso   1.000  H
  C25      1.0000 0.58760  0.59450  0.58550  Biso   1.000  C
  C26      1.0000 0.58760  0.40550  0.08550  Biso   1.000  C
  C27      1.0000 0.08760  0.09450  0.58550  Biso   1.000  C
  C28      1.0000 0.08760  0.90550  0.08550  Biso   1.000  C
  H37      1.0000 0.60910  0.56310  0.58440  Biso   1.000  H
  H38      1.0000 0.60910  0.43690  0.08440  Biso   1.000  H
  H39      1.0000 0.10910  0.06310  0.58440  Biso   1.000  H
  H40      1.0000 0.10910  0.93690  0.08440  Biso   1.000  H
  C29      1.0000 0.60290  0.65300  0.63690  Biso   1.000  C
  C30      1.0000 0.60290  0.34700  0.13690  Biso   1.000  C
  C31      1.0000 0.10290  0.15300  0.63690  Biso   1.000  C
  C32      1.0000 0.10290  0.84700  0.13690  Biso   1.000  C
  H41      1.0000 0.63490  0.66150  0.67090  Biso   1.000  H
  H42      1.0000 0.63490  0.33850  0.17090  Biso   1.000  H
  H43      1.0000 0.13490  0.16150  0.67090  Biso   1.000  H
  H44      1.0000 0.13490  0.83850  0.17090  Biso   1.000  H
  C33      1.0000 0.43940  0.23720  0.62180  Biso   1.000  C
  C34      1.0000 0.43940  0.76280  0.12180  Biso   1.000  C
  C35      1.0000 0.93940  0.73720  0.62180  Biso   1.000  C
  C36      1.0000 0.93940  0.26280  0.12180  Biso   1.000  C
  H45      1.0000 0.41620  0.18620  0.58990  Biso   1.000  H
  H46      1.0000 0.41620  0.81380  0.08990  Biso   1.000  H
  H47      1.0000 0.91620  0.68620  0.58990  Biso   1.000  H
  H48      1.0000 0.91620  0.31380  0.08990  Biso   1.000  H
  H49      1.0000 0.45530  0.26700  0.60890  Biso   1.000  H
  H50      1.0000 0.45530  0.73300  0.10890  Biso   1.000  H
  H51      1.0000 0.95530  0.76700  0.60890  Biso   1.000  H
  H52      1.0000 0.95530  0.23300  0.10890  Biso   1.000  H
  C37      1.0000 0.41630  0.32350  0.62850  Biso   1.000  C
  C38      1.0000 0.41630  0.67650  0.12850  Biso   1.000  C
  C39      1.0000 0.91630  0.82350  0.62850  Biso   1.000  C
  C40      1.0000 0.91630  0.17650  0.12850  Biso   1.000  C
  H53      1.0000 0.43610  0.34400  0.67230  Biso   1.000  H
  H54      1.0000 0.43610  0.65600  0.17230  Biso   1.000  H
  H55      1.0000 0.93610  0.84400  0.67230  Biso   1.000  H
  H56      1.0000 0.93610  0.15600  0.17230  Biso   1.000  H
  H57      1.0000 0.38680  0.29830  0.61390  Biso   1.000  H
  H58      1.0000 0.38680  0.70170  0.11390  Biso   1.000  H
  H59      1.0000 0.88680  0.79830  0.61390  Biso   1.000  H
  H60      1.0000 0.88680  0.20170  0.11390  Biso   1.000  H
  O5       1.0000 0.62530  0.74290  0.03290  Biso   1.000  O
  O6       1.0000 0.62530  0.25710  0.53290  Biso   1.000  O
  O7       1.0000 0.12530  0.24290  0.03290  Biso   1.000  O
  O8       1.0000 0.12530  0.75710  0.53290  Biso   1.000  O
  H61      1.0000 0.62920  0.72590  0.00870  Biso   1.000  H
  H62      1.0000 0.62920  0.27410  0.50870  Biso   1.000  H
  H63      1.0000 0.12920  0.22590  0.00870  Biso   1.000  H
  H64      1.0000 0.12920  0.77410  0.50870  Biso   1.000  H
  O9       1.0000 0.81180  0.89740  0.91080  Biso   1.000  O
  O10      1.0000 0.81180  0.10260  0.41080  Biso   1.000  O
  O11      1.0000 0.31180  0.39740  0.91080  Biso   1.000  O
  O12      1.0000 0.31180  0.60260  0.41080  Biso   1.000  O
  O13      1.0000 0.79130  0.90340  0.11250  Biso   1.000  O
  O14      1.0000 0.79130  0.09660  0.61250  Biso   1.000  O
  O15      1.0000 0.29130  0.40340  0.11250  Biso   1.000  O
  O16      1.0000 0.29130  0.59660  0.61250  Biso   1.000  O
  O17      1.0000 0.56300  0.89320  0.88260  Biso   1.000  O
  O18      1.0000 0.56300  0.10680  0.38260  Biso   1.000  O
  O19      1.0000 0.06300  0.39320  0.88260  Biso   1.000  O
  O20      1.0000 0.06300  0.60680  0.38260  Biso   1.000  O
  O21      1.0000 0.58470  0.90320  0.68050  Biso   1.000  O
  O22      1.0000 0.58470  0.09680  0.18050  Biso   1.000  O
  O23      1.0000 0.08470  0.40320  0.68050  Biso   1.000  O
  O24      1.0000 0.08470  0.59680  0.18050  Biso   1.000  O
  O25      1.0000 0.68470  0.08820  0.61600  Biso   1.000  O
  O26      1.0000 0.68470  0.91180  0.11600  Biso   1.000  O
  O27      1.0000 0.18470  0.58820  0.61600  Biso   1.000  O
  O28      1.0000 0.18470  0.41180  0.11600  Biso   1.000  O
  O29      1.0000 0.69240  0.90920  0.68020  Biso   1.000  O
  O30      1.0000 0.69240  0.09080  0.18020  Biso   1.000  O
  O31      1.0000 0.19240  0.40920  0.68020  Biso   1.000  O
  O32      1.0000 0.19240  0.59080  0.18020  Biso   1.000  O
  C41      1.0000 0.72800  0.05620  0.67390  Biso   1.000  C
  C42      1.0000 0.72800  0.94380  0.17390  Biso   1.000  C
  C43      1.0000 0.22800  0.55620  0.67390  Biso   1.000  C
  C44      1.0000 0.22800  0.44380  0.17390  Biso   1.000  C
  H65      1.0000 0.73330  0.09270  0.70850  Biso   1.000  H
  H66      1.0000 0.73330  0.90730  0.20850  Biso   1.000  H
  H67      1.0000 0.23330  0.59270  0.70850  Biso   1.000  H
  H68      1.0000 0.23330  0.40730  0.20850  Biso   1.000  H
  H69      1.0000 0.75300  0.07600  0.67480  Biso   1.000  H
  H70      1.0000 0.75300  0.92400  0.17480  Biso   1.000  H
  H71      1.0000 0.25300  0.57600  0.67480  Biso   1.000  H
  H72      1.0000 0.25300  0.42400  0.17480  Biso   1.000  H
  C45      1.0000 0.72880  0.94030  0.68220  Biso   1.000  C
  C46      1.0000 0.72880  0.05970  0.18220  Biso   1.000  C
  C47      1.0000 0.22880  0.44030  0.68220  Biso   1.000  C
  C48      1.0000 0.22880  0.55970  0.18220  Biso   1.000  C
  H73      1.0000 0.72520  0.90380  0.64890  Biso   1.000  H
  H74      1.0000 0.72520  0.09620  0.14890  Biso   1.000  H
  H75      1.0000 0.22520  0.40380  0.64890  Biso   1.000  H
  H76      1.0000 0.22520  0.59620  0.14890  Biso   1.000  H
  H77      1.0000 0.75870  0.91960  0.72260  Biso   1.000  H
  H78      1.0000 0.75870  0.08040  0.22260  Biso   1.000  H
  H79      1.0000 0.25870  0.41960  0.72260  Biso   1.000  H
  H80      1.0000 0.25870  0.58040  0.22260  Biso   1.000  H
  C49      1.0000 0.64980  0.94100  0.62230  Biso   1.000  C
  C50      1.0000 0.64980  0.05900  0.12230  Biso   1.000  C
  C51      1.0000 0.14980  0.44100  0.62230  Biso   1.000  C
  C52      1.0000 0.14980  0.55900  0.12230  Biso   1.000  C
  H81      1.0000 0.62450  0.92020  0.62050  Biso   1.000  H
  H82      1.0000 0.62450  0.07980  0.12050  Biso   1.000  H
  H83      1.0000 0.12450  0.42020  0.62050  Biso   1.000  H
  H84      1.0000 0.12450  0.57980  0.12050  Biso   1.000  H
  H85      1.0000 0.64520  0.90480  0.58810  Biso   1.000  H
  H86      1.0000 0.64520  0.09520  0.08810  Biso   1.000  H
  H87      1.0000 0.14520  0.40480  0.58810  Biso   1.000  H
  H88      1.0000 0.14520  0.59520  0.08810  Biso   1.000  H
  C53      1.0000 0.64820  0.05630  0.61340  Biso   1.000  C
  C54      1.0000 0.64820  0.94370  0.11340  Biso   1.000  C
  C55      1.0000 0.14820  0.55630  0.61340  Biso   1.000  C
  C56      1.0000 0.14820  0.44370  0.11340  Biso   1.000  C
  H89      1.0000 0.61830  0.07590  0.57270  Biso   1.000  H
  H90      1.0000 0.61830  0.92410  0.07270  Biso   1.000  H
  H91      1.0000 0.11830  0.57590  0.57270  Biso   1.000  H
  H92      1.0000 0.11830  0.42410  0.07270  Biso   1.000  H
  H93      1.0000 0.65130  0.09280  0.64630  Biso   1.000  H
  H94      1.0000 0.65130  0.90720  0.14630  Biso   1.000  H
  H95      1.0000 0.15130  0.59280  0.64630  Biso   1.000  H
  H96      1.0000 0.15130  0.40720  0.14630  Biso   1.000  H
  O33      1.0000 0.72580  0.69720  0.74950  Biso   1.000  O
  O34      1.0000 0.72580  0.30280  0.24950  Biso   1.000  O
  O35      1.0000 0.22580  0.19720  0.74950  Biso   1.000  O
  O36      1.0000 0.22580  0.80280  0.24950  Biso   1.000  O
  H97      1.0000 0.69840  0.71320  0.71900  Biso   1.000  H
  H98      1.0000 0.69840  0.28680  0.21900  Biso   1.000  H
  H99      1.0000 0.19840  0.21320  0.71900  Biso   1.000  H
  H100     1.0000 0.19840  0.78680  0.21900  Biso   1.000  H
  C57      1.0000 0.75070  0.68700  0.72950  Biso   1.000  C
  C58      1.0000 0.75070  0.31300  0.22950  Biso   1.000  C
  C59      1.0000 0.25070  0.18700  0.72950  Biso   1.000  C
  C60      1.0000 0.25070  0.81300  0.22950  Biso   1.000  C
  H101     1.0000 0.77630  0.63640  0.75660  Biso   1.000  H
  H102     1.0000 0.77630  0.36360  0.25660  Biso   1.000  H
  H103     1.0000 0.27630  0.13640  0.75660  Biso   1.000  H
  H104     1.0000 0.27630  0.86360  0.25660  Biso   1.000  H
  H105     1.0000 0.76360  0.75490  0.73170  Biso   1.000  H
  H106     1.0000 0.76360  0.24510  0.23170  Biso   1.000  H
  H107     1.0000 0.26360  0.25490  0.73170  Biso   1.000  H
  H108     1.0000 0.26360  0.74510  0.23170  Biso   1.000  H
  C61      1.0000 0.71770  0.64700  0.66320  Biso   1.000  C
  C62      1.0000 0.71770  0.35300  0.16320  Biso   1.000  C
  C63      1.0000 0.21770  0.14700  0.66320  Biso   1.000  C
  C64      1.0000 0.21770  0.85300  0.16320  Biso   1.000  C
  H109     1.0000 0.69180  0.61170  0.65490  Biso   1.000  H
  H110     1.0000 0.69180  0.38830  0.15490  Biso   1.000  H
  H111     1.0000 0.19180  0.11170  0.65490  Biso   1.000  H
  H112     1.0000 0.19180  0.88830  0.15490  Biso   1.000  H
  H113     1.0000 0.73360  0.59760  0.65710  Biso   1.000  H
  H114     1.0000 0.73360  0.40240  0.15710  Biso   1.000  H
  H115     1.0000 0.23360  0.09760  0.65710  Biso   1.000  H
  H116     1.0000 0.23360  0.90240  0.15710  Biso   1.000  H
  H117     1.0000 0.70630  0.70620  0.63460  Biso   1.000  H
  H118     1.0000 0.70630  0.29380  0.13460  Biso   1.000  H
  H119     1.0000 0.20630  0.20620  0.63460  Biso   1.000  H
  H120     1.0000 0.20630  0.79380  0.13460  Biso   1.000  H
  C65      1.0000 0.80280  0.70700  0.15510  Biso   1.000  C
  C66      1.0000 0.80280  0.29300  0.65510  Biso   1.000  C
  C67      1.0000 0.30280  0.20700  0.15510  Biso   1.000  C
  C68      1.0000 0.30280  0.79300  0.65510  Biso   1.000  C
  C69      1.0000 0.84800  0.71900  0.21050  Biso   1.000  C
  C70      1.0000 0.84800  0.28100  0.71050  Biso   1.000  C
  C71      1.0000 0.34800  0.21900  0.21050  Biso   1.000  C
  C72      1.0000 0.34800  0.78100  0.71050  Biso   1.000  C
  H121     1.0000 0.86660  0.77210  0.21430  Biso   1.000  H
  H122     1.0000 0.86660  0.22790  0.71430  Biso   1.000  H
  H123     1.0000 0.36660  0.27210  0.21430  Biso   1.000  H
  H124     1.0000 0.36660  0.72790  0.71430  Biso   1.000  H
  C73      1.0000 0.86580  0.65200  0.26030  Biso   1.000  C
  C74      1.0000 0.86580  0.34800  0.76030  Biso   1.000  C
  C75      1.0000 0.36580  0.15200  0.26030  Biso   1.000  C
  C76      1.0000 0.36580  0.84800  0.76030  Biso   1.000  C
  H125     1.0000 0.89660  0.66040  0.29810  Biso   1.000  H
  H126     1.0000 0.89660  0.33960  0.79810  Biso   1.000  H
  H127     1.0000 0.39660  0.16040  0.29810  Biso   1.000  H
  H128     1.0000 0.39660  0.83960  0.79810  Biso   1.000  H
  C77      1.0000 0.83840  0.57400  0.25460  Biso   1.000  C
  C78      1.0000 0.83840  0.42600  0.75460  Biso   1.000  C
  C79      1.0000 0.33840  0.07400  0.25460  Biso   1.000  C
  C80      1.0000 0.33840  0.92600  0.75460  Biso   1.000  C
  H129     1.0000 0.85060  0.52890  0.28870  Biso   1.000  H
  H130     1.0000 0.85060  0.47110  0.78870  Biso   1.000  H
  H131     1.0000 0.35060  0.02890  0.28870  Biso   1.000  H
  H132     1.0000 0.35060  0.97110  0.78870  Biso   1.000  H
  C81      1.0000 0.79330  0.56200  0.19930  Biso   1.000  C
  C82      1.0000 0.79330  0.43800  0.69930  Biso   1.000  C
  C83      1.0000 0.29330  0.06200  0.19930  Biso   1.000  C
  C84      1.0000 0.29330  0.93800  0.69930  Biso   1.000  C
  H133     1.0000 0.77460  0.50890  0.19540  Biso   1.000  H
  H134     1.0000 0.77460  0.49110  0.69540  Biso   1.000  H
  H135     1.0000 0.27460  0.00890  0.19540  Biso   1.000  H
  H136     1.0000 0.27460  0.99110  0.69540  Biso   1.000  H
  C85      1.0000 0.77550  0.62900  0.14950  Biso   1.000  C
  C86      1.0000 0.77550  0.37100  0.64950  Biso   1.000  C
  C87      1.0000 0.27550  0.12900  0.14950  Biso   1.000  C
  C88      1.0000 0.27550  0.87100  0.64950  Biso   1.000  C
  H137     1.0000 0.74460  0.62060  0.11160  Biso   1.000  H
  H138     1.0000 0.74460  0.37940  0.61160  Biso   1.000  H
  H139     1.0000 0.24460  0.12060  0.11160  Biso   1.000  H
  H140     1.0000 0.24460  0.87940  0.61160  Biso   1.000  H
  C89      1.0000 0.62510  0.65180  0.06080  Biso   1.000  C
  C90      1.0000 0.62510  0.34820  0.56080  Biso   1.000  C
  C91      1.0000 0.12510  0.15180  0.06080  Biso   1.000  C
  C92      1.0000 0.12510  0.84820  0.56080  Biso   1.000  C
  H141     1.0000 0.61190  0.59070  0.03250  Biso   1.000  H
  H142     1.0000 0.61190  0.40930  0.53250  Biso   1.000  H
  H143     1.0000 0.11190  0.09070  0.03250  Biso   1.000  H
  H144     1.0000 0.11190  0.90930  0.53250  Biso   1.000  H
  H145     1.0000 0.60880  0.66290  0.07580  Biso   1.000  H
  H146     1.0000 0.60880  0.33710  0.57580  Biso   1.000  H
  H147     1.0000 0.10880  0.16290  0.07580  Biso   1.000  H
  H148     1.0000 0.10880  0.83710  0.57580  Biso   1.000  H
  C93      1.0000 0.67650  0.64200  0.11370  Biso   1.000  C
  C94      1.0000 0.67650  0.35800  0.61370  Biso   1.000  C
  C95      1.0000 0.17650  0.14200  0.11370  Biso   1.000  C
  C96      1.0000 0.17650  0.85800  0.61370  Biso   1.000  C
  H149     1.0000 0.69230  0.66680  0.10000  Biso   1.000  H
  H150     1.0000 0.69230  0.33320  0.60000  Biso   1.000  H
  H151     1.0000 0.19230  0.16680  0.10000  Biso   1.000  H
  H152     1.0000 0.19230  0.83320  0.60000  Biso   1.000  H
  H153     1.0000 0.68440  0.56830  0.12630  Biso   1.000  H
  H154     1.0000 0.68440  0.43170  0.62630  Biso   1.000  H
  H155     1.0000 0.18440  0.06830  0.12630  Biso   1.000  H
  H156     1.0000 0.18440  0.93170  0.62630  Biso   1.000  H
  H157     1.0000 0.68600  0.68410  0.14900  Biso   1.000  H
  H158     1.0000 0.68600  0.31590  0.64900  Biso   1.000  H
  H159     1.0000 0.18600  0.18410  0.14900  Biso   1.000  H
  H160     1.0000 0.18600  0.81590  0.64900  Biso   1.000  H
  Na1      1.0000 0.66980  0.85480  0.02820  Biso   1.000  Na
  Na2      1.0000 0.66980  0.14520  0.52820  Biso   1.000  Na
  Na3      1.0000 0.16980  0.35480  0.02820  Biso   1.000  Na
  Na4      1.0000 0.16980  0.64520  0.52820  Biso   1.000  Na
  Na5      1.0000 0.70740  0.85220  0.76420  Biso   1.000  Na
  Na6      1.0000 0.70740  0.14780  0.26420  Biso   1.000  Na
  Na7      1.0000 0.20740  0.35220  0.76420  Biso   1.000  Na
  Na8      1.0000 0.20740  0.64780  0.26420  Biso   1.000  Na
  Na9      1.0000 0.52750  0.03930  0.73650  Biso   1.000  Na
  Na10     1.0000 0.52750  0.96070  0.23650  Biso   1.000  Na
  Na11     1.0000 0.02750  0.53930  0.73650  Biso   1.000  Na
  Na12     1.0000 0.02750  0.46070  0.23650  Biso   1.000  Na
  Na13     1.0000 0.83740  0.94940  0.04620  Biso   1.000  Na
  Na14     1.0000 0.83740  0.05060  0.54620  Biso   1.000  Na
  Na15     1.0000 0.33740  0.44940  0.04620  Biso   1.000  Na
  Na16     1.0000 0.33740  0.55060  0.54620  Biso   1.000  Na
  Si1      1.0000 0.79900  0.77520  0.91190  Biso   1.000  Si
  Si2      1.0000 0.79900  0.22480  0.41190  Biso   1.000  Si
  Si3      1.0000 0.29900  0.27520  0.91190  Biso   1.000  Si
  Si4      1.0000 0.29900  0.72480  0.41190  Biso   1.000  Si
  Si5      1.0000 0.79370  0.01220  0.90130  Biso   1.000  Si
  Si6      1.0000 0.79370  0.98780  0.40130  Biso   1.000  Si
  Si7      1.0000 0.29370  0.51220  0.90130  Biso   1.000  Si
  Si8      1.0000 0.29370  0.48780  0.40130  Biso   1.000  Si
  Si9      1.0000 0.69794  0.08130  0.80830  Biso   1.000  Si
  Si10     1.0000 0.69794  0.91870  0.30830  Biso   1.000  Si
  Si11     1.0000 0.19794  0.58130  0.80830  Biso   1.000  Si
  Si12     1.0000 0.19794  0.41870  0.30830  Biso   1.000  Si
  Si13     1.0000 0.60010  0.02140  0.70740  Biso   1.000  Si
  Si14     1.0000 0.60010  0.97860  0.20740  Biso   1.000  Si
  Si15     1.0000 0.10010  0.52140  0.70740  Biso   1.000  Si
  Si16     1.0000 0.10010  0.47860  0.20740  Biso   1.000  Si
  Si17     1.0000 0.60010  0.78590  0.70850  Biso   1.000  Si
  Si18     1.0000 0.60010  0.21410  0.20850  Biso   1.000  Si
  Si19     1.0000 0.10010  0.28590  0.70850  Biso   1.000  Si
  Si20     1.0000 0.10010  0.71410  0.20850  Biso   1.000  Si
  Si21     1.0000 0.78296  0.70650  0.99430  Biso   1.000  Si
  Si22     1.0000 0.78296  0.29350  0.49430  Biso   1.000  Si
  Si23     1.0000 0.28296  0.20650  0.99430  Biso   1.000  Si
  Si24     1.0000 0.28296  0.79350  0.49430  Biso   1.000  Si
  Si25     1.0000 0.59190  0.70680  0.79710  Biso   1.000  Si
  Si26     1.0000 0.59190  0.29320  0.29710  Biso   1.000  Si
  Si27     1.0000 0.09190  0.20680  0.79710  Biso   1.000  Si
  Si28     1.0000 0.09190  0.79320  0.29710  Biso   1.000  Si
  Si29     1.0000 0.58194  0.01460  0.89090  Biso   1.000  Si
  Si30     1.0000 0.58194  0.98540  0.39090  Biso   1.000  Si
  Si31     1.0000 0.08194  0.51460  0.89090  Biso   1.000  Si
  Si32     1.0000 0.08194  0.48540  0.39090  Biso   1.000  Si
  Si33     1.0000 0.67791  0.08140  0.98420  Biso   1.000  Si
  Si34     1.0000 0.67791  0.91860  0.48420  Biso   1.000  Si
  Si35     1.0000 0.17791  0.58140  0.98420  Biso   1.000  Si
  Si36     1.0000 0.17791  0.41860  0.48420  Biso   1.000  Si
  Si37     1.0000 0.77503  0.02120  0.08410  Biso   1.000  Si
  Si38     1.0000 0.77503  0.97880  0.58410  Biso   1.000  Si
  Si39     1.0000 0.27503  0.52120  0.08410  Biso   1.000  Si
  Si40     1.0000 0.27503  0.47880  0.58410  Biso   1.000  Si
  Si41     1.0000 0.77490  0.78480  0.08330  Biso   1.000  Si
  Si42     1.0000 0.77490  0.21520  0.58330  Biso   1.000  Si
  Si43     1.0000 0.27490  0.28480  0.08330  Biso   1.000  Si
  Si44     1.0000 0.27490  0.71520  0.58330  Biso   1.000  Si
  Si45     1.0000 0.57680  0.77540  0.87930  Biso   1.000  Si
  Si46     1.0000 0.57680  0.22460  0.37930  Biso   1.000  Si
  Si47     1.0000 0.07680  0.27540  0.87930  Biso   1.000  Si
  Si48     1.0000 0.07680  0.72460  0.37930  Biso   1.000  Si
  Cu1      1.0000 0.63625  0.05260  0.84442  Biso   1.000  Cu
  Cu2      1.0000 0.63625  0.94740  0.34442  Biso   1.000  Cu
  Cu3      1.0000 0.13625  0.55260  0.84442  Biso   1.000  Cu
  Cu4      1.0000 0.13625  0.44740  0.34442  Biso   1.000  Cu
  Cu5      1.0000 0.73963  0.05270  0.94778  Biso   1.000  Cu
  Cu6      1.0000 0.73963  0.94730  0.44778  Biso   1.000  Cu
  Cu7      1.0000 0.23963  0.55270  0.94778  Biso   1.000  Cu
  Cu8      1.0000 0.23963  0.44730  0.44778  Biso   1.000  Cu
  Cu9      1.0000 0.69460  0.74880  0.85074  Biso   1.000  Cu
  Cu10     1.0000 0.69460  0.25120  0.35074  Biso   1.000  Cu
  Cu11     1.0000 0.19460  0.24880  0.85074  Biso   1.000  Cu
  Cu12     1.0000 0.19460  0.75120  0.35074  Biso   1.000  Cu
  Cu13     1.0000 0.68183  0.74790  0.94196  Biso   1.000  Cu
  Cu14     1.0000 0.68183  0.25210  0.44196  Biso   1.000  Cu
  Cu15     1.0000 0.18183  0.24790  0.94196  Biso   1.000  Cu
  Cu16     1.0000 0.18183  0.75210  0.44196  Biso   1.000  Cu
  O37      1.0000 0.48730  0.16000  0.65200  Biso   1.000  O
  O38      1.0000 0.48730  0.84000  0.15200  Biso   1.000  O
  O39      1.0000 0.98730  0.66000  0.65200  Biso   1.000  O
  O40      1.0000 0.98730  0.34000  0.15200  Biso   1.000  O
  H161     1.0000 0.50390  0.21340  0.66330  Biso   1.000  H
  H162     1.0000 0.50390  0.78660  0.16330  Biso   1.000  H
  H163     1.0000 0.00390  0.71340  0.66330  Biso   1.000  H
  H164     1.0000 0.00390  0.28660  0.16330  Biso   1.000  H
  C97      1.0000 0.44070  0.18600  0.59950  Biso   1.000  C
  C98      1.0000 0.44070  0.81400  0.09950  Biso   1.000  C
  C99      1.0000 0.94070  0.68600  0.59950  Biso   1.000  C
  C100     1.0000 0.94070  0.31400  0.09950  Biso   1.000  C
  H165     1.0000 0.41970  0.13720  0.59670  Biso   1.000  H
  H166     1.0000 0.41970  0.86280  0.09670  Biso   1.000  H
  H167     1.0000 0.91970  0.63720  0.59670  Biso   1.000  H
  H168     1.0000 0.91970  0.36280  0.09670  Biso   1.000  H
  H169     1.0000 0.43530  0.17990  0.56080  Biso   1.000  H
  H170     1.0000 0.43530  0.82010  0.06080  Biso   1.000  H
  H171     1.0000 0.93530  0.67990  0.56080  Biso   1.000  H
  H172     1.0000 0.93530  0.32010  0.06080  Biso   1.000  H
  C101     1.0000 0.43220  0.29700  0.60800  Biso   1.000  C
  C102     1.0000 0.43220  0.70300  0.10800  Biso   1.000  C
  C103     1.0000 0.93220  0.79700  0.60800  Biso   1.000  C
  C104     1.0000 0.93220  0.20300  0.10800  Biso   1.000  C
  H173     1.0000 0.46160  0.33290  0.63890  Biso   1.000  H
  H174     1.0000 0.46160  0.66710  0.13890  Biso   1.000  H
  H175     1.0000 0.96160  0.83290  0.63890  Biso   1.000  H
  H176     1.0000 0.96160  0.16710  0.13890  Biso   1.000  H
  H177     1.0000 0.41500  0.29630  0.62150  Biso   1.000  H
  H178     1.0000 0.41500  0.70370  0.12150  Biso   1.000  H
  H179     1.0000 0.91500  0.79630  0.62150  Biso   1.000  H
  H180     1.0000 0.91500  0.20370  0.12150  Biso   1.000  H
  H181     1.0000 0.41430  0.33460  0.56810  Biso   1.000  H
  H182     1.0000 0.41430  0.66540  0.06810  Biso   1.000  H
  H183     1.0000 0.91430  0.83460  0.56810  Biso   1.000  H
  H184     1.0000 0.91430  0.16540  0.06810  Biso   1.000  H
  C105     1.0000 0.70320  0.22430  0.80160  Biso   1.000  C
  C106     1.0000 0.70320  0.77570  0.30160  Biso   1.000  C
  C107     1.0000 0.20320  0.72430  0.80160  Biso   1.000  C
  C108     1.0000 0.20320  0.27570  0.30160  Biso   1.000  C
  C109     1.0000 0.67430  0.29360  0.80040  Biso   1.000  C
  C110     1.0000 0.67430  0.70640  0.30040  Biso   1.000  C
  C111     1.0000 0.17430  0.79360  0.80040  Biso   1.000  C
  C112     1.0000 0.17430  0.20640  0.30040  Biso   1.000  C
  H185     1.0000 0.65420  0.26670  0.80520  Biso   1.000  H
  H186     1.0000 0.65420  0.73330  0.30520  Biso   1.000  H
  H187     1.0000 0.15420  0.76670  0.80520  Biso   1.000  H
  H188     1.0000 0.15420  0.23330  0.30520  Biso   1.000  H
  C113     1.0000 0.67510  0.40000  0.79230  Biso   1.000  C
  C114     1.0000 0.67510  0.60000  0.29230  Biso   1.000  C
  C115     1.0000 0.17510  0.90000  0.79230  Biso   1.000  C
  C116     1.0000 0.17510  0.10000  0.29230  Biso   1.000  C
  H189     1.0000 0.65510  0.44500  0.79090  Biso   1.000  H
  H190     1.0000 0.65510  0.55500  0.29090  Biso   1.000  H
  H191     1.0000 0.15510  0.94500  0.79090  Biso   1.000  H
  H192     1.0000 0.15510  0.05500  0.29090  Biso   1.000  H
  C117     1.0000 0.70400  0.44110  0.78630  Biso   1.000  C
  C118     1.0000 0.70400  0.55890  0.28630  Biso   1.000  C
  C119     1.0000 0.20400  0.94110  0.78630  Biso   1.000  C
  C120     1.0000 0.20400  0.05890  0.28630  Biso   1.000  C
  H193     1.0000 0.70460  0.51440  0.78130  Biso   1.000  H
  H194     1.0000 0.70460  0.48560  0.28130  Biso   1.000  H
  H195     1.0000 0.20460  0.01440  0.78130  Biso   1.000  H
  H196     1.0000 0.20460  0.98560  0.28130  Biso   1.000  H
  C121     1.0000 0.73290  0.37400  0.78760  Biso   1.000  C
  C122     1.0000 0.73290  0.62600  0.28760  Biso   1.000  C
  C123     1.0000 0.23290  0.87400  0.78760  Biso   1.000  C
  C124     1.0000 0.23290  0.12600  0.28760  Biso   1.000  C
  H197     1.0000 0.75320  0.40180  0.78330  Biso   1.000  H
  H198     1.0000 0.75320  0.59820  0.28330  Biso   1.000  H
  H199     1.0000 0.25320  0.90180  0.78330  Biso   1.000  H
  H200     1.0000 0.25320  0.09820  0.28330  Biso   1.000  H
  C125     1.0000 0.73200  0.26860  0.79500  Biso   1.000  C
  C126     1.0000 0.73200  0.73140  0.29500  Biso   1.000  C
  C127     1.0000 0.23200  0.76860  0.79500  Biso   1.000  C
  C128     1.0000 0.23200  0.23140  0.29500  Biso   1.000  C
  H201     1.0000 0.75190  0.22440  0.79560  Biso   1.000  H
  H202     1.0000 0.75190  0.77560  0.29560  Biso   1.000  H
  H203     1.0000 0.25190  0.72440  0.79560  Biso   1.000  H
  H204     1.0000 0.25190  0.27560  0.29560  Biso   1.000  H
  C129     1.0000 0.58370  0.55970  0.78880  Biso   1.000  C
  C130     1.0000 0.58370  0.44030  0.28880  Biso   1.000  C
  C131     1.0000 0.08370  0.05970  0.78880  Biso   1.000  C
  C132     1.0000 0.08370  0.94030  0.28880  Biso   1.000  C
  C133     1.0000 0.55150  0.51530  0.73010  Biso   1.000  C
  C134     1.0000 0.55150  0.48470  0.23010  Biso   1.000  C
  C135     1.0000 0.05150  0.01530  0.73010  Biso   1.000  C
  C136     1.0000 0.05150  0.98470  0.23010  Biso   1.000  C
  H205     1.0000 0.53470  0.55830  0.69420  Biso   1.000  H
  H206     1.0000 0.53470  0.44170  0.19420  Biso   1.000  H
  H207     1.0000 0.03470  0.05830  0.69420  Biso   1.000  H
  H208     1.0000 0.03470  0.94170  0.19420  Biso   1.000  H
  C137     1.0000 0.54370  0.40790  0.72410  Biso   1.000  C
  C138     1.0000 0.54370  0.59210  0.22410  Biso   1.000  C
  C139     1.0000 0.04370  0.90790  0.72410  Biso   1.000  C
  C140     1.0000 0.04370  0.09210  0.22410  Biso   1.000  C
  H209     1.0000 0.52160  0.37760  0.68400  Biso   1.000  H
  H210     1.0000 0.52160  0.62240  0.18400  Biso   1.000  H
  H211     1.0000 0.02160  0.87760  0.68400  Biso   1.000  H
  H212     1.0000 0.02160  0.12240  0.18400  Biso   1.000  H
  C141     1.0000 0.56810  0.34500  0.77670  Biso   1.000  C
  C142     1.0000 0.56810  0.65500  0.27670  Biso   1.000  C
  C143     1.0000 0.06810  0.84500  0.77670  Biso   1.000  C
  C144     1.0000 0.06810  0.15500  0.27670  Biso   1.000  C
  H213     1.0000 0.56280  0.27160  0.77260  Biso   1.000  H
  H214     1.0000 0.56280  0.72840  0.27260  Biso   1.000  H
  H215     1.0000 0.06280  0.77160  0.77260  Biso   1.000  H
  H216     1.0000 0.06280  0.22840  0.27260  Biso   1.000  H
  C145     1.0000 0.60040  0.38930  0.83540  Biso   1.000  C
  C146     1.0000 0.60040  0.61070  0.33540  Biso   1.000  C
  C147     1.0000 0.10040  0.88930  0.83540  Biso   1.000  C
  C148     1.0000 0.10040  0.11070  0.33540  Biso   1.000  C
  H217     1.0000 0.61710  0.34630  0.87130  Biso   1.000  H
  H218     1.0000 0.61710  0.65370  0.37130  Biso   1.000  H
  H219     1.0000 0.11710  0.84630  0.87130  Biso   1.000  H
  H220     1.0000 0.11710  0.15370  0.37130  Biso   1.000  H
  C149     1.0000 0.60820  0.49670  0.84140  Biso   1.000  C
  C150     1.0000 0.60820  0.50330  0.34140  Biso   1.000  C
  C151     1.0000 0.10820  0.99670  0.84140  Biso   1.000  C
  C152     1.0000 0.10820  0.00330  0.34140  Biso   1.000  C
  H221     1.0000 0.63020  0.52700  0.88150  Biso   1.000  H
  H222     1.0000 0.63020  0.47300  0.38150  Biso   1.000  H
  H223     1.0000 0.13020  0.02700  0.88150  Biso   1.000  H
  H224     1.0000 0.13020  0.97300  0.38150  Biso   1.000  H
  O41      1.0000 0.59490  0.04860  0.75500  Biso   1.000  O
  O42      1.0000 0.59490  0.95140  0.25500  Biso   1.000  O
  O43      1.0000 0.09490  0.54860  0.75500  Biso   1.000  O
  O44      1.0000 0.09490  0.45140  0.25500  Biso   1.000  O
  O45      1.0000 0.58600  0.04680  0.84130  Biso   1.000  O
  O46      1.0000 0.58600  0.95320  0.34130  Biso   1.000  O
  O47      1.0000 0.08600  0.54680  0.84130  Biso   1.000  O
  O48      1.0000 0.08600  0.45320  0.34130  Biso   1.000  O
  O49      1.0000 0.69040  0.05650  0.85590  Biso   1.000  O
  O50      1.0000 0.69040  0.94350  0.35590  Biso   1.000  O
  O51      1.0000 0.19040  0.55650  0.85590  Biso   1.000  O
  O52      1.0000 0.19040  0.44350  0.35590  Biso   1.000  O
  O53      1.0000 0.68250  0.05910  0.93380  Biso   1.000  O
  O54      1.0000 0.68250  0.94090  0.43380  Biso   1.000  O
  O55      1.0000 0.18250  0.55910  0.93380  Biso   1.000  O
  O56      1.0000 0.18250  0.44090  0.43380  Biso   1.000  O
  O57      1.0000 0.79000  0.04600  0.95050  Biso   1.000  O
  O58      1.0000 0.79000  0.95400  0.45050  Biso   1.000  O
  O59      1.0000 0.29000  0.54600  0.95050  Biso   1.000  O
  O60      1.0000 0.29000  0.45400  0.45050  Biso   1.000  O
  O61      1.0000 0.78190  0.04860  0.03650  Biso   1.000  O
  O62      1.0000 0.78190  0.95140  0.53650  Biso   1.000  O
  O63      1.0000 0.28190  0.54860  0.03650  Biso   1.000  O
  O64      1.0000 0.28190  0.45140  0.53650  Biso   1.000  O
  O65      1.0000 0.74260  0.01970  0.82860  Biso   1.000  O
  O66      1.0000 0.74260  0.98030  0.32860  Biso   1.000  O
  O67      1.0000 0.24260  0.51970  0.82860  Biso   1.000  O
  O68      1.0000 0.24260  0.48030  0.32860  Biso   1.000  O
  O69      1.0000 0.65460  0.03220  0.74190  Biso   1.000  O
  O70      1.0000 0.65460  0.96780  0.24190  Biso   1.000  O
  O71      1.0000 0.15460  0.53220  0.74190  Biso   1.000  O
  O72      1.0000 0.15460  0.46780  0.24190  Biso   1.000  O
  O73      1.0000 0.63230  0.01940  0.96190  Biso   1.000  O
  O74      1.0000 0.63230  0.98060  0.46190  Biso   1.000  O
  O75      1.0000 0.13230  0.51940  0.96190  Biso   1.000  O
  O76      1.0000 0.13230  0.48060  0.46190  Biso   1.000  O
  O77      1.0000 0.72120  0.03150  0.05210  Biso   1.000  O
  O78      1.0000 0.72120  0.96850  0.55210  Biso   1.000  O
  O79      1.0000 0.22120  0.53150  0.05210  Biso   1.000  O
  O80      1.0000 0.22120  0.46850  0.55210  Biso   1.000  O
  O81      1.0000 0.72990  0.73550  0.94050  Biso   1.000  O
  O82      1.0000 0.72990  0.26450  0.44050  Biso   1.000  O
  O83      1.0000 0.22990  0.23550  0.94050  Biso   1.000  O
  O84      1.0000 0.22990  0.76450  0.44050  Biso   1.000  O
  O85      1.0000 0.64440  0.73800  0.85220  Biso   1.000  O
  O86      1.0000 0.64440  0.26200  0.35220  Biso   1.000  O
  O87      1.0000 0.14440  0.23800  0.85220  Biso   1.000  O
  O88      1.0000 0.14440  0.76200  0.35220  Biso   1.000  O
  O89      1.0000 0.56310  0.75920  0.81340  Biso   1.000  O
  O90      1.0000 0.56310  0.24080  0.31340  Biso   1.000  O
  O91      1.0000 0.06310  0.25920  0.81340  Biso   1.000  O
  O92      1.0000 0.06310  0.74080  0.31340  Biso   1.000  O
  O93      1.0000 0.57510  0.75420  0.73370  Biso   1.000  O
  O94      1.0000 0.57510  0.24580  0.23370  Biso   1.000  O
  O95      1.0000 0.07510  0.25420  0.73370  Biso   1.000  O
  O96      1.0000 0.07510  0.74580  0.23370  Biso   1.000  O
  O97      1.0000 0.80510  0.75940  0.06180  Biso   1.000  O
  O98      1.0000 0.80510  0.24060  0.56180  Biso   1.000  O
  O99      1.0000 0.30510  0.25940  0.06180  Biso   1.000  O
  O100     1.0000 0.30510  0.74060  0.56180  Biso   1.000  O
  O101     1.0000 0.81480  0.75900  0.98190  Biso   1.000  O
  O102     1.0000 0.81480  0.24100  0.48190  Biso   1.000  O
  O103     1.0000 0.31480  0.25900  0.98190  Biso   1.000  O
  O104     1.0000 0.31480  0.74100  0.48190  Biso   1.000  O
  O105     1.0000 0.72280  0.77820  0.02980  Biso   1.000  O
  O106     1.0000 0.72280  0.22180  0.52980  Biso   1.000  O
  O107     1.0000 0.22280  0.27820  0.02980  Biso   1.000  O
  O108     1.0000 0.22280  0.72180  0.52980  Biso   1.000  O
  O109     1.0000 0.63000  0.75020  0.93610  Biso   1.000  O
  O110     1.0000 0.63000  0.24980  0.43610  Biso   1.000  O
  O111     1.0000 0.13000  0.25020  0.93610  Biso   1.000  O
  O112     1.0000 0.13000  0.74980  0.43610  Biso   1.000  O
  O113     1.0000 0.65470  0.77230  0.76400  Biso   1.000  O
  O114     1.0000 0.65470  0.22770  0.26400  Biso   1.000  O
  O115     1.0000 0.15470  0.27230  0.76400  Biso   1.000  O
  O116     1.0000 0.15470  0.72770  0.26400  Biso   1.000  O
  O117     1.0000 0.74660  0.74860  0.85820  Biso   1.000  O
  O118     1.0000 0.74660  0.25140  0.35820  Biso   1.000  O
  O119     1.0000 0.24660  0.24860  0.85820  Biso   1.000  O
  O120     1.0000 0.24660  0.75140  0.35820  Biso   1.000  O
  C153     1.0000 0.84360  0.07400  0.86730  Biso   1.000  C
  C154     1.0000 0.84360  0.92600  0.36730  Biso   1.000  C
  C155     1.0000 0.34360  0.57400  0.86730  Biso   1.000  C
  C156     1.0000 0.34360  0.42600  0.36730  Biso   1.000  C
  H225     1.0000 0.83060  0.01280  0.84220  Biso   1.000  H
  H226     1.0000 0.83060  0.98720  0.34220  Biso   1.000  H
  H227     1.0000 0.33060  0.51280  0.84220  Biso   1.000  H
  H228     1.0000 0.33060  0.48720  0.34220  Biso   1.000  H
  C157     1.0000 0.83410  0.09940  0.90460  Biso   1.000  C
  C158     1.0000 0.83410  0.90060  0.40460  Biso   1.000  C
  C159     1.0000 0.33410  0.59940  0.90460  Biso   1.000  C
  C160     1.0000 0.33410  0.40060  0.40460  Biso   1.000  C
  C161     1.0000 0.85310  0.18900  0.94130  Biso   1.000  C
  C162     1.0000 0.85310  0.81100  0.44130  Biso   1.000  C
  C163     1.0000 0.35310  0.68900  0.94130  Biso   1.000  C
  C164     1.0000 0.35310  0.31100  0.44130  Biso   1.000  C
  H229     1.0000 0.84660  0.20640  0.96680  Biso   1.000  H
  H230     1.0000 0.84660  0.79360  0.46680  Biso   1.000  H
  H231     1.0000 0.34660  0.70640  0.96680  Biso   1.000  H
  H232     1.0000 0.34660  0.29360  0.46680  Biso   1.000  H
  C165     1.0000 0.88150  0.25310  0.94060  Biso   1.000  C
  C166     1.0000 0.88150  0.74690  0.44060  Biso   1.000  C
  C167     1.0000 0.38150  0.75310  0.94060  Biso   1.000  C
  C168     1.0000 0.38150  0.24690  0.44060  Biso   1.000  C
  H233     1.0000 0.89450  0.31440  0.96570  Biso   1.000  H
  H234     1.0000 0.89450  0.68560  0.46570  Biso   1.000  H
  H235     1.0000 0.39450  0.81440  0.96570  Biso   1.000  H
  H236     1.0000 0.39450  0.18560  0.46570  Biso   1.000  H
  C169     1.0000 0.89100  0.22770  0.90330  Biso   1.000  C
  C170     1.0000 0.89100  0.77230  0.40330  Biso   1.000  C
  C171     1.0000 0.39100  0.72770  0.90330  Biso   1.000  C
  C172     1.0000 0.39100  0.27230  0.40330  Biso   1.000  C
  H237     1.0000 0.91040  0.27160  0.90280  Biso   1.000  H
  H238     1.0000 0.91040  0.72840  0.40280  Biso   1.000  H
  H239     1.0000 0.41040  0.77160  0.90280  Biso   1.000  H
  H240     1.0000 0.41040  0.22840  0.40280  Biso   1.000  H
  C173     1.0000 0.87200  0.13820  0.86660  Biso   1.000  C
  C174     1.0000 0.87200  0.86180  0.36660  Biso   1.000  C
  C175     1.0000 0.37200  0.63820  0.86660  Biso   1.000  C
  C176     1.0000 0.37200  0.36180  0.36660  Biso   1.000  C
  H241     1.0000 0.87850  0.12080  0.84110  Biso   1.000  H
  H242     1.0000 0.87850  0.87920  0.34110  Biso   1.000  H
  H243     1.0000 0.37850  0.62080  0.84110  Biso   1.000  H
  H244     1.0000 0.37850  0.37920  0.34110  Biso   1.000  H
  C177     1.0000 0.87280  0.73570  0.91850  Biso   1.000  C
  C178     1.0000 0.87280  0.26430  0.41850  Biso   1.000  C
  C179     1.0000 0.37280  0.23570  0.91850  Biso   1.000  C
  C180     1.0000 0.37280  0.76430  0.41850  Biso   1.000  C
  H245     1.0000 0.87910  0.80840  0.92730  Biso   1.000  H
  H246     1.0000 0.87910  0.19160  0.42730  Biso   1.000  H
  H247     1.0000 0.37910  0.30840  0.92730  Biso   1.000  H
  H248     1.0000 0.37910  0.69160  0.42730  Biso   1.000  H
  C181     1.0000 0.83550  0.69190  0.90780  Biso   1.000  C
  C182     1.0000 0.83550  0.30810  0.40780  Biso   1.000  C
  C183     1.0000 0.33550  0.19190  0.90780  Biso   1.000  C
  C184     1.0000 0.33550  0.80810  0.40780  Biso   1.000  C
  C185     1.0000 0.82630  0.58560  0.89500  Biso   1.000  C
  C186     1.0000 0.82630  0.41440  0.39500  Biso   1.000  C
  C187     1.0000 0.32630  0.08560  0.89500  Biso   1.000  C
  C188     1.0000 0.32630  0.91440  0.39500  Biso   1.000  C
  H249     1.0000 0.80070  0.55570  0.88760  Biso   1.000  H
  H250     1.0000 0.80070  0.44430  0.38760  Biso   1.000  H
  H251     1.0000 0.30070  0.05570  0.88760  Biso   1.000  H
  H252     1.0000 0.30070  0.94430  0.38760  Biso   1.000  H
  C189     1.0000 0.85440  0.52310  0.89290  Biso   1.000  C
  C190     1.0000 0.85440  0.47690  0.39290  Biso   1.000  C
  C191     1.0000 0.35440  0.02310  0.89290  Biso   1.000  C
  C192     1.0000 0.35440  0.97690  0.39290  Biso   1.000  C
  H253     1.0000 0.84810  0.45050  0.88410  Biso   1.000  H
  H254     1.0000 0.84810  0.54950  0.38410  Biso   1.000  H
  H255     1.0000 0.34810  0.95050  0.88410  Biso   1.000  H
  H256     1.0000 0.34810  0.04950  0.38410  Biso   1.000  H
  C193     1.0000 0.89170  0.56700  0.90360  Biso   1.000  C
  C194     1.0000 0.89170  0.43300  0.40360  Biso   1.000  C
  C195     1.0000 0.39170  0.06700  0.90360  Biso   1.000  C
  C196     1.0000 0.39170  0.93300  0.40360  Biso   1.000  C
  H257     1.0000 0.91090  0.52430  0.90220  Biso   1.000  H
  H258     1.0000 0.91090  0.47570  0.40220  Biso   1.000  H
  H259     1.0000 0.41090  0.02430  0.90220  Biso   1.000  H
  H260     1.0000 0.41090  0.97570  0.40220  Biso   1.000  H
  C197     1.0000 0.90090  0.67320  0.91650  Biso   1.000  C
  C198     1.0000 0.90090  0.32680  0.41650  Biso   1.000  C
  C199     1.0000 0.40090  0.17320  0.91650  Biso   1.000  C
  C200     1.0000 0.40090  0.82680  0.41650  Biso   1.000  C
  H261     1.0000 0.92640  0.70320  0.92380  Biso   1.000  H
  H262     1.0000 0.92640  0.29680  0.42380  Biso   1.000  H
  H263     1.0000 0.42640  0.20320  0.92380  Biso   1.000  H
  H264     1.0000 0.42640  0.79680  0.42380  Biso   1.000  H
  C201     1.0000 0.56260  0.21260  0.64630  Biso   1.000  C
  C202     1.0000 0.56260  0.78740  0.14630  Biso   1.000  C
  C203     1.0000 0.06260  0.71260  0.64630  Biso   1.000  C
  C204     1.0000 0.06260  0.28740  0.14630  Biso   1.000  C
  H265     1.0000 0.57800  0.23860  0.68680  Biso   1.000  H
  H266     1.0000 0.57800  0.76140  0.18680  Biso   1.000  H
  H267     1.0000 0.07800  0.73860  0.68680  Biso   1.000  H
  H268     1.0000 0.07800  0.26140  0.18680  Biso   1.000  H
  C205     1.0000 0.56530  0.10690  0.63750  Biso   1.000  C
  C206     1.0000 0.56530  0.89310  0.13750  Biso   1.000  C
  C207     1.0000 0.06530  0.60690  0.63750  Biso   1.000  C
  C208     1.0000 0.06530  0.39310  0.13750  Biso   1.000  C
  C209     1.0000 0.54280  0.06900  0.57820  Biso   1.000  C
  C210     1.0000 0.54280  0.93100  0.07820  Biso   1.000  C
  C211     1.0000 0.04280  0.56900  0.57820  Biso   1.000  C
  C212     1.0000 0.04280  0.43100  0.07820  Biso   1.000  C
  H269     1.0000 0.54460  0.99670  0.57220  Biso   1.000  H
  H270     1.0000 0.54460  0.00330  0.07220  Biso   1.000  H
  H271     1.0000 0.04460  0.49670  0.57220  Biso   1.000  H
  H272     1.0000 0.04460  0.50330  0.07220  Biso   1.000  H
  C213     1.0000 0.51760  0.13670  0.52760  Biso   1.000  C
  C214     1.0000 0.51760  0.86330  0.02760  Biso   1.000  C
  C215     1.0000 0.01760  0.63670  0.52760  Biso   1.000  C
  C216     1.0000 0.01760  0.36330  0.02760  Biso   1.000  C
  H273     1.0000 0.50220  0.11080  0.48710  Biso   1.000  H
  H274     1.0000 0.50220  0.88920  0.98710  Biso   1.000  H
  H275     1.0000 0.00220  0.61080  0.48710  Biso   1.000  H
  H276     1.0000 0.00220  0.38920  0.98710  Biso   1.000  H
  C217     1.0000 0.51500  0.24240  0.53640  Biso   1.000  C
  C218     1.0000 0.51500  0.75760  0.03640  Biso   1.000  C
  C219     1.0000 0.01500  0.74240  0.53640  Biso   1.000  C
  C220     1.0000 0.01500  0.25760  0.03640  Biso   1.000  C
  H277     1.0000 0.49780  0.28870  0.50180  Biso   1.000  H
  H278     1.0000 0.49780  0.71130  0.00180  Biso   1.000  H
  H279     1.0000 0.99780  0.78870  0.50180  Biso   1.000  H
  H280     1.0000 0.99780  0.21130  0.00180  Biso   1.000  H
  C221     1.0000 0.53750  0.28040  0.59570  Biso   1.000  C
  C222     1.0000 0.53750  0.71960  0.09570  Biso   1.000  C
  C223     1.0000 0.03750  0.78040  0.59570  Biso   1.000  C
  C224     1.0000 0.03750  0.21960  0.09570  Biso   1.000  C
  H281     1.0000 0.53560  0.35260  0.60170  Biso   1.000  H
  H282     1.0000 0.53560  0.64740  0.10170  Biso   1.000  H
  H283     1.0000 0.03560  0.85260  0.60170  Biso   1.000  H
  H284     1.0000 0.03560  0.14740  0.10170  Biso   1.000  H
  C225     1.0000 0.54250  0.09670  0.88940  Biso   1.000  C
  C226     1.0000 0.54250  0.90330  0.38940  Biso   1.000  C
  C227     1.0000 0.04250  0.59670  0.88940  Biso   1.000  C
  C228     1.0000 0.04250  0.40330  0.38940  Biso   1.000  C
  C229     1.0000 0.52270  0.18460  0.85130  Biso   1.000  C
  C230     1.0000 0.52270  0.81540  0.35130  Biso   1.000  C
  C231     1.0000 0.02270  0.68460  0.85130  Biso   1.000  C
  C232     1.0000 0.02270  0.31540  0.35130  Biso   1.000  C
  H285     1.0000 0.52930  0.20160  0.82590  Biso   1.000  H
  H286     1.0000 0.52930  0.79840  0.32590  Biso   1.000  H
  H287     1.0000 0.02930  0.70160  0.82590  Biso   1.000  H
  H288     1.0000 0.02930  0.29840  0.32590  Biso   1.000  H
  C233     1.0000 0.49320  0.24750  0.85040  Biso   1.000  C
  C234     1.0000 0.49320  0.75250  0.35040  Biso   1.000  C
  C235     1.0000 0.99320  0.74750  0.85040  Biso   1.000  C
  C236     1.0000 0.99320  0.25250  0.35040  Biso   1.000  C
  H289     1.0000 0.47970  0.30760  0.82440  Biso   1.000  H
  H290     1.0000 0.47970  0.69240  0.32440  Biso   1.000  H
  H291     1.0000 0.97970  0.80760  0.82440  Biso   1.000  H
  H292     1.0000 0.97970  0.19240  0.32440  Biso   1.000  H
  C237     1.0000 0.48360  0.22270  0.88760  Biso   1.000  C
  C238     1.0000 0.48360  0.77730  0.38760  Biso   1.000  C
  C239     1.0000 0.98360  0.72270  0.88760  Biso   1.000  C
  C240     1.0000 0.98360  0.27730  0.38760  Biso   1.000  C
  H293     1.0000 0.46340  0.26570  0.88700  Biso   1.000  H
  H294     1.0000 0.46340  0.73430  0.38700  Biso   1.000  H
  H295     1.0000 0.96340  0.76570  0.88700  Biso   1.000  H
  H296     1.0000 0.96340  0.23430  0.38700  Biso   1.000  H
  C241     1.0000 0.50340  0.13480  0.92570  Biso   1.000  C
  C242     1.0000 0.50340  0.86520  0.42570  Biso   1.000  C
  C243     1.0000 0.00340  0.63480  0.92570  Biso   1.000  C
  C244     1.0000 0.00340  0.36520  0.42570  Biso   1.000  C
  H297     1.0000 0.49680  0.11780  0.95110  Biso   1.000  H
  H298     1.0000 0.49680  0.88220  0.45110  Biso   1.000  H
  H299     1.0000 0.99680  0.61780  0.95110  Biso   1.000  H
  H300     1.0000 0.99680  0.38220  0.45110  Biso   1.000  H
  C245     1.0000 0.53290  0.07180  0.92660  Biso   1.000  C
  C246     1.0000 0.53290  0.92820  0.42660  Biso   1.000  C
  C247     1.0000 0.03290  0.57180  0.92660  Biso   1.000  C
  C248     1.0000 0.03290  0.42820  0.42660  Biso   1.000  C
  H301     1.0000 0.54640  0.01180  0.95260  Biso   1.000  H
  H302     1.0000 0.54640  0.98820  0.45260  Biso   1.000  H
  H303     1.0000 0.04640  0.51180  0.95260  Biso   1.000  H
  H304     1.0000 0.04640  0.48820  0.45260  Biso   1.000  H
  C249     1.0000 0.53880  0.68850  0.88220  Biso   1.000  C
  C250     1.0000 0.53880  0.31150  0.38220  Biso   1.000  C
  C251     1.0000 0.03880  0.18850  0.88220  Biso   1.000  C
  C252     1.0000 0.03880  0.81150  0.38220  Biso   1.000  C
  C253     1.0000 0.49960  0.72850  0.86800  Biso   1.000  C
  C254     1.0000 0.49960  0.27150  0.36800  Biso   1.000  C
  C255     1.0000 0.99960  0.22850  0.86800  Biso   1.000  C
  C256     1.0000 0.99960  0.77150  0.36800  Biso   1.000  C
  H305     1.0000 0.49170  0.80010  0.85680  Biso   1.000  H
  H306     1.0000 0.49170  0.19990  0.35680  Biso   1.000  H
  H307     1.0000 0.99170  0.30010  0.85680  Biso   1.000  H
  H308     1.0000 0.99170  0.69990  0.35680  Biso   1.000  H
  C257     1.0000 0.47210  0.66380  0.87030  Biso   1.000  C
  C258     1.0000 0.47210  0.33620  0.37030  Biso   1.000  C
  C259     1.0000 0.97210  0.16380  0.87030  Biso   1.000  C
  C260     1.0000 0.97210  0.83620  0.37030  Biso   1.000  C
  H309     1.0000 0.44540  0.69110  0.86060  Biso   1.000  H
  H310     1.0000 0.44540  0.30890  0.36060  Biso   1.000  H
  H311     1.0000 0.94540  0.19110  0.86060  Biso   1.000  H
  H312     1.0000 0.94540  0.80890  0.36060  Biso   1.000  H
  C261     1.0000 0.48380  0.55910  0.88670  Biso   1.000  C
  C262     1.0000 0.48380  0.44090  0.38670  Biso   1.000  C
  C263     1.0000 0.98380  0.05910  0.88670  Biso   1.000  C
  C264     1.0000 0.98380  0.94090  0.38670  Biso   1.000  C
  H313     1.0000 0.46500  0.51490  0.88820  Biso   1.000  H
  H314     1.0000 0.46500  0.48510  0.38820  Biso   1.000  H
  H315     1.0000 0.96500  0.01490  0.88820  Biso   1.000  H
  H316     1.0000 0.96500  0.98510  0.38820  Biso   1.000  H
  C265     1.0000 0.52300  0.51910  0.90090  Biso   1.000  C
  C266     1.0000 0.52300  0.48090  0.40090  Biso   1.000  C
  C267     1.0000 0.02300  0.01910  0.90090  Biso   1.000  C
  C268     1.0000 0.02300  0.98090  0.40090  Biso   1.000  C
  H317     1.0000 0.53090  0.44760  0.91220  Biso   1.000  H
  H318     1.0000 0.53090  0.55240  0.41220  Biso   1.000  H
  H319     1.0000 0.03090  0.94760  0.91220  Biso   1.000  H
  H320     1.0000 0.03090  0.05240  0.41220  Biso   1.000  H
  C269     1.0000 0.55050  0.58380  0.89870  Biso   1.000  C
  C270     1.0000 0.55050  0.41620  0.39870  Biso   1.000  C
  C271     1.0000 0.05050  0.08380  0.89870  Biso   1.000  C
  C272     1.0000 0.05050  0.91620  0.39870  Biso   1.000  C
  H321     1.0000 0.57720  0.55650  0.90840  Biso   1.000  H
  H322     1.0000 0.57720  0.44350  0.40840  Biso   1.000  H
  H323     1.0000 0.07720  0.05650  0.90840  Biso   1.000  H
  H324     1.0000 0.07720  0.94350  0.40840  Biso   1.000  H
  C273     1.0000 0.77790  0.39250  0.95780  Biso   1.000  C
  C274     1.0000 0.77790  0.60750  0.45780  Biso   1.000  C
  C275     1.0000 0.27790  0.89250  0.95780  Biso   1.000  C
  C276     1.0000 0.27790  0.10750  0.45780  Biso   1.000  C
  H325     1.0000 0.76310  0.34970  0.92210  Biso   1.000  H
  H326     1.0000 0.76310  0.65030  0.42210  Biso   1.000  H
  H327     1.0000 0.26310  0.84970  0.92210  Biso   1.000  H
  H328     1.0000 0.26310  0.15030  0.42210  Biso   1.000  H
  C277     1.0000 0.80640  0.34750  0.01660  Biso   1.000  C
  C278     1.0000 0.80640  0.65250  0.51660  Biso   1.000  C
  C279     1.0000 0.30640  0.84750  0.01660  Biso   1.000  C
  C280     1.0000 0.30640  0.15250  0.51660  Biso   1.000  C
  H329     1.0000 0.81100  0.27390  0.02110  Biso   1.000  H
  H330     1.0000 0.81100  0.72610  0.52110  Biso   1.000  H
  H331     1.0000 0.31100  0.77390  0.02110  Biso   1.000  H
  H332     1.0000 0.31100  0.22610  0.52110  Biso   1.000  H
  C281     1.0000 0.82800  0.41020  0.06890  Biso   1.000  C
  C282     1.0000 0.82800  0.58980  0.56890  Biso   1.000  C
  C283     1.0000 0.32800  0.91020  0.06890  Biso   1.000  C
  C284     1.0000 0.32800  0.08980  0.56890  Biso   1.000  C
  H333     1.0000 0.84750  0.37940  0.10910  Biso   1.000  H
  H334     1.0000 0.84750  0.62060  0.60910  Biso   1.000  H
  H335     1.0000 0.34750  0.87940  0.10910  Biso   1.000  H
  H336     1.0000 0.34750  0.12060  0.60910  Biso   1.000  H
  C285     1.0000 0.82120  0.51790  0.06240  Biso   1.000  C
  C286     1.0000 0.82120  0.48210  0.56240  Biso   1.000  C
  C287     1.0000 0.32120  0.01790  0.06240  Biso   1.000  C
  C288     1.0000 0.32120  0.98210  0.56240  Biso   1.000  C
  H337     1.0000 0.83600  0.56080  0.09810  Biso   1.000  H
  H338     1.0000 0.83600  0.43920  0.59810  Biso   1.000  H
  H339     1.0000 0.33600  0.06080  0.09810  Biso   1.000  H
  H340     1.0000 0.33600  0.93920  0.59810  Biso   1.000  H
  C289     1.0000 0.79270  0.56290  0.00360  Biso   1.000  C
  C290     1.0000 0.79270  0.43710  0.50360  Biso   1.000  C
  C291     1.0000 0.29270  0.06290  0.00360  Biso   1.000  C
  C292     1.0000 0.29270  0.93710  0.50360  Biso   1.000  C
  C293     1.0000 0.77100  0.50020  0.95130  Biso   1.000  C
  C294     1.0000 0.77100  0.49980  0.45130  Biso   1.000  C
  C295     1.0000 0.27100  0.00020  0.95130  Biso   1.000  C
  C296     1.0000 0.27100  0.99980  0.45130  Biso   1.000  C
  H341     1.0000 0.75160  0.53100  0.91110  Biso   1.000  H
  H342     1.0000 0.75160  0.46900  0.41110  Biso   1.000  H
  H343     1.0000 0.25160  0.03100  0.91110  Biso   1.000  H
  H344     1.0000 0.25160  0.96900  0.41110  Biso   1.000  H
  C297     1.0000 0.67370  0.22540  0.99160  Biso   1.000  C
  C298     1.0000 0.67370  0.77460  0.49160  Biso   1.000  C
  C299     1.0000 0.17370  0.72540  0.99160  Biso   1.000  C
  C300     1.0000 0.17370  0.27460  0.49160  Biso   1.000  C
  C301     1.0000 0.64320  0.26560  0.99660  Biso   1.000  C
  C302     1.0000 0.64320  0.73440  0.49660  Biso   1.000  C
  C303     1.0000 0.14320  0.76560  0.99660  Biso   1.000  C
  C304     1.0000 0.14320  0.23440  0.49660  Biso   1.000  C
  H345     1.0000 0.62330  0.21980  0.99510  Biso   1.000  H
  H346     1.0000 0.62330  0.78020  0.49510  Biso   1.000  H
  H347     1.0000 0.12330  0.71980  0.99510  Biso   1.000  H
  H348     1.0000 0.12330  0.28020  0.49510  Biso   1.000  H
  C305     1.0000 0.64170  0.37270  0.00360  Biso   1.000  C
  C306     1.0000 0.64170  0.62730  0.50360  Biso   1.000  C
  C307     1.0000 0.14170  0.87270  0.00360  Biso   1.000  C
  C308     1.0000 0.14170  0.12730  0.50360  Biso   1.000  C
  H349     1.0000 0.62090  0.40020  0.00700  Biso   1.000  H
  H350     1.0000 0.62090  0.59980  0.50700  Biso   1.000  H
  H351     1.0000 0.12090  0.90020  0.00700  Biso   1.000  H
  H352     1.0000 0.12090  0.09980  0.50700  Biso   1.000  H
  C309     1.0000 0.67080  0.43960  0.00570  Biso   1.000  C
  C310     1.0000 0.67080  0.56040  0.50570  Biso   1.000  C
  C311     1.0000 0.17080  0.93960  0.00570  Biso   1.000  C
  C312     1.0000 0.17080  0.06040  0.50570  Biso   1.000  C
  H353     1.0000 0.66980  0.51290  0.01050  Biso   1.000  H
  H354     1.0000 0.66980  0.48710  0.51050  Biso   1.000  H
  H355     1.0000 0.16980  0.01290  0.01050  Biso   1.000  H
  H356     1.0000 0.16980  0.98710  0.51050  Biso   1.000  H
  C313     1.0000 0.70130  0.39940  0.00070  Biso   1.000  C
  C314     1.0000 0.70130  0.60060  0.50070  Biso   1.000  C
  C315     1.0000 0.20130  0.89940  0.00070  Biso   1.000  C
  C316     1.0000 0.20130  0.10060  0.50070  Biso   1.000  C
  H357     1.0000 0.72120  0.44520  0.00210  Biso   1.000  H
  H358     1.0000 0.72120  0.55480  0.50210  Biso   1.000  H
  H359     1.0000 0.22120  0.94520  0.00210  Biso   1.000  H
  H360     1.0000 0.22120  0.05480  0.50210  Biso   1.000  H
  C317     1.0000 0.70280  0.29230  0.99370  Biso   1.000  C
  C318     1.0000 0.70280  0.70770  0.49370  Biso   1.000  C
  C319     1.0000 0.20280  0.79230  0.99370  Biso   1.000  C
  C320     1.0000 0.20280  0.20770  0.49370  Biso   1.000  C
  H361     1.0000 0.72370  0.26480  0.99030  Biso   1.000  H
  H362     1.0000 0.72370  0.73520  0.49030  Biso   1.000  H
  H363     1.0000 0.22370  0.76480  0.99030  Biso   1.000  H
  H364     1.0000 0.22370  0.23520  0.49030  Biso   1.000  H
  C321     1.0000 0.81120  0.10850  0.15470  Biso   1.000  C
  C322     1.0000 0.81120  0.89150  0.65470  Biso   1.000  C
  C323     1.0000 0.31120  0.60850  0.15470  Biso   1.000  C
  C324     1.0000 0.31120  0.39150  0.65470  Biso   1.000  C
  C325     1.0000 0.83570  0.06580  0.21350  Biso   1.000  C
  C326     1.0000 0.83570  0.93420  0.71350  Biso   1.000  C
  C327     1.0000 0.33570  0.56580  0.21350  Biso   1.000  C
  C328     1.0000 0.33570  0.43420  0.71350  Biso   1.000  C
  H365     1.0000 0.83530  0.99230  0.21830  Biso   1.000  H
  H366     1.0000 0.83530  0.00770  0.71830  Biso   1.000  H
  H367     1.0000 0.33530  0.49230  0.21830  Biso   1.000  H
  H368     1.0000 0.33530  0.50770  0.71830  Biso   1.000  H
  C329     1.0000 0.86080  0.13050  0.26540  Biso   1.000  C
  C330     1.0000 0.86080  0.86950  0.76540  Biso   1.000  C
  C331     1.0000 0.36080  0.63050  0.26540  Biso   1.000  C
  C332     1.0000 0.36080  0.36950  0.76540  Biso   1.000  C
  H369     1.0000 0.87750  0.10130  0.30560  Biso   1.000  H
  H370     1.0000 0.87750  0.89870  0.80560  Biso   1.000  H
  H371     1.0000 0.37750  0.60130  0.30560  Biso   1.000  H
  H372     1.0000 0.37750  0.39870  0.80560  Biso   1.000  H
  C333     1.0000 0.86140  0.23800  0.25850  Biso   1.000  C
  C334     1.0000 0.86140  0.76200  0.75850  Biso   1.000  C
  C335     1.0000 0.36140  0.73800  0.25850  Biso   1.000  C
  C336     1.0000 0.36140  0.26200  0.75850  Biso   1.000  C
  H373     1.0000 0.87860  0.28230  0.29400  Biso   1.000  H
  H374     1.0000 0.87860  0.71770  0.79400  Biso   1.000  H
  H375     1.0000 0.37860  0.78230  0.29400  Biso   1.000  H
  H376     1.0000 0.37860  0.21770  0.79400  Biso   1.000  H
  C337     1.0000 0.83690  0.28080  0.19960  Biso   1.000  C
  C338     1.0000 0.83690  0.71920  0.69960  Biso   1.000  C
  C339     1.0000 0.33690  0.78080  0.19960  Biso   1.000  C
  C340     1.0000 0.33690  0.21920  0.69960  Biso   1.000  C
  H377     1.0000 0.83730  0.35430  0.19490  Biso   1.000  H
  H378     1.0000 0.83730  0.64570  0.69490  Biso   1.000  H
  H379     1.0000 0.33730  0.85430  0.19490  Biso   1.000  H
  H380     1.0000 0.33730  0.14570  0.69490  Biso   1.000  H
  C341     1.0000 0.81180  0.21600  0.14770  Biso   1.000  C
  C342     1.0000 0.81180  0.78400  0.64770  Biso   1.000  C
  C343     1.0000 0.31180  0.71600  0.14770  Biso   1.000  C
  C344     1.0000 0.31180  0.28400  0.64770  Biso   1.000  C
  H381     1.0000 0.79510  0.24530  0.10750  Biso   1.000  H
  H382     1.0000 0.79510  0.75470  0.60750  Biso   1.000  H
  H383     1.0000 0.29510  0.74530  0.10750  Biso   1.000  H
  H384     1.0000 0.29510  0.25470  0.60750  Biso   1.000  H
  O121     1.0000 0.41680  0.94500  0.56820  Biso   1.000  O
  O122     1.0000 0.41680  0.05500  0.06820  Biso   1.000  O
  O123     1.0000 0.91680  0.44500  0.56820  Biso   1.000  O
  O124     1.0000 0.91680  0.55500  0.06820  Biso   1.000  O
  H385     1.0000 0.41800  0.97310  0.59570  Biso   1.000  H
  H386     1.0000 0.41800  0.02690  0.09570  Biso   1.000  H
  H387     1.0000 0.91800  0.47310  0.59570  Biso   1.000  H
  H388     1.0000 0.91800  0.52690  0.09570  Biso   1.000  H
  C345     1.0000 0.45840  0.96600  0.58120  Biso   1.000  C
  C346     1.0000 0.45840  0.03400  0.08120  Biso   1.000  C
  C347     1.0000 0.95840  0.46600  0.58120  Biso   1.000  C
  C348     1.0000 0.95840  0.53400  0.08120  Biso   1.000  C
  H389     1.0000 0.45440  0.95060  0.54420  Biso   1.000  H
  H390     1.0000 0.45440  0.04940  0.04420  Biso   1.000  H
  H391     1.0000 0.95440  0.45060  0.54420  Biso   1.000  H
  H392     1.0000 0.95440  0.54940  0.04420  Biso   1.000  H
  H393     1.0000 0.46690  0.04090  0.59210  Biso   1.000  H
  H394     1.0000 0.46690  0.95910  0.09210  Biso   1.000  H
  H395     1.0000 0.96690  0.54090  0.59210  Biso   1.000  H
  H396     1.0000 0.96690  0.45910  0.09210  Biso   1.000  H
  C349     1.0000 0.49570  0.89700  0.63510  Biso   1.000  C
  C350     1.0000 0.49570  0.10300  0.13510  Biso   1.000  C
  C351     1.0000 0.99570  0.39700  0.63510  Biso   1.000  C
  C352     1.0000 0.99570  0.60300  0.13510  Biso   1.000  C
  H397     1.0000 0.49830  0.83300  0.61910  Biso   1.000  H
  H398     1.0000 0.49830  0.16700  0.11910  Biso   1.000  H
  H399     1.0000 0.99830  0.33300  0.61910  Biso   1.000  H
  H400     1.0000 0.99830  0.66700  0.11910  Biso   1.000  H
  H401     1.0000 0.52500  0.93490  0.66100  Biso   1.000  H
  H402     1.0000 0.52500  0.06510  0.16100  Biso   1.000  H
  H403     1.0000 0.02500  0.43490  0.66100  Biso   1.000  H
  H404     1.0000 0.02500  0.56510  0.16100  Biso   1.000  H
  H405     1.0000 0.48790  0.87960  0.66020  Biso   1.000  H
  H406     1.0000 0.48790  0.12040  0.16020  Biso   1.000  H
  H407     1.0000 0.98790  0.37960  0.66020  Biso   1.000  H
  H408     1.0000 0.98790  0.62040  0.16020  Biso   1.000  H
  O125     1.0000 0.47240  0.00500  0.74070  Biso   1.000  O
  O126     1.0000 0.47240  0.99500  0.24070  Biso   1.000  O
  O127     1.0000 0.97240  0.50500  0.74070  Biso   1.000  O
  O128     1.0000 0.97240  0.49500  0.24070  Biso   1.000  O
  H409     1.0000 0.46870  0.06370  0.74970  Biso   1.000  H
  H410     1.0000 0.46870  0.93630  0.24970  Biso   1.000  H
  H411     1.0000 0.96870  0.56370  0.74970  Biso   1.000  H
  H412     1.0000 0.96870  0.43630  0.24970  Biso   1.000  H
  C353     1.0000 0.43430  0.93900  0.71760  Biso   1.000  C
  C354     1.0000 0.43430  0.06100  0.21760  Biso   1.000  C
  C355     1.0000 0.93430  0.43900  0.71760  Biso   1.000  C
  C356     1.0000 0.93430  0.56100  0.21760  Biso   1.000  C
  H413     1.0000 0.44400  0.86450  0.72630  Biso   1.000  H
  H414     1.0000 0.44400  0.13550  0.22630  Biso   1.000  H
  H415     1.0000 0.94400  0.36450  0.72630  Biso   1.000  H
  H416     1.0000 0.94400  0.63550  0.22630  Biso   1.000  H
  H417     1.0000 0.40960  0.94760  0.67210  Biso   1.000  H
  H418     1.0000 0.40960  0.05240  0.17210  Biso   1.000  H
  H419     1.0000 0.90960  0.44760  0.67210  Biso   1.000  H
  H420     1.0000 0.90960  0.55240  0.17210  Biso   1.000  H
  C357     1.0000 0.41720  0.97000  0.74980  Biso   1.000  C
  C358     1.0000 0.41720  0.03000  0.24980  Biso   1.000  C
  C359     1.0000 0.91720  0.47000  0.74980  Biso   1.000  C
  C360     1.0000 0.91720  0.53000  0.24980  Biso   1.000  C
  H421     1.0000 0.39350  0.02390  0.72530  Biso   1.000  H
  H422     1.0000 0.39350  0.97610  0.22530  Biso   1.000  H
  H423     1.0000 0.89350  0.52390  0.72530  Biso   1.000  H
  H424     1.0000 0.89350  0.47610  0.22530  Biso   1.000  H
  H425     1.0000 0.44280  0.99720  0.79120  Biso   1.000  H
  H426     1.0000 0.44280  0.00280  0.29120  Biso   1.000  H
  H427     1.0000 0.94280  0.49720  0.79120  Biso   1.000  H
  H428     1.0000 0.94280  0.50280  0.29120  Biso   1.000  H
  H429     1.0000 0.40410  0.90840  0.75350  Biso   1.000  H
  H430     1.0000 0.40410  0.09160  0.25350  Biso   1.000  H
  H431     1.0000 0.90410  0.40840  0.75350  Biso   1.000  H
  H432     1.0000 0.90410  0.59160  0.25350  Biso   1.000  H
  O129     1.0000 0.88440  0.88600  0.12610  Biso   1.000  O
  O130     1.0000 0.88440  0.11400  0.62610  Biso   1.000  O
  O131     1.0000 0.38440  0.38600  0.12610  Biso   1.000  O
  O132     1.0000 0.38440  0.61400  0.62610  Biso   1.000  O
  H433     1.0000 0.89850  0.89270  0.11350  Biso   1.000  H
  H434     1.0000 0.89850  0.10730  0.61350  Biso   1.000  H
  H435     1.0000 0.39850  0.39270  0.11350  Biso   1.000  H
  H436     1.0000 0.39850  0.60730  0.61350  Biso   1.000  H
  C361     1.0000 0.91500  0.90800  0.19120  Biso   1.000  C
  C362     1.0000 0.91500  0.09200  0.69120  Biso   1.000  C
  C363     1.0000 0.41500  0.40800  0.19120  Biso   1.000  C
  C364     1.0000 0.41500  0.59200  0.69120  Biso   1.000  C
  H437     1.0000 0.90260  0.96570  0.19930  Biso   1.000  H
  H438     1.0000 0.90260  0.03430  0.69930  Biso   1.000  H
  H439     1.0000 0.40260  0.46570  0.19930  Biso   1.000  H
  H440     1.0000 0.40260  0.53430  0.69930  Biso   1.000  H
  H441     1.0000 0.94530  0.93020  0.20640  Biso   1.000  H
  H442     1.0000 0.94530  0.06980  0.70640  Biso   1.000  H
  H443     1.0000 0.44530  0.43020  0.20640  Biso   1.000  H
  H444     1.0000 0.44530  0.56980  0.70640  Biso   1.000  H
  C365     1.0000 0.92000  0.80900  0.22420  Biso   1.000  C
  C366     1.0000 0.92000  0.19100  0.72420  Biso   1.000  C
  C367     1.0000 0.42000  0.30900  0.22420  Biso   1.000  C
  C368     1.0000 0.42000  0.69100  0.72420  Biso   1.000  C
  H445     1.0000 0.89380  0.76300  0.19450  Biso   1.000  H
  H446     1.0000 0.89380  0.23700  0.69450  Biso   1.000  H
  H447     1.0000 0.39380  0.26300  0.19450  Biso   1.000  H
  H448     1.0000 0.39380  0.73700  0.69450  Biso   1.000  H
  H449     1.0000 0.92050  0.82770  0.25770  Biso   1.000  H
  H450     1.0000 0.92050  0.17230  0.75770  Biso   1.000  H
  H451     1.0000 0.42050  0.32770  0.25770  Biso   1.000  H
  H452     1.0000 0.42050  0.67230  0.75770  Biso   1.000  H
  H453     1.0000 0.94850  0.77380  0.24160  Biso   1.000  H
  H454     1.0000 0.94850  0.22620  0.74160  Biso   1.000  H
  H455     1.0000 0.44850  0.27380  0.24160  Biso   1.000  H
  H456     1.0000 0.44850  0.72620  0.74160  Biso   1.000  H
  C369     1.0000 0.78720  0.69200  0.14480  Biso   1.000  C
  C370     1.0000 0.78720  0.30800  0.64480  Biso   1.000  C
  C371     1.0000 0.28720  0.19200  0.14480  Biso   1.000  C
  C372     1.0000 0.28720  0.80800  0.64480  Biso   1.000  C
  C373     1.0000 0.80960  0.72600  0.20490  Biso   1.000  C
  C374     1.0000 0.80960  0.27400  0.70490  Biso   1.000  C
  C375     1.0000 0.30960  0.22600  0.20490  Biso   1.000  C
  C376     1.0000 0.30960  0.77400  0.70490  Biso   1.000  C
  H457     1.0000 0.81700  0.79750  0.21530  Biso   1.000  H
  H458     1.0000 0.81700  0.20250  0.71530  Biso   1.000  H
  H459     1.0000 0.31700  0.29750  0.21530  Biso   1.000  H
  H460     1.0000 0.31700  0.70250  0.71530  Biso   1.000  H
  C377     1.0000 0.82120  0.65400  0.24960  Biso   1.000  C
  C378     1.0000 0.82120  0.34600  0.74960  Biso   1.000  C
  C379     1.0000 0.32120  0.15400  0.24960  Biso   1.000  C
  C380     1.0000 0.32120  0.84600  0.74960  Biso   1.000  C
  H461     1.0000 0.83650  0.67670  0.29070  Biso   1.000  H
  H462     1.0000 0.83650  0.32330  0.79070  Biso   1.000  H
  H463     1.0000 0.33650  0.17670  0.29070  Biso   1.000  H
  H464     1.0000 0.33650  0.82330  0.79070  Biso   1.000  H
  C381     1.0000 0.81040  0.54900  0.23430  Biso   1.000  C
  C382     1.0000 0.81040  0.45100  0.73430  Biso   1.000  C
  C383     1.0000 0.31040  0.04900  0.23430  Biso   1.000  C
  C384     1.0000 0.31040  0.95100  0.73430  Biso   1.000  C
  H465     1.0000 0.81840  0.49950  0.26490  Biso   1.000  H
  H466     1.0000 0.81840  0.50050  0.76490  Biso   1.000  H
  H467     1.0000 0.31840  0.99950  0.26490  Biso   1.000  H
  H468     1.0000 0.31840  0.00050  0.76490  Biso   1.000  H
  C385     1.0000 0.78800  0.51500  0.17430  Biso   1.000  C
  C386     1.0000 0.78800  0.48500  0.67430  Biso   1.000  C
  C387     1.0000 0.28800  0.01500  0.17430  Biso   1.000  C
  C388     1.0000 0.28800  0.98500  0.67430  Biso   1.000  C
  H469     1.0000 0.78070  0.44310  0.16380  Biso   1.000  H
  H470     1.0000 0.78070  0.55690  0.66380  Biso   1.000  H
  H471     1.0000 0.28070  0.94310  0.16380  Biso   1.000  H
  H472     1.0000 0.28070  0.05690  0.66380  Biso   1.000  H
  C389     1.0000 0.77640  0.58670  0.12950  Biso   1.000  C
  C390     1.0000 0.77640  0.41330  0.62950  Biso   1.000  C
  C391     1.0000 0.27640  0.08670  0.12950  Biso   1.000  C
  C392     1.0000 0.27640  0.91330  0.62950  Biso   1.000  C
  H473     1.0000 0.76110  0.56380  0.08850  Biso   1.000  H
  H474     1.0000 0.76110  0.43620  0.58850  Biso   1.000  H
  H475     1.0000 0.26110  0.06380  0.08850  Biso   1.000  H
  H476     1.0000 0.26110  0.93620  0.58850  Biso   1.000  H
  C393     1.0000 0.58200  0.69460  0.64470  Biso   1.000  C
  C394     1.0000 0.58200  0.30540  0.14470  Biso   1.000  C
  C395     1.0000 0.08200  0.19460  0.64470  Biso   1.000  C
  C396     1.0000 0.08200  0.80540  0.14470  Biso   1.000  C
  C397     1.0000 0.59610  0.59120  0.66200  Biso   1.000  C
  C398     1.0000 0.59610  0.40880  0.16200  Biso   1.000  C
  C399     1.0000 0.09610  0.09120  0.66200  Biso   1.000  C
  C400     1.0000 0.09610  0.90880  0.16200  Biso   1.000  C
  H477     1.0000 0.61090  0.56880  0.70300  Biso   1.000  H
  H478     1.0000 0.61090  0.43120  0.20300  Biso   1.000  H
  H479     1.0000 0.11090  0.06880  0.70300  Biso   1.000  H
  H480     1.0000 0.11090  0.93120  0.20300  Biso   1.000  H
  C401     1.0000 0.58860  0.52050  0.61940  Biso   1.000  C
  C402     1.0000 0.58860  0.47950  0.11940  Biso   1.000  C
  C403     1.0000 0.08860  0.02050  0.61940  Biso   1.000  C
  C404     1.0000 0.08860  0.97950  0.11940  Biso   1.000  C
  H481     1.0000 0.59830  0.44980  0.63120  Biso   1.000  H
  H482     1.0000 0.59830  0.55020  0.13120  Biso   1.000  H
  H483     1.0000 0.09830  0.94980  0.63120  Biso   1.000  H
  H484     1.0000 0.09830  0.05020  0.13120  Biso   1.000  H
  C405     1.0000 0.56700  0.55320  0.55940  Biso   1.000  C
  C406     1.0000 0.56700  0.44680  0.05940  Biso   1.000  C
  C407     1.0000 0.06700  0.05320  0.55940  Biso   1.000  C
  C408     1.0000 0.06700  0.94680  0.05940  Biso   1.000  C
  H485     1.0000 0.56190  0.50490  0.53030  Biso   1.000  H
  H486     1.0000 0.56190  0.49510  0.03030  Biso   1.000  H
  H487     1.0000 0.06190  0.00490  0.53030  Biso   1.000  H
  H488     1.0000 0.06190  0.99510  0.03030  Biso   1.000  H
  C409     1.0000 0.55280  0.65660  0.54210  Biso   1.000  C
  C410     1.0000 0.55280  0.34340  0.04210  Biso   1.000  C
  C411     1.0000 0.05280  0.15660  0.54210  Biso   1.000  C
  C412     1.0000 0.05280  0.84340  0.04210  Biso   1.000  C
  H489     1.0000 0.53800  0.67900  0.50110  Biso   1.000  H
  H490     1.0000 0.53800  0.32100  0.00110  Biso   1.000  H
  H491     1.0000 0.03800  0.17900  0.50110  Biso   1.000  H
  H492     1.0000 0.03800  0.82100  0.00110  Biso   1.000  H
  C413     1.0000 0.56030  0.72730  0.58470  Biso   1.000  C
  C414     1.0000 0.56030  0.27270  0.08470  Biso   1.000  C
  C415     1.0000 0.06030  0.22730  0.58470  Biso   1.000  C
  C416     1.0000 0.06030  0.77270  0.08470  Biso   1.000  C
  H493     1.0000 0.55070  0.79800  0.57290  Biso   1.000  H
  H494     1.0000 0.55070  0.20200  0.07290  Biso   1.000  H
  H495     1.0000 0.05070  0.29800  0.57290  Biso   1.000  H
  H496     1.0000 0.05070  0.70200  0.07290  Biso   1.000  H
  H497     1.0000 0.49080  0.15320  0.68190  Biso   1.000  H
  H498     1.0000 0.49080  0.84680  0.18190  Biso   1.000  H
  H499     1.0000 0.99080  0.65320  0.68190  Biso   1.000  H
  H500     1.0000 0.99080  0.34680  0.18190  Biso   1.000  H
  O133     1.0000 0.47170  0.18660  0.68080  Biso   1.000  O
  O134     1.0000 0.47170  0.81340  0.18080  Biso   1.000  O
  O135     1.0000 0.97170  0.68660  0.68080  Biso   1.000  O
  O136     1.0000 0.97170  0.31340  0.18080  Biso   1.000  O
  H501     1.0000 0.41110  0.38420  0.60360  Biso   1.000  H
  H502     1.0000 0.41110  0.61580  0.10360  Biso   1.000  H
  H503     1.0000 0.91110  0.88420  0.60360  Biso   1.000  H
  H504     1.0000 0.91110  0.11580  0.10360  Biso   1.000  H
