data_image0
_cell_length_a       30.6123
_cell_length_b       30.6123
_cell_length_c       29.4707
_cell_angle_alpha    90
_cell_angle_beta     90
_cell_angle_gamma    120

_symmetry_space_group_name_H-M    "P 1"
_symmetry_int_tables_number       1

loop_
  _symmetry_equiv_pos_as_xyz
  'x, y, z'

loop_
  _atom_site_label
  _atom_site_occupancy
  _atom_site_fract_x
  _atom_site_fract_y
  _atom_site_fract_z
  _atom_site_thermal_displace_type
  _atom_site_B_iso_or_equiv
  _atom_site_type_symbol
  C1       1.0000 0.06440  0.59640  0.60970  Biso   1.000  C
  C2       1.0000 0.40360  0.46800  0.60970  Biso   1.000  C
  C3       1.0000 0.53200  0.93560  0.60970  Biso   1.000  C
  C4       1.0000 0.73107  0.92973  0.94303  Biso   1.000  C
  C5       1.0000 0.07027  0.80133  0.94303  Biso   1.000  C
  C6       1.0000 0.19867  0.26893  0.94303  Biso   1.000  C
  C7       1.0000 0.39773  0.26307  0.27637  Biso   1.000  C
  C8       1.0000 0.73693  0.13467  0.27637  Biso   1.000  C
  C9       1.0000 0.86533  0.60227  0.27637  Biso   1.000  C
  C10      1.0000 0.93560  0.40360  0.39030  Biso   1.000  C
  C11      1.0000 0.59640  0.53200  0.39030  Biso   1.000  C
  C12      1.0000 0.46800  0.06440  0.39030  Biso   1.000  C
  C13      1.0000 0.60227  0.73693  0.72363  Biso   1.000  C
  C14      1.0000 0.26307  0.86533  0.72363  Biso   1.000  C
  C15      1.0000 0.13467  0.39773  0.72363  Biso   1.000  C
  C16      1.0000 0.26893  0.07027  0.05697  Biso   1.000  C
  C17      1.0000 0.92973  0.19867  0.05697  Biso   1.000  C
  C18      1.0000 0.80133  0.73107  0.05697  Biso   1.000  C
  H1       1.0000 0.03280  0.58510  0.59670  Biso   1.000  H
  H2       1.0000 0.41490  0.44770  0.59670  Biso   1.000  H
  H3       1.0000 0.55230  0.96720  0.59670  Biso   1.000  H
  H4       1.0000 0.69947  0.91843  0.93003  Biso   1.000  H
  H5       1.0000 0.08157  0.78103  0.93003  Biso   1.000  H
  H6       1.0000 0.21897  0.30053  0.93003  Biso   1.000  H
  H7       1.0000 0.36613  0.25177  0.26337  Biso   1.000  H
  H8       1.0000 0.74823  0.11437  0.26337  Biso   1.000  H
  H9       1.0000 0.88563  0.63387  0.26337  Biso   1.000  H
  H10      1.0000 0.96720  0.41490  0.40330  Biso   1.000  H
  H11      1.0000 0.58510  0.55230  0.40330  Biso   1.000  H
  H12      1.0000 0.44770  0.03280  0.40330  Biso   1.000  H
  H13      1.0000 0.63387  0.74823  0.73663  Biso   1.000  H
  H14      1.0000 0.25177  0.88563  0.73663  Biso   1.000  H
  H15      1.0000 0.11437  0.36613  0.73663  Biso   1.000  H
  H16      1.0000 0.30053  0.08157  0.06997  Biso   1.000  H
  H17      1.0000 0.91843  0.21897  0.06997  Biso   1.000  H
  H18      1.0000 0.78103  0.69947  0.06997  Biso   1.000  H
  C19      1.0000 0.08180  0.63240  0.64500  Biso   1.000  C
  C20      1.0000 0.36760  0.44940  0.64500  Biso   1.000  C
  C21      1.0000 0.55060  0.91820  0.64500  Biso   1.000  C
  C22      1.0000 0.74847  0.96573  0.97833  Biso   1.000  C
  C23      1.0000 0.03427  0.78273  0.97833  Biso   1.000  C
  C24      1.0000 0.21727  0.25153  0.97833  Biso   1.000  C
  C25      1.0000 0.41513  0.29907  0.31167  Biso   1.000  C
  C26      1.0000 0.70093  0.11607  0.31167  Biso   1.000  C
  C27      1.0000 0.88393  0.58487  0.31167  Biso   1.000  C
  C28      1.0000 0.91820  0.36760  0.35500  Biso   1.000  C
  C29      1.0000 0.63240  0.55060  0.35500  Biso   1.000  C
  C30      1.0000 0.44940  0.08180  0.35500  Biso   1.000  C
  C31      1.0000 0.58487  0.70093  0.68833  Biso   1.000  C
  C32      1.0000 0.29907  0.88393  0.68833  Biso   1.000  C
  C33      1.0000 0.11607  0.41513  0.68833  Biso   1.000  C
  C34      1.0000 0.25153  0.03427  0.02167  Biso   1.000  C
  C35      1.0000 0.96573  0.21727  0.02167  Biso   1.000  C
  C36      1.0000 0.78273  0.74847  0.02167  Biso   1.000  C
  H19      1.0000 0.06250  0.64660  0.65410  Biso   1.000  H
  H20      1.0000 0.35340  0.41590  0.65410  Biso   1.000  H
  H21      1.0000 0.58410  0.93750  0.65410  Biso   1.000  H
  H22      1.0000 0.72917  0.97993  0.98743  Biso   1.000  H
  H23      1.0000 0.02007  0.74923  0.98743  Biso   1.000  H
  H24      1.0000 0.25077  0.27083  0.98743  Biso   1.000  H
  H25      1.0000 0.39583  0.31327  0.32077  Biso   1.000  H
  H26      1.0000 0.68673  0.08257  0.32077  Biso   1.000  H
  H27      1.0000 0.91743  0.60417  0.32077  Biso   1.000  H
  H28      1.0000 0.93750  0.35340  0.34590  Biso   1.000  H
  H29      1.0000 0.64660  0.58410  0.34590  Biso   1.000  H
  H30      1.0000 0.41590  0.06250  0.34590  Biso   1.000  H
  H31      1.0000 0.60417  0.68673  0.67923  Biso   1.000  H
  H32      1.0000 0.31327  0.91743  0.67923  Biso   1.000  H
  H33      1.0000 0.08257  0.39583  0.67923  Biso   1.000  H
  H34      1.0000 0.27083  0.02007  0.01257  Biso   1.000  H
  H35      1.0000 0.97993  0.25077  0.01257  Biso   1.000  H
  H36      1.0000 0.74923  0.72917  0.01257  Biso   1.000  H
  C37      1.0000 0.12920  0.64730  0.66690  Biso   1.000  C
  C38      1.0000 0.35270  0.48190  0.66690  Biso   1.000  C
  C39      1.0000 0.51810  0.87080  0.66690  Biso   1.000  C
  C40      1.0000 0.79587  0.98063  0.00023  Biso   1.000  C
  C41      1.0000 0.01937  0.81523  0.00023  Biso   1.000  C
  C42      1.0000 0.18477  0.20413  0.00023  Biso   1.000  C
  C43      1.0000 0.46253  0.31397  0.33357  Biso   1.000  C
  C44      1.0000 0.68603  0.14857  0.33357  Biso   1.000  C
  C45      1.0000 0.85143  0.53747  0.33357  Biso   1.000  C
  C46      1.0000 0.87080  0.35270  0.33310  Biso   1.000  C
  C47      1.0000 0.64730  0.51810  0.33310  Biso   1.000  C
  C48      1.0000 0.48190  0.12920  0.33310  Biso   1.000  C
  C49      1.0000 0.53747  0.68603  0.66643  Biso   1.000  C
  C50      1.0000 0.31397  0.85143  0.66643  Biso   1.000  C
  C51      1.0000 0.14857  0.46253  0.66643  Biso   1.000  C
  C52      1.0000 0.20413  0.01937  0.99977  Biso   1.000  C
  C53      1.0000 0.98063  0.18477  0.99977  Biso   1.000  C
  C54      1.0000 0.81523  0.79587  0.99977  Biso   1.000  C
  H37      1.0000 0.13940  0.66980  0.69110  Biso   1.000  H
  H38      1.0000 0.33020  0.46960  0.69110  Biso   1.000  H
  H39      1.0000 0.53040  0.86060  0.69110  Biso   1.000  H
  H40      1.0000 0.80607  0.00313  0.02443  Biso   1.000  H
  H41      1.0000 0.99687  0.80293  0.02443  Biso   1.000  H
  H42      1.0000 0.19707  0.19393  0.02443  Biso   1.000  H
  H43      1.0000 0.47273  0.33647  0.35777  Biso   1.000  H
  H44      1.0000 0.66353  0.13627  0.35777  Biso   1.000  H
  H45      1.0000 0.86373  0.52727  0.35777  Biso   1.000  H
  H46      1.0000 0.86060  0.33020  0.30890  Biso   1.000  H
  H47      1.0000 0.66980  0.53040  0.30890  Biso   1.000  H
  H48      1.0000 0.46960  0.13940  0.30890  Biso   1.000  H
  H49      1.0000 0.52727  0.66353  0.64223  Biso   1.000  H
  H50      1.0000 0.33647  0.86373  0.64223  Biso   1.000  H
  H51      1.0000 0.13627  0.47273  0.64223  Biso   1.000  H
  H52      1.0000 0.19393  0.99687  0.97557  Biso   1.000  H
  H53      1.0000 0.00313  0.19707  0.97557  Biso   1.000  H
  H54      1.0000 0.80293  0.80607  0.97557  Biso   1.000  H
  C55      1.0000 0.15930  0.62890  0.65280  Biso   1.000  C
  C56      1.0000 0.37110  0.53040  0.65280  Biso   1.000  C
  C57      1.0000 0.46960  0.84070  0.65280  Biso   1.000  C
  C58      1.0000 0.82597  0.96223  0.98613  Biso   1.000  C
  C59      1.0000 0.03777  0.86373  0.98613  Biso   1.000  C
  C60      1.0000 0.13627  0.17403  0.98613  Biso   1.000  C
  C61      1.0000 0.49263  0.29557  0.31947  Biso   1.000  C
  C62      1.0000 0.70443  0.19707  0.31947  Biso   1.000  C
  C63      1.0000 0.80293  0.50737  0.31947  Biso   1.000  C
  C64      1.0000 0.84070  0.37110  0.34720  Biso   1.000  C
  C65      1.0000 0.62890  0.46960  0.34720  Biso   1.000  C
  C66      1.0000 0.53040  0.15930  0.34720  Biso   1.000  C
  C67      1.0000 0.50737  0.70443  0.68053  Biso   1.000  C
  C68      1.0000 0.29557  0.80293  0.68053  Biso   1.000  C
  C69      1.0000 0.19707  0.49263  0.68053  Biso   1.000  C
  C70      1.0000 0.17403  0.03777  0.01387  Biso   1.000  C
  C71      1.0000 0.96223  0.13627  0.01387  Biso   1.000  C
  C72      1.0000 0.86373  0.82597  0.01387  Biso   1.000  C
  H55      1.0000 0.18970  0.63880  0.66760  Biso   1.000  H
  H56      1.0000 0.36120  0.55090  0.66760  Biso   1.000  H
  H57      1.0000 0.44910  0.81030  0.66760  Biso   1.000  H
  H58      1.0000 0.85637  0.97213  0.00093  Biso   1.000  H
  H59      1.0000 0.02787  0.88423  0.00093  Biso   1.000  H
  H60      1.0000 0.11577  0.14363  0.00093  Biso   1.000  H
  H61      1.0000 0.52303  0.30547  0.33427  Biso   1.000  H
  H62      1.0000 0.69453  0.21757  0.33427  Biso   1.000  H
  H63      1.0000 0.78243  0.47697  0.33427  Biso   1.000  H
  H64      1.0000 0.81030  0.36120  0.33240  Biso   1.000  H
  H65      1.0000 0.63880  0.44910  0.33240  Biso   1.000  H
  H66      1.0000 0.55090  0.18970  0.33240  Biso   1.000  H
  H67      1.0000 0.47697  0.69453  0.66573  Biso   1.000  H
  H68      1.0000 0.30547  0.78243  0.66573  Biso   1.000  H
  H69      1.0000 0.21757  0.52303  0.66573  Biso   1.000  H
  H70      1.0000 0.14363  0.02787  0.99907  Biso   1.000  H
  H71      1.0000 0.97213  0.11577  0.99907  Biso   1.000  H
  H72      1.0000 0.88423  0.85637  0.99907  Biso   1.000  H
  C73      1.0000 0.14480  0.59480  0.61580  Biso   1.000  C
  C74      1.0000 0.40520  0.55000  0.61580  Biso   1.000  C
  C75      1.0000 0.45000  0.85520  0.61580  Biso   1.000  C
  C76      1.0000 0.81147  0.92813  0.94913  Biso   1.000  C
  C77      1.0000 0.07187  0.88333  0.94913  Biso   1.000  C
  C78      1.0000 0.11667  0.18853  0.94913  Biso   1.000  C
  C79      1.0000 0.47813  0.26147  0.28247  Biso   1.000  C
  C80      1.0000 0.73853  0.21667  0.28247  Biso   1.000  C
  C81      1.0000 0.78333  0.52187  0.28247  Biso   1.000  C
  C82      1.0000 0.85520  0.40520  0.38420  Biso   1.000  C
  C83      1.0000 0.59480  0.45000  0.38420  Biso   1.000  C
  C84      1.0000 0.55000  0.14480  0.38420  Biso   1.000  C
  C85      1.0000 0.52187  0.73853  0.71753  Biso   1.000  C
  C86      1.0000 0.26147  0.78333  0.71753  Biso   1.000  C
  C87      1.0000 0.21667  0.47813  0.71753  Biso   1.000  C
  C88      1.0000 0.18853  0.07187  0.05087  Biso   1.000  C
  C89      1.0000 0.92813  0.11667  0.05087  Biso   1.000  C
  C90      1.0000 0.88333  0.81147  0.05087  Biso   1.000  C
  C91      1.0000 0.09540  0.57810  0.59450  Biso   1.000  C
  C92      1.0000 0.42190  0.51730  0.59450  Biso   1.000  C
  C93      1.0000 0.48270  0.90460  0.59450  Biso   1.000  C
  C94      1.0000 0.76207  0.91143  0.92783  Biso   1.000  C
  C95      1.0000 0.08857  0.85063  0.92783  Biso   1.000  C
  C96      1.0000 0.14937  0.23793  0.92783  Biso   1.000  C
  C97      1.0000 0.42873  0.24477  0.26117  Biso   1.000  C
  C98      1.0000 0.75523  0.18397  0.26117  Biso   1.000  C
  C99      1.0000 0.81603  0.57127  0.26117  Biso   1.000  C
  C100     1.0000 0.90460  0.42190  0.40550  Biso   1.000  C
  C101     1.0000 0.57810  0.48270  0.40550  Biso   1.000  C
  C102     1.0000 0.51730  0.09540  0.40550  Biso   1.000  C
  C103     1.0000 0.57127  0.75523  0.73883  Biso   1.000  C
  C104     1.0000 0.24477  0.81603  0.73883  Biso   1.000  C
  C105     1.0000 0.18397  0.42873  0.73883  Biso   1.000  C
  C106     1.0000 0.23793  0.08857  0.07217  Biso   1.000  C
  C107     1.0000 0.91143  0.14937  0.07217  Biso   1.000  C
  C108     1.0000 0.85063  0.76207  0.07217  Biso   1.000  C
  C109     1.0000 0.11146  0.53001  0.54452  Biso   1.000  C
  C110     1.0000 0.46999  0.58145  0.54452  Biso   1.000  C
  C111     1.0000 0.41855  0.88854  0.54452  Biso   1.000  C
  C112     1.0000 0.77813  0.86334  0.87785  Biso   1.000  C
  C113     1.0000 0.13666  0.91478  0.87785  Biso   1.000  C
  C114     1.0000 0.08522  0.22187  0.87785  Biso   1.000  C
  C115     1.0000 0.44479  0.19668  0.21119  Biso   1.000  C
  C116     1.0000 0.80332  0.24812  0.21119  Biso   1.000  C
  C117     1.0000 0.75188  0.55521  0.21119  Biso   1.000  C
  C118     1.0000 0.88854  0.46999  0.45548  Biso   1.000  C
  C119     1.0000 0.53001  0.41855  0.45548  Biso   1.000  C
  C120     1.0000 0.58145  0.11146  0.45548  Biso   1.000  C
  C121     1.0000 0.55521  0.80332  0.78881  Biso   1.000  C
  C122     1.0000 0.19668  0.75188  0.78881  Biso   1.000  C
  C123     1.0000 0.24812  0.44479  0.78881  Biso   1.000  C
  C124     1.0000 0.22187  0.13666  0.12215  Biso   1.000  C
  C125     1.0000 0.86334  0.08522  0.12215  Biso   1.000  C
  C126     1.0000 0.91478  0.77813  0.12215  Biso   1.000  C
  C127     1.0000 0.15900  0.54410  0.56340  Biso   1.000  C
  C128     1.0000 0.45590  0.61490  0.56340  Biso   1.000  C
  C129     1.0000 0.38510  0.84100  0.56340  Biso   1.000  C
  C130     1.0000 0.82567  0.87743  0.89673  Biso   1.000  C
  C131     1.0000 0.12257  0.94823  0.89673  Biso   1.000  C
  C132     1.0000 0.05177  0.17433  0.89673  Biso   1.000  C
  C133     1.0000 0.49233  0.21077  0.23007  Biso   1.000  C
  C134     1.0000 0.78923  0.28157  0.23007  Biso   1.000  C
  C135     1.0000 0.71843  0.50767  0.23007  Biso   1.000  C
  C136     1.0000 0.84100  0.45590  0.43660  Biso   1.000  C
  C137     1.0000 0.54410  0.38510  0.43660  Biso   1.000  C
  C138     1.0000 0.61490  0.15900  0.43660  Biso   1.000  C
  C139     1.0000 0.50767  0.78923  0.76993  Biso   1.000  C
  C140     1.0000 0.21077  0.71843  0.76993  Biso   1.000  C
  C141     1.0000 0.28157  0.49233  0.76993  Biso   1.000  C
  C142     1.0000 0.17433  0.12257  0.10327  Biso   1.000  C
  C143     1.0000 0.87743  0.05177  0.10327  Biso   1.000  C
  C144     1.0000 0.94823  0.82567  0.10327  Biso   1.000  C
  H73      1.0000 0.17900  0.53190  0.55150  Biso   1.000  H
  H74      1.0000 0.46810  0.64710  0.55150  Biso   1.000  H
  H75      1.0000 0.35290  0.82100  0.55150  Biso   1.000  H
  H76      1.0000 0.84567  0.86523  0.88483  Biso   1.000  H
  H77      1.0000 0.13477  0.98043  0.88483  Biso   1.000  H
  H78      1.0000 0.01957  0.15433  0.88483  Biso   1.000  H
  H79      1.0000 0.51233  0.19857  0.21817  Biso   1.000  H
  H80      1.0000 0.80143  0.31377  0.21817  Biso   1.000  H
  H81      1.0000 0.68623  0.48767  0.21817  Biso   1.000  H
  H82      1.0000 0.82100  0.46810  0.44850  Biso   1.000  H
  H83      1.0000 0.53190  0.35290  0.44850  Biso   1.000  H
  H84      1.0000 0.64710  0.17900  0.44850  Biso   1.000  H
  H85      1.0000 0.48767  0.80143  0.78183  Biso   1.000  H
  H86      1.0000 0.19857  0.68623  0.78183  Biso   1.000  H
  H87      1.0000 0.31377  0.51233  0.78183  Biso   1.000  H
  H88      1.0000 0.15433  0.13477  0.11517  Biso   1.000  H
  H89      1.0000 0.86523  0.01957  0.11517  Biso   1.000  H
  H90      1.0000 0.98043  0.84567  0.11517  Biso   1.000  H
  C145     1.0000 0.17500  0.57610  0.59970  Biso   1.000  C
  C146     1.0000 0.42390  0.59890  0.59970  Biso   1.000  C
  C147     1.0000 0.40110  0.82500  0.59970  Biso   1.000  C
  C148     1.0000 0.84167  0.90943  0.93303  Biso   1.000  C
  C149     1.0000 0.09057  0.93223  0.93303  Biso   1.000  C
  C150     1.0000 0.06777  0.15833  0.93303  Biso   1.000  C
  C151     1.0000 0.50833  0.24277  0.26637  Biso   1.000  C
  C152     1.0000 0.75723  0.26557  0.26637  Biso   1.000  C
  C153     1.0000 0.73443  0.49167  0.26637  Biso   1.000  C
  C154     1.0000 0.82500  0.42390  0.40030  Biso   1.000  C
  C155     1.0000 0.57610  0.40110  0.40030  Biso   1.000  C
  C156     1.0000 0.59890  0.17500  0.40030  Biso   1.000  C
  C157     1.0000 0.49167  0.75723  0.73363  Biso   1.000  C
  C158     1.0000 0.24277  0.73443  0.73363  Biso   1.000  C
  C159     1.0000 0.26557  0.50833  0.73363  Biso   1.000  C
  C160     1.0000 0.15833  0.09057  0.06697  Biso   1.000  C
  C161     1.0000 0.90943  0.06777  0.06697  Biso   1.000  C
  C162     1.0000 0.93223  0.84167  0.06697  Biso   1.000  C
  H91      1.0000 0.20570  0.58540  0.61350  Biso   1.000  H
  H92      1.0000 0.41460  0.62030  0.61350  Biso   1.000  H
  H93      1.0000 0.37970  0.79430  0.61350  Biso   1.000  H
  H94      1.0000 0.87237  0.91873  0.94683  Biso   1.000  H
  H95      1.0000 0.08127  0.95363  0.94683  Biso   1.000  H
  H96      1.0000 0.04637  0.12763  0.94683  Biso   1.000  H
  H97      1.0000 0.53903  0.25207  0.28017  Biso   1.000  H
  H98      1.0000 0.74793  0.28697  0.28017  Biso   1.000  H
  H99      1.0000 0.71303  0.46097  0.28017  Biso   1.000  H
  H100     1.0000 0.79430  0.41460  0.38650  Biso   1.000  H
  H101     1.0000 0.58540  0.37970  0.38650  Biso   1.000  H
  H102     1.0000 0.62030  0.20570  0.38650  Biso   1.000  H
  H103     1.0000 0.46097  0.74793  0.71983  Biso   1.000  H
  H104     1.0000 0.25207  0.71303  0.71983  Biso   1.000  H
  H105     1.0000 0.28697  0.53903  0.71983  Biso   1.000  H
  H106     1.0000 0.12763  0.08127  0.05317  Biso   1.000  H
  H107     1.0000 0.91873  0.04637  0.05317  Biso   1.000  H
  H108     1.0000 0.95363  0.87237  0.05317  Biso   1.000  H
  C163     1.0000 0.09353  0.49652  0.50412  Biso   1.000  C
  C164     1.0000 0.50348  0.59701  0.50412  Biso   1.000  C
  C165     1.0000 0.40299  0.90647  0.50412  Biso   1.000  C
  C166     1.0000 0.76020  0.82985  0.83745  Biso   1.000  C
  C167     1.0000 0.17015  0.93034  0.83745  Biso   1.000  C
  C168     1.0000 0.06966  0.23980  0.83745  Biso   1.000  C
  C169     1.0000 0.42686  0.16319  0.17079  Biso   1.000  C
  C170     1.0000 0.83681  0.26368  0.17079  Biso   1.000  C
  C171     1.0000 0.73632  0.57314  0.17079  Biso   1.000  C
  C172     1.0000 0.90647  0.50348  0.49588  Biso   1.000  C
  C173     1.0000 0.49652  0.40299  0.49588  Biso   1.000  C
  C174     1.0000 0.59701  0.09353  0.49588  Biso   1.000  C
  C175     1.0000 0.57314  0.83681  0.82921  Biso   1.000  C
  C176     1.0000 0.16319  0.73632  0.82921  Biso   1.000  C
  C177     1.0000 0.26368  0.42686  0.82921  Biso   1.000  C
  C178     1.0000 0.23980  0.17015  0.16255  Biso   1.000  C
  C179     1.0000 0.82985  0.06966  0.16255  Biso   1.000  C
  C180     1.0000 0.93034  0.76020  0.16255  Biso   1.000  C
  C181     1.0000 0.09255  0.45160  0.45072  Biso   1.000  C
  C182     1.0000 0.54840  0.64095  0.45072  Biso   1.000  C
  C183     1.0000 0.35905  0.90745  0.45072  Biso   1.000  C
  C184     1.0000 0.75922  0.78493  0.78405  Biso   1.000  C
  C185     1.0000 0.21507  0.97428  0.78405  Biso   1.000  C
  C186     1.0000 0.02572  0.24078  0.78405  Biso   1.000  C
  C187     1.0000 0.42588  0.11827  0.11739  Biso   1.000  C
  C188     1.0000 0.88173  0.30762  0.11739  Biso   1.000  C
  C189     1.0000 0.69238  0.57412  0.11739  Biso   1.000  C
  C190     1.0000 0.90745  0.54840  0.54928  Biso   1.000  C
  C191     1.0000 0.45160  0.35905  0.54928  Biso   1.000  C
  C192     1.0000 0.64095  0.09255  0.54928  Biso   1.000  C
  C193     1.0000 0.57412  0.88173  0.88261  Biso   1.000  C
  C194     1.0000 0.11827  0.69238  0.88261  Biso   1.000  C
  C195     1.0000 0.30762  0.42588  0.88261  Biso   1.000  C
  C196     1.0000 0.24078  0.21507  0.21595  Biso   1.000  C
  C197     1.0000 0.78493  0.02572  0.21595  Biso   1.000  C
  C198     1.0000 0.97428  0.75922  0.21595  Biso   1.000  C
  C199     1.0000 0.11042  0.42570  0.42285  Biso   1.000  C
  C200     1.0000 0.57430  0.68472  0.42285  Biso   1.000  C
  C201     1.0000 0.31528  0.88958  0.42285  Biso   1.000  C
  C202     1.0000 0.77709  0.75903  0.75618  Biso   1.000  C
  C203     1.0000 0.24097  0.01805  0.75618  Biso   1.000  C
  C204     1.0000 0.98195  0.22291  0.75618  Biso   1.000  C
  C205     1.0000 0.44375  0.09237  0.08952  Biso   1.000  C
  C206     1.0000 0.90763  0.35139  0.08952  Biso   1.000  C
  C207     1.0000 0.64861  0.55625  0.08952  Biso   1.000  C
  C208     1.0000 0.88958  0.57430  0.57715  Biso   1.000  C
  C209     1.0000 0.42570  0.31528  0.57715  Biso   1.000  C
  C210     1.0000 0.68472  0.11042  0.57715  Biso   1.000  C
  C211     1.0000 0.55625  0.90763  0.91048  Biso   1.000  C
  C212     1.0000 0.09237  0.64861  0.91048  Biso   1.000  C
  C213     1.0000 0.35139  0.44375  0.91048  Biso   1.000  C
  C214     1.0000 0.22291  0.24097  0.24382  Biso   1.000  C
  C215     1.0000 0.75903  0.98195  0.24382  Biso   1.000  C
  C216     1.0000 0.01805  0.77709  0.24382  Biso   1.000  C
  C217     1.0000 0.09280  0.41140  0.37771  Biso   1.000  C
  C218     1.0000 0.58860  0.68140  0.37771  Biso   1.000  C
  C219     1.0000 0.31860  0.90720  0.37771  Biso   1.000  C
  C220     1.0000 0.75947  0.74473  0.71104  Biso   1.000  C
  C221     1.0000 0.25527  0.01473  0.71104  Biso   1.000  C
  C222     1.0000 0.98527  0.24053  0.71104  Biso   1.000  C
  C223     1.0000 0.42613  0.07807  0.04438  Biso   1.000  C
  C224     1.0000 0.92193  0.34807  0.04438  Biso   1.000  C
  C225     1.0000 0.65193  0.57387  0.04438  Biso   1.000  C
  C226     1.0000 0.90720  0.58860  0.62229  Biso   1.000  C
  C227     1.0000 0.41140  0.31860  0.62229  Biso   1.000  C
  C228     1.0000 0.68140  0.09280  0.62229  Biso   1.000  C
  C229     1.0000 0.57387  0.92193  0.95562  Biso   1.000  C
  C230     1.0000 0.07807  0.65193  0.95562  Biso   1.000  C
  C231     1.0000 0.34807  0.42613  0.95562  Biso   1.000  C
  C232     1.0000 0.24053  0.25527  0.28896  Biso   1.000  C
  C233     1.0000 0.74473  0.98527  0.28896  Biso   1.000  C
  C234     1.0000 0.01473  0.75947  0.28896  Biso   1.000  C
  H109     1.0000 0.06920  0.41880  0.36540  Biso   1.000  H
  H110     1.0000 0.58120  0.65040  0.36540  Biso   1.000  H
  H111     1.0000 0.34960  0.93080  0.36540  Biso   1.000  H
  H112     1.0000 0.73587  0.75213  0.69873  Biso   1.000  H
  H113     1.0000 0.24787  0.98373  0.69873  Biso   1.000  H
  H114     1.0000 0.01627  0.26413  0.69873  Biso   1.000  H
  H115     1.0000 0.40253  0.08547  0.03207  Biso   1.000  H
  H116     1.0000 0.91453  0.31707  0.03207  Biso   1.000  H
  H117     1.0000 0.68293  0.59747  0.03207  Biso   1.000  H
  H118     1.0000 0.93080  0.58120  0.63460  Biso   1.000  H
  H119     1.0000 0.41880  0.34960  0.63460  Biso   1.000  H
  H120     1.0000 0.65040  0.06920  0.63460  Biso   1.000  H
  H121     1.0000 0.59747  0.91453  0.96793  Biso   1.000  H
  H122     1.0000 0.08547  0.68293  0.96793  Biso   1.000  H
  H123     1.0000 0.31707  0.40253  0.96793  Biso   1.000  H
  H124     1.0000 0.26413  0.24787  0.30127  Biso   1.000  H
  H125     1.0000 0.75213  0.01627  0.30127  Biso   1.000  H
  H126     1.0000 0.98373  0.73587  0.30127  Biso   1.000  H
  C235     1.0000 0.11150  0.38620  0.35240  Biso   1.000  C
  C236     1.0000 0.61380  0.72530  0.35240  Biso   1.000  C
  C237     1.0000 0.27470  0.88850  0.35240  Biso   1.000  C
  C238     1.0000 0.77817  0.71953  0.68573  Biso   1.000  C
  C239     1.0000 0.28047  0.05863  0.68573  Biso   1.000  C
  C240     1.0000 0.94137  0.22183  0.68573  Biso   1.000  C
  C241     1.0000 0.44483  0.05287  0.01907  Biso   1.000  C
  C242     1.0000 0.94713  0.39197  0.01907  Biso   1.000  C
  C243     1.0000 0.60803  0.55517  0.01907  Biso   1.000  C
  C244     1.0000 0.88850  0.61380  0.64760  Biso   1.000  C
  C245     1.0000 0.38620  0.27470  0.64760  Biso   1.000  C
  C246     1.0000 0.72530  0.11150  0.64760  Biso   1.000  C
  C247     1.0000 0.55517  0.94713  0.98093  Biso   1.000  C
  C248     1.0000 0.05287  0.60803  0.98093  Biso   1.000  C
  C249     1.0000 0.39197  0.44483  0.98093  Biso   1.000  C
  C250     1.0000 0.22183  0.28047  0.31427  Biso   1.000  C
  C251     1.0000 0.71953  0.94137  0.31427  Biso   1.000  C
  C252     1.0000 0.05863  0.77817  0.31427  Biso   1.000  C
  H127     1.0000 0.10150  0.37840  0.32230  Biso   1.000  H
  H128     1.0000 0.62160  0.72310  0.32230  Biso   1.000  H
  H129     1.0000 0.27690  0.89850  0.32230  Biso   1.000  H
  H130     1.0000 0.76817  0.71173  0.65563  Biso   1.000  H
  H131     1.0000 0.28827  0.05643  0.65563  Biso   1.000  H
  H132     1.0000 0.94357  0.23183  0.65563  Biso   1.000  H
  H133     1.0000 0.43483  0.04507  0.98897  Biso   1.000  H
  H134     1.0000 0.95493  0.38977  0.98897  Biso   1.000  H
  H135     1.0000 0.61023  0.56517  0.98897  Biso   1.000  H
  H136     1.0000 0.89850  0.62160  0.67770  Biso   1.000  H
  H137     1.0000 0.37840  0.27690  0.67770  Biso   1.000  H
  H138     1.0000 0.72310  0.10150  0.67770  Biso   1.000  H
  H139     1.0000 0.56517  0.95493  0.01103  Biso   1.000  H
  H140     1.0000 0.04507  0.61023  0.01103  Biso   1.000  H
  H141     1.0000 0.38977  0.43483  0.01103  Biso   1.000  H
  H142     1.0000 0.23183  0.28827  0.34437  Biso   1.000  H
  H143     1.0000 0.71173  0.94357  0.34437  Biso   1.000  H
  H144     1.0000 0.05643  0.76817  0.34437  Biso   1.000  H
  C253     1.0000 0.16040  0.38680  0.41230  Biso   1.000  C
  C254     1.0000 0.61320  0.77360  0.41230  Biso   1.000  C
  C255     1.0000 0.22640  0.83960  0.41230  Biso   1.000  C
  C256     1.0000 0.82707  0.72013  0.74563  Biso   1.000  C
  C257     1.0000 0.27987  0.10693  0.74563  Biso   1.000  C
  C258     1.0000 0.89307  0.17293  0.74563  Biso   1.000  C
  C259     1.0000 0.49373  0.05347  0.07897  Biso   1.000  C
  C260     1.0000 0.94653  0.44027  0.07897  Biso   1.000  C
  C261     1.0000 0.55973  0.50627  0.07897  Biso   1.000  C
  C262     1.0000 0.83960  0.61320  0.58770  Biso   1.000  C
  C263     1.0000 0.38680  0.22640  0.58770  Biso   1.000  C
  C264     1.0000 0.77360  0.16040  0.58770  Biso   1.000  C
  C265     1.0000 0.50627  0.94653  0.92103  Biso   1.000  C
  C266     1.0000 0.05347  0.55973  0.92103  Biso   1.000  C
  C267     1.0000 0.44027  0.49373  0.92103  Biso   1.000  C
  C268     1.0000 0.17293  0.27987  0.25437  Biso   1.000  C
  C269     1.0000 0.72013  0.89307  0.25437  Biso   1.000  C
  C270     1.0000 0.10693  0.82707  0.25437  Biso   1.000  C
  H145     1.0000 0.18370  0.37860  0.42370  Biso   1.000  H
  H146     1.0000 0.62140  0.80510  0.42370  Biso   1.000  H
  H147     1.0000 0.19490  0.81630  0.42370  Biso   1.000  H
  H148     1.0000 0.85037  0.71193  0.75703  Biso   1.000  H
  H149     1.0000 0.28807  0.13843  0.75703  Biso   1.000  H
  H150     1.0000 0.86157  0.14963  0.75703  Biso   1.000  H
  H151     1.0000 0.51703  0.04527  0.09037  Biso   1.000  H
  H152     1.0000 0.95473  0.47177  0.09037  Biso   1.000  H
  H153     1.0000 0.52823  0.48297  0.09037  Biso   1.000  H
  H154     1.0000 0.81630  0.62140  0.57630  Biso   1.000  H
  H155     1.0000 0.37860  0.19490  0.57630  Biso   1.000  H
  H156     1.0000 0.80510  0.18370  0.57630  Biso   1.000  H
  H157     1.0000 0.48297  0.95473  0.90963  Biso   1.000  H
  H158     1.0000 0.04527  0.52823  0.90963  Biso   1.000  H
  H159     1.0000 0.47177  0.51703  0.90963  Biso   1.000  H
  H160     1.0000 0.14963  0.28807  0.24297  Biso   1.000  H
  H161     1.0000 0.71193  0.86157  0.24297  Biso   1.000  H
  H162     1.0000 0.13843  0.85037  0.24297  Biso   1.000  H
  C271     1.0000 0.14560  0.41220  0.43930  Biso   1.000  C
  C272     1.0000 0.58780  0.73340  0.43930  Biso   1.000  C
  C273     1.0000 0.26660  0.85440  0.43930  Biso   1.000  C
  C274     1.0000 0.81227  0.74553  0.77263  Biso   1.000  C
  C275     1.0000 0.25447  0.06673  0.77263  Biso   1.000  C
  C276     1.0000 0.93327  0.18773  0.77263  Biso   1.000  C
  C277     1.0000 0.47893  0.07887  0.10597  Biso   1.000  C
  C278     1.0000 0.92113  0.40007  0.10597  Biso   1.000  C
  C279     1.0000 0.59993  0.52107  0.10597  Biso   1.000  C
  C280     1.0000 0.85440  0.58780  0.56070  Biso   1.000  C
  C281     1.0000 0.41220  0.26660  0.56070  Biso   1.000  C
  C282     1.0000 0.73340  0.14560  0.56070  Biso   1.000  C
  C283     1.0000 0.52107  0.92113  0.89403  Biso   1.000  C
  C284     1.0000 0.07887  0.59993  0.89403  Biso   1.000  C
  C285     1.0000 0.40007  0.47893  0.89403  Biso   1.000  C
  C286     1.0000 0.18773  0.25447  0.22737  Biso   1.000  C
  C287     1.0000 0.74553  0.93327  0.22737  Biso   1.000  C
  C288     1.0000 0.06673  0.81227  0.22737  Biso   1.000  C
  H163     1.0000 0.15830  0.42090  0.46860  Biso   1.000  H
  H164     1.0000 0.57910  0.73740  0.46860  Biso   1.000  H
  H165     1.0000 0.26260  0.84170  0.46860  Biso   1.000  H
  H166     1.0000 0.82497  0.75423  0.80193  Biso   1.000  H
  H167     1.0000 0.24577  0.07073  0.80193  Biso   1.000  H
  H168     1.0000 0.92927  0.17503  0.80193  Biso   1.000  H
  H169     1.0000 0.49163  0.08757  0.13527  Biso   1.000  H
  H170     1.0000 0.91243  0.40407  0.13527  Biso   1.000  H
  H171     1.0000 0.59593  0.50837  0.13527  Biso   1.000  H
  H172     1.0000 0.84170  0.57910  0.53140  Biso   1.000  H
  H173     1.0000 0.42090  0.26260  0.53140  Biso   1.000  H
  H174     1.0000 0.73740  0.15830  0.53140  Biso   1.000  H
  H175     1.0000 0.50837  0.91243  0.86473  Biso   1.000  H
  H176     1.0000 0.08757  0.59593  0.86473  Biso   1.000  H
  H177     1.0000 0.40407  0.49163  0.86473  Biso   1.000  H
  H178     1.0000 0.17503  0.24577  0.19807  Biso   1.000  H
  H179     1.0000 0.75423  0.92927  0.19807  Biso   1.000  H
  H180     1.0000 0.07073  0.82497  0.19807  Biso   1.000  H
  C289     1.0000 0.18960  0.41670  0.22810  Biso   1.000  C
  C290     1.0000 0.58330  0.77290  0.22810  Biso   1.000  C
  C291     1.0000 0.22710  0.81040  0.22810  Biso   1.000  C
  C292     1.0000 0.85627  0.75003  0.56143  Biso   1.000  C
  C293     1.0000 0.24997  0.10623  0.56143  Biso   1.000  C
  C294     1.0000 0.89377  0.14373  0.56143  Biso   1.000  C
  C295     1.0000 0.52293  0.08337  0.89477  Biso   1.000  C
  C296     1.0000 0.91663  0.43957  0.89477  Biso   1.000  C
  C297     1.0000 0.56043  0.47707  0.89477  Biso   1.000  C
  C298     1.0000 0.81040  0.58330  0.77190  Biso   1.000  C
  C299     1.0000 0.41670  0.22710  0.77190  Biso   1.000  C
  C300     1.0000 0.77290  0.18960  0.77190  Biso   1.000  C
  C301     1.0000 0.47707  0.91663  0.10523  Biso   1.000  C
  C302     1.0000 0.08337  0.56043  0.10523  Biso   1.000  C
  C303     1.0000 0.43957  0.52293  0.10523  Biso   1.000  C
  C304     1.0000 0.14373  0.24997  0.43857  Biso   1.000  C
  C305     1.0000 0.75003  0.89377  0.43857  Biso   1.000  C
  C306     1.0000 0.10623  0.85627  0.43857  Biso   1.000  C
  C307     1.0000 0.14090  0.38140  0.21120  Biso   1.000  C
  C308     1.0000 0.61860  0.75950  0.21120  Biso   1.000  C
  C309     1.0000 0.24050  0.85910  0.21120  Biso   1.000  C
  C310     1.0000 0.80757  0.71473  0.54453  Biso   1.000  C
  C311     1.0000 0.28527  0.09283  0.54453  Biso   1.000  C
  C312     1.0000 0.90717  0.19243  0.54453  Biso   1.000  C
  C313     1.0000 0.47423  0.04807  0.87787  Biso   1.000  C
  C314     1.0000 0.95193  0.42617  0.87787  Biso   1.000  C
  C315     1.0000 0.57383  0.52577  0.87787  Biso   1.000  C
  C316     1.0000 0.85910  0.61860  0.78880  Biso   1.000  C
  C317     1.0000 0.38140  0.24050  0.78880  Biso   1.000  C
  C318     1.0000 0.75950  0.14090  0.78880  Biso   1.000  C
  C319     1.0000 0.52577  0.95193  0.12213  Biso   1.000  C
  C320     1.0000 0.04807  0.57383  0.12213  Biso   1.000  C
  C321     1.0000 0.42617  0.47423  0.12213  Biso   1.000  C
  C322     1.0000 0.19243  0.28527  0.45547  Biso   1.000  C
  C323     1.0000 0.71473  0.90717  0.45547  Biso   1.000  C
  C324     1.0000 0.09283  0.80757  0.45547  Biso   1.000  C
  H181     1.0000 0.12050  0.35120  0.22630  Biso   1.000  H
  H182     1.0000 0.64880  0.76930  0.22630  Biso   1.000  H
  H183     1.0000 0.23070  0.87950  0.22630  Biso   1.000  H
  H184     1.0000 0.78717  0.68453  0.55963  Biso   1.000  H
  H185     1.0000 0.31547  0.10263  0.55963  Biso   1.000  H
  H186     1.0000 0.89737  0.21283  0.55963  Biso   1.000  H
  H187     1.0000 0.45383  0.01787  0.89297  Biso   1.000  H
  H188     1.0000 0.98213  0.43597  0.89297  Biso   1.000  H
  H189     1.0000 0.56403  0.54617  0.89297  Biso   1.000  H
  H190     1.0000 0.87950  0.64880  0.77370  Biso   1.000  H
  H191     1.0000 0.35120  0.23070  0.77370  Biso   1.000  H
  H192     1.0000 0.76930  0.12050  0.77370  Biso   1.000  H
  H193     1.0000 0.54617  0.98213  0.10703  Biso   1.000  H
  H194     1.0000 0.01787  0.56403  0.10703  Biso   1.000  H
  H195     1.0000 0.43597  0.45383  0.10703  Biso   1.000  H
  H196     1.0000 0.21283  0.31547  0.44037  Biso   1.000  H
  H197     1.0000 0.68453  0.89737  0.44037  Biso   1.000  H
  H198     1.0000 0.10263  0.78717  0.44037  Biso   1.000  H
  C325     1.0000 0.12480  0.39320  0.17120  Biso   1.000  C
  C326     1.0000 0.60680  0.73160  0.17120  Biso   1.000  C
  C327     1.0000 0.26840  0.87520  0.17120  Biso   1.000  C
  C328     1.0000 0.79147  0.72653  0.50453  Biso   1.000  C
  C329     1.0000 0.27347  0.06493  0.50453  Biso   1.000  C
  C330     1.0000 0.93507  0.20853  0.50453  Biso   1.000  C
  C331     1.0000 0.45813  0.05987  0.83787  Biso   1.000  C
  C332     1.0000 0.94013  0.39827  0.83787  Biso   1.000  C
  C333     1.0000 0.60173  0.54187  0.83787  Biso   1.000  C
  C334     1.0000 0.87520  0.60680  0.82880  Biso   1.000  C
  C335     1.0000 0.39320  0.26840  0.82880  Biso   1.000  C
  C336     1.0000 0.73160  0.12480  0.82880  Biso   1.000  C
  C337     1.0000 0.54187  0.94013  0.16213  Biso   1.000  C
  C338     1.0000 0.05987  0.60173  0.16213  Biso   1.000  C
  C339     1.0000 0.39827  0.45813  0.16213  Biso   1.000  C
  C340     1.0000 0.20853  0.27347  0.49547  Biso   1.000  C
  C341     1.0000 0.72653  0.93507  0.49547  Biso   1.000  C
  C342     1.0000 0.06493  0.79147  0.49547  Biso   1.000  C
  H199     1.0000 0.09330  0.37040  0.15930  Biso   1.000  H
  H200     1.0000 0.62960  0.72290  0.15930  Biso   1.000  H
  H201     1.0000 0.27710  0.90670  0.15930  Biso   1.000  H
  H202     1.0000 0.75997  0.70373  0.49263  Biso   1.000  H
  H203     1.0000 0.29627  0.05623  0.49263  Biso   1.000  H
  H204     1.0000 0.94377  0.24003  0.49263  Biso   1.000  H
  H205     1.0000 0.42663  0.03707  0.82597  Biso   1.000  H
  H206     1.0000 0.96293  0.38957  0.82597  Biso   1.000  H
  H207     1.0000 0.61043  0.57337  0.82597  Biso   1.000  H
  H208     1.0000 0.90670  0.62960  0.84070  Biso   1.000  H
  H209     1.0000 0.37040  0.27710  0.84070  Biso   1.000  H
  H210     1.0000 0.72290  0.09330  0.84070  Biso   1.000  H
  H211     1.0000 0.57337  0.96293  0.17403  Biso   1.000  H
  H212     1.0000 0.03707  0.61043  0.17403  Biso   1.000  H
  H213     1.0000 0.38957  0.42663  0.17403  Biso   1.000  H
  H214     1.0000 0.24003  0.29627  0.50737  Biso   1.000  H
  H215     1.0000 0.70373  0.94377  0.50737  Biso   1.000  H
  H216     1.0000 0.05623  0.75997  0.50737  Biso   1.000  H
  C343     1.0000 0.15530  0.43920  0.14870  Biso   1.000  C
  C344     1.0000 0.56080  0.71610  0.14870  Biso   1.000  C
  C345     1.0000 0.28390  0.84470  0.14870  Biso   1.000  C
  C346     1.0000 0.82197  0.77253  0.48203  Biso   1.000  C
  C347     1.0000 0.22747  0.04943  0.48203  Biso   1.000  C
  C348     1.0000 0.95057  0.17803  0.48203  Biso   1.000  C
  C349     1.0000 0.48863  0.10587  0.81537  Biso   1.000  C
  C350     1.0000 0.89413  0.38277  0.81537  Biso   1.000  C
  C351     1.0000 0.61723  0.51137  0.81537  Biso   1.000  C
  C352     1.0000 0.84470  0.56080  0.85130  Biso   1.000  C
  C353     1.0000 0.43920  0.28390  0.85130  Biso   1.000  C
  C354     1.0000 0.71610  0.15530  0.85130  Biso   1.000  C
  C355     1.0000 0.51137  0.89413  0.18463  Biso   1.000  C
  C356     1.0000 0.10587  0.61723  0.18463  Biso   1.000  C
  C357     1.0000 0.38277  0.48863  0.18463  Biso   1.000  C
  C358     1.0000 0.17803  0.22747  0.51797  Biso   1.000  C
  C359     1.0000 0.77253  0.95057  0.51797  Biso   1.000  C
  C360     1.0000 0.04943  0.82197  0.51797  Biso   1.000  C
  H217     1.0000 0.14360  0.44710  0.12260  Biso   1.000  H
  H218     1.0000 0.55290  0.69650  0.12260  Biso   1.000  H
  H219     1.0000 0.30350  0.85640  0.12260  Biso   1.000  H
  H220     1.0000 0.81027  0.78043  0.45593  Biso   1.000  H
  H221     1.0000 0.21957  0.02983  0.45593  Biso   1.000  H
  H222     1.0000 0.97017  0.18973  0.45593  Biso   1.000  H
  H223     1.0000 0.47693  0.11377  0.78927  Biso   1.000  H
  H224     1.0000 0.88623  0.36317  0.78927  Biso   1.000  H
  H225     1.0000 0.63683  0.52307  0.78927  Biso   1.000  H
  H226     1.0000 0.85640  0.55290  0.87740  Biso   1.000  H
  H227     1.0000 0.44710  0.30350  0.87740  Biso   1.000  H
  H228     1.0000 0.69650  0.14360  0.87740  Biso   1.000  H
  H229     1.0000 0.52307  0.88623  0.21073  Biso   1.000  H
  H230     1.0000 0.11377  0.63683  0.21073  Biso   1.000  H
  H231     1.0000 0.36317  0.47693  0.21073  Biso   1.000  H
  H232     1.0000 0.18973  0.21957  0.54407  Biso   1.000  H
  H233     1.0000 0.78043  0.97017  0.54407  Biso   1.000  H
  H234     1.0000 0.02983  0.81027  0.54407  Biso   1.000  H
  C361     1.0000 0.20220  0.47230  0.16500  Biso   1.000  C
  C362     1.0000 0.52770  0.72990  0.16500  Biso   1.000  C
  C363     1.0000 0.27010  0.79780  0.16500  Biso   1.000  C
  C364     1.0000 0.86887  0.80563  0.49833  Biso   1.000  C
  C365     1.0000 0.19437  0.06323  0.49833  Biso   1.000  C
  C366     1.0000 0.93677  0.13113  0.49833  Biso   1.000  C
  C367     1.0000 0.53553  0.13897  0.83167  Biso   1.000  C
  C368     1.0000 0.86103  0.39657  0.83167  Biso   1.000  C
  C369     1.0000 0.60343  0.46447  0.83167  Biso   1.000  C
  C370     1.0000 0.79780  0.52770  0.83500  Biso   1.000  C
  C371     1.0000 0.47230  0.27010  0.83500  Biso   1.000  C
  C372     1.0000 0.72990  0.20220  0.83500  Biso   1.000  C
  C373     1.0000 0.46447  0.86103  0.16833  Biso   1.000  C
  C374     1.0000 0.13897  0.60343  0.16833  Biso   1.000  C
  C375     1.0000 0.39657  0.53553  0.16833  Biso   1.000  C
  C376     1.0000 0.13113  0.19437  0.50167  Biso   1.000  C
  C377     1.0000 0.80563  0.93677  0.50167  Biso   1.000  C
  C378     1.0000 0.06323  0.86887  0.50167  Biso   1.000  C
  H235     1.0000 0.22250  0.50240  0.14990  Biso   1.000  H
  H236     1.0000 0.49760  0.72010  0.14990  Biso   1.000  H
  H237     1.0000 0.27990  0.77750  0.14990  Biso   1.000  H
  H238     1.0000 0.88917  0.83573  0.48323  Biso   1.000  H
  H239     1.0000 0.16427  0.05343  0.48323  Biso   1.000  H
  H240     1.0000 0.94657  0.11083  0.48323  Biso   1.000  H
  H241     1.0000 0.55583  0.16907  0.81657  Biso   1.000  H
  H242     1.0000 0.83093  0.38677  0.81657  Biso   1.000  H
  H243     1.0000 0.61323  0.44417  0.81657  Biso   1.000  H
  H244     1.0000 0.77750  0.49760  0.85010  Biso   1.000  H
  H245     1.0000 0.50240  0.27990  0.85010  Biso   1.000  H
  H246     1.0000 0.72010  0.22250  0.85010  Biso   1.000  H
  H247     1.0000 0.44417  0.83093  0.18343  Biso   1.000  H
  H248     1.0000 0.16907  0.61323  0.18343  Biso   1.000  H
  H249     1.0000 0.38677  0.55583  0.18343  Biso   1.000  H
  H250     1.0000 0.11083  0.16427  0.51677  Biso   1.000  H
  H251     1.0000 0.83573  0.94657  0.51677  Biso   1.000  H
  H252     1.0000 0.05343  0.88917  0.51677  Biso   1.000  H
  C379     1.0000 0.21990  0.46060  0.20510  Biso   1.000  C
  C380     1.0000 0.53940  0.75930  0.20510  Biso   1.000  C
  C381     1.0000 0.24070  0.78010  0.20510  Biso   1.000  C
  C382     1.0000 0.88657  0.79393  0.53843  Biso   1.000  C
  C383     1.0000 0.20607  0.09263  0.53843  Biso   1.000  C
  C384     1.0000 0.90737  0.11343  0.53843  Biso   1.000  C
  C385     1.0000 0.55323  0.12727  0.87177  Biso   1.000  C
  C386     1.0000 0.87273  0.42597  0.87177  Biso   1.000  C
  C387     1.0000 0.57403  0.44677  0.87177  Biso   1.000  C
  C388     1.0000 0.78010  0.53940  0.79490  Biso   1.000  C
  C389     1.0000 0.46060  0.24070  0.79490  Biso   1.000  C
  C390     1.0000 0.75930  0.21990  0.79490  Biso   1.000  C
  C391     1.0000 0.44677  0.87273  0.12823  Biso   1.000  C
  C392     1.0000 0.12727  0.57403  0.12823  Biso   1.000  C
  C393     1.0000 0.42597  0.55323  0.12823  Biso   1.000  C
  C394     1.0000 0.11343  0.20607  0.46157  Biso   1.000  C
  C395     1.0000 0.79393  0.90737  0.46157  Biso   1.000  C
  C396     1.0000 0.09263  0.88657  0.46157  Biso   1.000  C
  C397     1.0000 0.26880  0.49560  0.22010  Biso   1.000  C
  C398     1.0000 0.50440  0.77320  0.22010  Biso   1.000  C
  C399     1.0000 0.22680  0.73120  0.22010  Biso   1.000  C
  C400     1.0000 0.93547  0.82893  0.55343  Biso   1.000  C
  C401     1.0000 0.17107  0.10653  0.55343  Biso   1.000  C
  C402     1.0000 0.89347  0.06453  0.55343  Biso   1.000  C
  C403     1.0000 0.60213  0.16227  0.88677  Biso   1.000  C
  C404     1.0000 0.83773  0.43987  0.88677  Biso   1.000  C
  C405     1.0000 0.56013  0.39787  0.88677  Biso   1.000  C
  C406     1.0000 0.73120  0.50440  0.77990  Biso   1.000  C
  C407     1.0000 0.49560  0.22680  0.77990  Biso   1.000  C
  C408     1.0000 0.77320  0.26880  0.77990  Biso   1.000  C
  C409     1.0000 0.39787  0.83773  0.11323  Biso   1.000  C
  C410     1.0000 0.16227  0.56013  0.11323  Biso   1.000  C
  C411     1.0000 0.43987  0.60213  0.11323  Biso   1.000  C
  C412     1.0000 0.06453  0.17107  0.44657  Biso   1.000  C
  C413     1.0000 0.82893  0.89347  0.44657  Biso   1.000  C
  C414     1.0000 0.10653  0.93547  0.44657  Biso   1.000  C
  H253     1.0000 0.28930  0.52560  0.20480  Biso   1.000  H
  H254     1.0000 0.47440  0.76370  0.20480  Biso   1.000  H
  H255     1.0000 0.23630  0.71070  0.20480  Biso   1.000  H
  H256     1.0000 0.95597  0.85893  0.53813  Biso   1.000  H
  H257     1.0000 0.14107  0.09703  0.53813  Biso   1.000  H
  H258     1.0000 0.90297  0.04403  0.53813  Biso   1.000  H
  H259     1.0000 0.62263  0.19227  0.87147  Biso   1.000  H
  H260     1.0000 0.80773  0.43037  0.87147  Biso   1.000  H
  H261     1.0000 0.56963  0.37737  0.87147  Biso   1.000  H
  H262     1.0000 0.71070  0.47440  0.79520  Biso   1.000  H
  H263     1.0000 0.52560  0.23630  0.79520  Biso   1.000  H
  H264     1.0000 0.76370  0.28930  0.79520  Biso   1.000  H
  H265     1.0000 0.37737  0.80773  0.12853  Biso   1.000  H
  H266     1.0000 0.19227  0.56963  0.12853  Biso   1.000  H
  H267     1.0000 0.43037  0.62263  0.12853  Biso   1.000  H
  H268     1.0000 0.04403  0.14107  0.46187  Biso   1.000  H
  H269     1.0000 0.85893  0.90297  0.46187  Biso   1.000  H
  H270     1.0000 0.09703  0.95597  0.46187  Biso   1.000  H
  C415     1.0000 0.28470  0.48180  0.26060  Biso   1.000  C
  C416     1.0000 0.51820  0.80290  0.26060  Biso   1.000  C
  C417     1.0000 0.19710  0.71530  0.26060  Biso   1.000  C
  C418     1.0000 0.95137  0.81513  0.59393  Biso   1.000  C
  C419     1.0000 0.18487  0.13623  0.59393  Biso   1.000  C
  C420     1.0000 0.86377  0.04863  0.59393  Biso   1.000  C
  C421     1.0000 0.61803  0.14847  0.92727  Biso   1.000  C
  C422     1.0000 0.85153  0.46957  0.92727  Biso   1.000  C
  C423     1.0000 0.53043  0.38197  0.92727  Biso   1.000  C
  C424     1.0000 0.71530  0.51820  0.73940  Biso   1.000  C
  C425     1.0000 0.48180  0.19710  0.73940  Biso   1.000  C
  C426     1.0000 0.80290  0.28470  0.73940  Biso   1.000  C
  C427     1.0000 0.38197  0.85153  0.07273  Biso   1.000  C
  C428     1.0000 0.14847  0.53043  0.07273  Biso   1.000  C
  C429     1.0000 0.46957  0.61803  0.07273  Biso   1.000  C
  C430     1.0000 0.04863  0.18487  0.40607  Biso   1.000  C
  C431     1.0000 0.81513  0.86377  0.40607  Biso   1.000  C
  C432     1.0000 0.13623  0.95137  0.40607  Biso   1.000  C
  H271     1.0000 0.31660  0.50280  0.27270  Biso   1.000  H
  H272     1.0000 0.49720  0.81380  0.27270  Biso   1.000  H
  H273     1.0000 0.18620  0.68340  0.27270  Biso   1.000  H
  H274     1.0000 0.98327  0.83613  0.60603  Biso   1.000  H
  H275     1.0000 0.16387  0.14713  0.60603  Biso   1.000  H
  H276     1.0000 0.85287  0.01673  0.60603  Biso   1.000  H
  H277     1.0000 0.64993  0.16947  0.93937  Biso   1.000  H
  H278     1.0000 0.83053  0.48047  0.93937  Biso   1.000  H
  H279     1.0000 0.51953  0.35007  0.93937  Biso   1.000  H
  H280     1.0000 0.68340  0.49720  0.72730  Biso   1.000  H
  H281     1.0000 0.50280  0.18620  0.72730  Biso   1.000  H
  H282     1.0000 0.81380  0.31660  0.72730  Biso   1.000  H
  H283     1.0000 0.35007  0.83053  0.06063  Biso   1.000  H
  H284     1.0000 0.16947  0.51953  0.06063  Biso   1.000  H
  H285     1.0000 0.48047  0.64993  0.06063  Biso   1.000  H
  H286     1.0000 0.01673  0.16387  0.39397  Biso   1.000  H
  H287     1.0000 0.83613  0.85287  0.39397  Biso   1.000  H
  H288     1.0000 0.14713  0.98327  0.39397  Biso   1.000  H
  C433     1.0000 0.25180  0.43680  0.28121  Biso   1.000  C
  C434     1.0000 0.56320  0.81500  0.28121  Biso   1.000  C
  C435     1.0000 0.18500  0.74820  0.28121  Biso   1.000  C
  C436     1.0000 0.91847  0.77013  0.61454  Biso   1.000  C
  C437     1.0000 0.22987  0.14833  0.61454  Biso   1.000  C
  C438     1.0000 0.85167  0.08153  0.61454  Biso   1.000  C
  C439     1.0000 0.58513  0.10347  0.94788  Biso   1.000  C
  C440     1.0000 0.89653  0.48167  0.94788  Biso   1.000  C
  C441     1.0000 0.51833  0.41487  0.94788  Biso   1.000  C
  C442     1.0000 0.74820  0.56320  0.71879  Biso   1.000  C
  C443     1.0000 0.43680  0.18500  0.71879  Biso   1.000  C
  C444     1.0000 0.81500  0.25180  0.71879  Biso   1.000  C
  C445     1.0000 0.41487  0.89653  0.05212  Biso   1.000  C
  C446     1.0000 0.10347  0.51833  0.05212  Biso   1.000  C
  C447     1.0000 0.48167  0.58513  0.05212  Biso   1.000  C
  C448     1.0000 0.08153  0.22987  0.38546  Biso   1.000  C
  C449     1.0000 0.77013  0.85167  0.38546  Biso   1.000  C
  C450     1.0000 0.14833  0.91847  0.38546  Biso   1.000  C
  C451     1.0000 0.26570  0.42110  0.32290  Biso   1.000  C
  C452     1.0000 0.57890  0.84460  0.32290  Biso   1.000  C
  C453     1.0000 0.15540  0.73430  0.32290  Biso   1.000  C
  C454     1.0000 0.93237  0.75443  0.65623  Biso   1.000  C
  C455     1.0000 0.24557  0.17793  0.65623  Biso   1.000  C
  C456     1.0000 0.82207  0.06763  0.65623  Biso   1.000  C
  C457     1.0000 0.59903  0.08777  0.98957  Biso   1.000  C
  C458     1.0000 0.91223  0.51127  0.98957  Biso   1.000  C
  C459     1.0000 0.48873  0.40097  0.98957  Biso   1.000  C
  C460     1.0000 0.73430  0.57890  0.67710  Biso   1.000  C
  C461     1.0000 0.42110  0.15540  0.67710  Biso   1.000  C
  C462     1.0000 0.84460  0.26570  0.67710  Biso   1.000  C
  C463     1.0000 0.40097  0.91223  0.01043  Biso   1.000  C
  C464     1.0000 0.08777  0.48873  0.01043  Biso   1.000  C
  C465     1.0000 0.51127  0.59903  0.01043  Biso   1.000  C
  C466     1.0000 0.06763  0.24557  0.34377  Biso   1.000  C
  C467     1.0000 0.75443  0.82207  0.34377  Biso   1.000  C
  C468     1.0000 0.17793  0.93237  0.34377  Biso   1.000  C
  C469     1.0000 0.31000  0.42140  0.37790  Biso   1.000  C
  C470     1.0000 0.57860  0.88860  0.37790  Biso   1.000  C
  C471     1.0000 0.11140  0.69000  0.37790  Biso   1.000  C
  C472     1.0000 0.97667  0.75473  0.71123  Biso   1.000  C
  C473     1.0000 0.24527  0.22193  0.71123  Biso   1.000  C
  C474     1.0000 0.77807  0.02333  0.71123  Biso   1.000  C
  C475     1.0000 0.64333  0.08807  0.04457  Biso   1.000  C
  C476     1.0000 0.91193  0.55527  0.04457  Biso   1.000  C
  C477     1.0000 0.44473  0.35667  0.04457  Biso   1.000  C
  C478     1.0000 0.69000  0.57860  0.62210  Biso   1.000  C
  C479     1.0000 0.42140  0.11140  0.62210  Biso   1.000  C
  C480     1.0000 0.88860  0.31000  0.62210  Biso   1.000  C
  C481     1.0000 0.35667  0.91193  0.95543  Biso   1.000  C
  C482     1.0000 0.08807  0.44473  0.95543  Biso   1.000  C
  C483     1.0000 0.55527  0.64333  0.95543  Biso   1.000  C
  C484     1.0000 0.02333  0.24527  0.28877  Biso   1.000  C
  C485     1.0000 0.75473  0.77807  0.28877  Biso   1.000  C
  C486     1.0000 0.22193  0.97667  0.28877  Biso   1.000  C
  C487     1.0000 0.35600  0.43950  0.40640  Biso   1.000  C
  C488     1.0000 0.56050  0.91650  0.40640  Biso   1.000  C
  C489     1.0000 0.08350  0.64400  0.40640  Biso   1.000  C
  C490     1.0000 0.02267  0.77283  0.73973  Biso   1.000  C
  C491     1.0000 0.22717  0.24983  0.73973  Biso   1.000  C
  C492     1.0000 0.75017  0.97733  0.73973  Biso   1.000  C
  C493     1.0000 0.68933  0.10617  0.07307  Biso   1.000  C
  C494     1.0000 0.89383  0.58317  0.07307  Biso   1.000  C
  C495     1.0000 0.41683  0.31067  0.07307  Biso   1.000  C
  C496     1.0000 0.64400  0.56050  0.59360  Biso   1.000  C
  C497     1.0000 0.43950  0.08350  0.59360  Biso   1.000  C
  C498     1.0000 0.91650  0.35600  0.59360  Biso   1.000  C
  C499     1.0000 0.31067  0.89383  0.92693  Biso   1.000  C
  C500     1.0000 0.10617  0.41683  0.92693  Biso   1.000  C
  C501     1.0000 0.58317  0.68933  0.92693  Biso   1.000  C
  C502     1.0000 0.97733  0.22717  0.26027  Biso   1.000  C
  C503     1.0000 0.77283  0.75017  0.26027  Biso   1.000  C
  C504     1.0000 0.24983  0.02267  0.26027  Biso   1.000  C
  Cu1      1.0000 0.00000  0.50000  0.50000  Biso   1.000  Cu
  Cu2      1.0000 0.50000  0.50000  0.50000  Biso   1.000  Cu
  Cu3      1.0000 0.50000  0.00000  0.50000  Biso   1.000  Cu
  Cu4      1.0000 0.66667  0.83333  0.83333  Biso   1.000  Cu
  Cu5      1.0000 0.16667  0.83333  0.83333  Biso   1.000  Cu
  Cu6      1.0000 0.16667  0.33333  0.83333  Biso   1.000  Cu
  Cu7      1.0000 0.33333  0.16667  0.16667  Biso   1.000  Cu
  Cu8      1.0000 0.83333  0.16667  0.16667  Biso   1.000  Cu
  Cu9      1.0000 0.83333  0.66667  0.16667  Biso   1.000  Cu
  Cu10     1.0000 0.16670  0.33330  0.33330  Biso   1.000  Cu
  Cu11     1.0000 0.66670  0.83340  0.33330  Biso   1.000  Cu
  Cu12     1.0000 0.16660  0.83330  0.33330  Biso   1.000  Cu
  Cu13     1.0000 0.83337  0.66663  0.66663  Biso   1.000  Cu
  Cu14     1.0000 0.33337  0.16673  0.66663  Biso   1.000  Cu
  Cu15     1.0000 0.83327  0.16663  0.66663  Biso   1.000  Cu
  Cu16     1.0000 0.50003  0.99997  0.99997  Biso   1.000  Cu
  Cu17     1.0000 0.00003  0.50007  0.99997  Biso   1.000  Cu
  Cu18     1.0000 0.49993  0.49997  0.99997  Biso   1.000  Cu
  N1       1.0000 0.05075  0.45290  0.44689  Biso   1.000  N
  N2       1.0000 0.54710  0.59785  0.44689  Biso   1.000  N
  N3       1.0000 0.40215  0.94925  0.44689  Biso   1.000  N
  N4       1.0000 0.71742  0.78623  0.78022  Biso   1.000  N
  N5       1.0000 0.21377  0.93118  0.78022  Biso   1.000  N
  N6       1.0000 0.06882  0.28258  0.78022  Biso   1.000  N
  N7       1.0000 0.38408  0.11957  0.11356  Biso   1.000  N
  N8       1.0000 0.88043  0.26452  0.11356  Biso   1.000  N
  N9       1.0000 0.73548  0.61592  0.11356  Biso   1.000  N
  N10      1.0000 0.94925  0.54710  0.55311  Biso   1.000  N
  N11      1.0000 0.45290  0.40215  0.55311  Biso   1.000  N
  N12      1.0000 0.59785  0.05075  0.55311  Biso   1.000  N
  N13      1.0000 0.61592  0.88043  0.88644  Biso   1.000  N
  N14      1.0000 0.11957  0.73548  0.88644  Biso   1.000  N
  N15      1.0000 0.26452  0.38408  0.88644  Biso   1.000  N
  N16      1.0000 0.28258  0.21377  0.21978  Biso   1.000  N
  N17      1.0000 0.78623  0.06882  0.21978  Biso   1.000  N
  N18      1.0000 0.93118  0.71742  0.21978  Biso   1.000  N
  N19      1.0000 0.05282  0.48285  0.48298  Biso   1.000  N
  N20      1.0000 0.51715  0.56997  0.48298  Biso   1.000  N
  N21      1.0000 0.43003  0.94718  0.48298  Biso   1.000  N
  N22      1.0000 0.71949  0.81618  0.81631  Biso   1.000  N
  N23      1.0000 0.18382  0.90330  0.81631  Biso   1.000  N
  N24      1.0000 0.09670  0.28051  0.81631  Biso   1.000  N
  N25      1.0000 0.38615  0.14952  0.14965  Biso   1.000  N
  N26      1.0000 0.85048  0.23664  0.14965  Biso   1.000  N
  N27      1.0000 0.76336  0.61385  0.14965  Biso   1.000  N
  N28      1.0000 0.94718  0.51715  0.51702  Biso   1.000  N
  N29      1.0000 0.48285  0.43003  0.51702  Biso   1.000  N
  N30      1.0000 0.56997  0.05282  0.51702  Biso   1.000  N
  N31      1.0000 0.61385  0.85048  0.85035  Biso   1.000  N
  N32      1.0000 0.14952  0.76336  0.85035  Biso   1.000  N
  N33      1.0000 0.23664  0.38615  0.85035  Biso   1.000  N
  N34      1.0000 0.28051  0.18382  0.18369  Biso   1.000  N
  N35      1.0000 0.81618  0.09670  0.18369  Biso   1.000  N
  N36      1.0000 0.90330  0.71949  0.18369  Biso   1.000  N
  N37      1.0000 0.07977  0.54533  0.55861  Biso   1.000  N
  N38      1.0000 0.45467  0.53444  0.55861  Biso   1.000  N
  N39      1.0000 0.46556  0.92023  0.55861  Biso   1.000  N
  N40      1.0000 0.74644  0.87866  0.89194  Biso   1.000  N
  N41      1.0000 0.12134  0.86777  0.89194  Biso   1.000  N
  N42      1.0000 0.13223  0.25356  0.89194  Biso   1.000  N
  N43      1.0000 0.41310  0.21200  0.22528  Biso   1.000  N
  N44      1.0000 0.78800  0.20111  0.22528  Biso   1.000  N
  N45      1.0000 0.79889  0.58690  0.22528  Biso   1.000  N
  N46      1.0000 0.92023  0.45467  0.44139  Biso   1.000  N
  N47      1.0000 0.54533  0.46556  0.44139  Biso   1.000  N
  N48      1.0000 0.53444  0.07977  0.44139  Biso   1.000  N
  N49      1.0000 0.58690  0.78800  0.77472  Biso   1.000  N
  N50      1.0000 0.21200  0.79889  0.77472  Biso   1.000  N
  N51      1.0000 0.20111  0.41310  0.77472  Biso   1.000  N
  N52      1.0000 0.25356  0.12134  0.10806  Biso   1.000  N
  N53      1.0000 0.87866  0.13223  0.10806  Biso   1.000  N
  N54      1.0000 0.86777  0.74644  0.10806  Biso   1.000  N
  N55      1.0000 0.14367  0.37256  0.36974  Biso   1.000  N
  N56      1.0000 0.62744  0.77111  0.36974  Biso   1.000  N
  N57      1.0000 0.22889  0.85633  0.36974  Biso   1.000  N
  N58      1.0000 0.81034  0.70589  0.70307  Biso   1.000  N
  N59      1.0000 0.29411  0.10444  0.70307  Biso   1.000  N
  N60      1.0000 0.89556  0.18966  0.70307  Biso   1.000  N
  N61      1.0000 0.47700  0.03923  0.03641  Biso   1.000  N
  N62      1.0000 0.96077  0.43778  0.03641  Biso   1.000  N
  N63      1.0000 0.56222  0.52300  0.03641  Biso   1.000  N
  N64      1.0000 0.85633  0.62744  0.63026  Biso   1.000  N
  N65      1.0000 0.37256  0.22889  0.63026  Biso   1.000  N
  N66      1.0000 0.77111  0.14367  0.63026  Biso   1.000  N
  N67      1.0000 0.52300  0.96077  0.96359  Biso   1.000  N
  N68      1.0000 0.03923  0.56222  0.96359  Biso   1.000  N
  N69      1.0000 0.43778  0.47700  0.96359  Biso   1.000  N
  N70      1.0000 0.18966  0.29411  0.29693  Biso   1.000  N
  N71      1.0000 0.70589  0.89556  0.29693  Biso   1.000  N
  N72      1.0000 0.10444  0.81034  0.29693  Biso   1.000  N
  N73      1.0000 0.23760  0.38227  0.34862  Biso   1.000  N
  N74      1.0000 0.61773  0.85533  0.34862  Biso   1.000  N
  N75      1.0000 0.14467  0.76240  0.34862  Biso   1.000  N
  N76      1.0000 0.90427  0.71560  0.68195  Biso   1.000  N
  N77      1.0000 0.28440  0.18866  0.68195  Biso   1.000  N
  N78      1.0000 0.81134  0.09573  0.68195  Biso   1.000  N
  N79      1.0000 0.57093  0.04894  0.01529  Biso   1.000  N
  N80      1.0000 0.95106  0.52200  0.01529  Biso   1.000  N
  N81      1.0000 0.47800  0.42907  0.01529  Biso   1.000  N
  N82      1.0000 0.76240  0.61773  0.65138  Biso   1.000  N
  N83      1.0000 0.38227  0.14467  0.65138  Biso   1.000  N
  N84      1.0000 0.85533  0.23760  0.65138  Biso   1.000  N
  N85      1.0000 0.42907  0.95106  0.98471  Biso   1.000  N
  N86      1.0000 0.04894  0.47800  0.98471  Biso   1.000  N
  N87      1.0000 0.52200  0.57093  0.98471  Biso   1.000  N
  N88      1.0000 0.09573  0.28440  0.31805  Biso   1.000  N
  N89      1.0000 0.71560  0.81134  0.31805  Biso   1.000  N
  N90      1.0000 0.18866  0.90427  0.31805  Biso   1.000  N
  N91      1.0000 0.26674  0.38379  0.38513  Biso   1.000  N
  N92      1.0000 0.61621  0.88295  0.38513  Biso   1.000  N
  N93      1.0000 0.11705  0.73326  0.38513  Biso   1.000  N
  N94      1.0000 0.93341  0.71712  0.71846  Biso   1.000  N
  N95      1.0000 0.28288  0.21628  0.71846  Biso   1.000  N
  N96      1.0000 0.78372  0.06659  0.71846  Biso   1.000  N
  N97      1.0000 0.60007  0.05046  0.05180  Biso   1.000  N
  N98      1.0000 0.94954  0.54962  0.05180  Biso   1.000  N
  N99      1.0000 0.45038  0.39993  0.05180  Biso   1.000  N
  N100     1.0000 0.73326  0.61621  0.61487  Biso   1.000  N
  N101     1.0000 0.38379  0.11705  0.61487  Biso   1.000  N
  N102     1.0000 0.88295  0.26674  0.61487  Biso   1.000  N
  N103     1.0000 0.39993  0.94954  0.94820  Biso   1.000  N
  N104     1.0000 0.05046  0.45038  0.94820  Biso   1.000  N
  N105     1.0000 0.54962  0.60007  0.94820  Biso   1.000  N
  N106     1.0000 0.06659  0.28288  0.28154  Biso   1.000  N
  N107     1.0000 0.71712  0.78372  0.28154  Biso   1.000  N
  N108     1.0000 0.21628  0.93341  0.28154  Biso   1.000  N
  N109     1.0000 0.20558  0.40430  0.26780  Biso   1.000  N
  N110     1.0000 0.59570  0.80128  0.26780  Biso   1.000  N
  N111     1.0000 0.19872  0.79442  0.26780  Biso   1.000  N
  N112     1.0000 0.87225  0.73763  0.60113  Biso   1.000  N
  N113     1.0000 0.26237  0.13461  0.60113  Biso   1.000  N
  N114     1.0000 0.86539  0.12775  0.60113  Biso   1.000  N
  N115     1.0000 0.53891  0.07097  0.93447  Biso   1.000  N
  N116     1.0000 0.92903  0.46795  0.93447  Biso   1.000  N
  N117     1.0000 0.53205  0.46109  0.93447  Biso   1.000  N
  N118     1.0000 0.79442  0.59570  0.73220  Biso   1.000  N
  N119     1.0000 0.40430  0.19872  0.73220  Biso   1.000  N
  N120     1.0000 0.80128  0.20558  0.73220  Biso   1.000  N
  N121     1.0000 0.46109  0.92903  0.06553  Biso   1.000  N
  N122     1.0000 0.07097  0.53205  0.06553  Biso   1.000  N
  N123     1.0000 0.46795  0.53891  0.06553  Biso   1.000  N
  N124     1.0000 0.12775  0.26237  0.39887  Biso   1.000  N
  N125     1.0000 0.73763  0.86539  0.39887  Biso   1.000  N
  N126     1.0000 0.13461  0.87225  0.39887  Biso   1.000  N
  O1       1.0000 0.12076  0.47886  0.48639  Biso   1.000  O
  O2       1.0000 0.52114  0.64190  0.48639  Biso   1.000  O
  O3       1.0000 0.35810  0.87924  0.48639  Biso   1.000  O
  O4       1.0000 0.78743  0.81219  0.81972  Biso   1.000  O
  O5       1.0000 0.18781  0.97523  0.81972  Biso   1.000  O
  O6       1.0000 0.02477  0.21257  0.81972  Biso   1.000  O
  O7       1.0000 0.45409  0.14553  0.15306  Biso   1.000  O
  O8       1.0000 0.85447  0.30857  0.15306  Biso   1.000  O
  O9       1.0000 0.69143  0.54591  0.15306  Biso   1.000  O
  O10      1.0000 0.87924  0.52114  0.51361  Biso   1.000  O
  O11      1.0000 0.47886  0.35810  0.51361  Biso   1.000  O
  O12      1.0000 0.64190  0.12076  0.51361  Biso   1.000  O
  O13      1.0000 0.54591  0.85447  0.84694  Biso   1.000  O
  O14      1.0000 0.14553  0.69143  0.84694  Biso   1.000  O
  O15      1.0000 0.30857  0.45409  0.84694  Biso   1.000  O
  O16      1.0000 0.21257  0.18781  0.18028  Biso   1.000  O
  O17      1.0000 0.81219  0.02477  0.18028  Biso   1.000  O
  O18      1.0000 0.97523  0.78743  0.18028  Biso   1.000  O
  O19      1.0000 0.31296  0.44763  0.33884  Biso   1.000  O
  O20      1.0000 0.55237  0.86533  0.33884  Biso   1.000  O
  O21      1.0000 0.13467  0.68704  0.33884  Biso   1.000  O
  O22      1.0000 0.97963  0.78096  0.67217  Biso   1.000  O
  O23      1.0000 0.21904  0.19866  0.67217  Biso   1.000  O
  O24      1.0000 0.80134  0.02037  0.67217  Biso   1.000  O
  O25      1.0000 0.64629  0.11430  0.00551  Biso   1.000  O
  O26      1.0000 0.88570  0.53200  0.00551  Biso   1.000  O
  O27      1.0000 0.46800  0.35371  0.00551  Biso   1.000  O
  O28      1.0000 0.68704  0.55237  0.66116  Biso   1.000  O
  O29      1.0000 0.44763  0.13467  0.66116  Biso   1.000  O
  O30      1.0000 0.86533  0.31296  0.66116  Biso   1.000  O
  O31      1.0000 0.35371  0.88570  0.99449  Biso   1.000  O
  O32      1.0000 0.11430  0.46800  0.99449  Biso   1.000  O
  O33      1.0000 0.53200  0.64629  0.99449  Biso   1.000  O
  O34      1.0000 0.02037  0.21904  0.32783  Biso   1.000  O
  O35      1.0000 0.78096  0.80134  0.32783  Biso   1.000  O
  O36      1.0000 0.19866  0.97963  0.32783  Biso   1.000  O
  C505     1.0000 0.40270  0.46780  0.38791  Biso   1.000  C
  C506     1.0000 0.53220  0.93490  0.38791  Biso   1.000  C
  C507     1.0000 0.06510  0.59730  0.38791  Biso   1.000  C
  C508     1.0000 0.06937  0.80113  0.72124  Biso   1.000  C
  C509     1.0000 0.19887  0.26823  0.72124  Biso   1.000  C
  C510     1.0000 0.73177  0.93063  0.72124  Biso   1.000  C
  C511     1.0000 0.73603  0.13447  0.05458  Biso   1.000  C
  C512     1.0000 0.86553  0.60157  0.05458  Biso   1.000  C
  C513     1.0000 0.39843  0.26397  0.05458  Biso   1.000  C
  C514     1.0000 0.59730  0.53220  0.61209  Biso   1.000  C
  C515     1.0000 0.46780  0.06510  0.61209  Biso   1.000  C
  C516     1.0000 0.93490  0.40270  0.61209  Biso   1.000  C
  C517     1.0000 0.26397  0.86553  0.94542  Biso   1.000  C
  C518     1.0000 0.13447  0.39843  0.94542  Biso   1.000  C
  C519     1.0000 0.60157  0.73603  0.94542  Biso   1.000  C
  C520     1.0000 0.93063  0.19887  0.27876  Biso   1.000  C
  C521     1.0000 0.80113  0.73177  0.27876  Biso   1.000  C
  C522     1.0000 0.26823  0.06937  0.27876  Biso   1.000  C
  H289     1.0000 0.40640  0.47580  0.35720  Biso   1.000  H
  H290     1.0000 0.52420  0.93060  0.35720  Biso   1.000  H
  H291     1.0000 0.06940  0.59360  0.35720  Biso   1.000  H
  H292     1.0000 0.07307  0.80913  0.69053  Biso   1.000  H
  H293     1.0000 0.19087  0.26393  0.69053  Biso   1.000  H
  H294     1.0000 0.73607  0.92693  0.69053  Biso   1.000  H
  H295     1.0000 0.73973  0.14247  0.02387  Biso   1.000  H
  H296     1.0000 0.85753  0.59727  0.02387  Biso   1.000  H
  H297     1.0000 0.40273  0.26027  0.02387  Biso   1.000  H
  H298     1.0000 0.59360  0.52420  0.64280  Biso   1.000  H
  H299     1.0000 0.47580  0.06940  0.64280  Biso   1.000  H
  H300     1.0000 0.93060  0.40640  0.64280  Biso   1.000  H
  H301     1.0000 0.26027  0.85753  0.97613  Biso   1.000  H
  H302     1.0000 0.14247  0.40273  0.97613  Biso   1.000  H
  H303     1.0000 0.59727  0.73973  0.97613  Biso   1.000  H
  H304     1.0000 0.92693  0.19087  0.30947  Biso   1.000  H
  H305     1.0000 0.80913  0.73607  0.30947  Biso   1.000  H
  H306     1.0000 0.26393  0.07307  0.30947  Biso   1.000  H
  C523     1.0000 0.35070  0.42570  0.45120  Biso   1.000  C
  C524     1.0000 0.57430  0.92500  0.45120  Biso   1.000  C
  C525     1.0000 0.07500  0.64930  0.45120  Biso   1.000  C
  C526     1.0000 0.01737  0.75903  0.78453  Biso   1.000  C
  C527     1.0000 0.24097  0.25833  0.78453  Biso   1.000  C
  C528     1.0000 0.74167  0.98263  0.78453  Biso   1.000  C
  C529     1.0000 0.68403  0.09237  0.11787  Biso   1.000  C
  C530     1.0000 0.90763  0.59167  0.11787  Biso   1.000  C
  C531     1.0000 0.40833  0.31597  0.11787  Biso   1.000  C
  C532     1.0000 0.64930  0.57430  0.54880  Biso   1.000  C
  C533     1.0000 0.42570  0.07500  0.54880  Biso   1.000  C
  C534     1.0000 0.92500  0.35070  0.54880  Biso   1.000  C
  C535     1.0000 0.31597  0.90763  0.88213  Biso   1.000  C
  C536     1.0000 0.09237  0.40833  0.88213  Biso   1.000  C
  C537     1.0000 0.59167  0.68403  0.88213  Biso   1.000  C
  C538     1.0000 0.98263  0.24097  0.21547  Biso   1.000  C
  C539     1.0000 0.75903  0.74167  0.21547  Biso   1.000  C
  C540     1.0000 0.25833  0.01737  0.21547  Biso   1.000  C
  H307     1.0000 0.31890  0.40590  0.46390  Biso   1.000  H
  H308     1.0000 0.59410  0.91300  0.46390  Biso   1.000  H
  H309     1.0000 0.08700  0.68110  0.46390  Biso   1.000  H
  H310     1.0000 0.98557  0.73923  0.79723  Biso   1.000  H
  H311     1.0000 0.26077  0.24633  0.79723  Biso   1.000  H
  H312     1.0000 0.75367  0.01443  0.79723  Biso   1.000  H
  H313     1.0000 0.65223  0.07257  0.13057  Biso   1.000  H
  H314     1.0000 0.92743  0.57967  0.13057  Biso   1.000  H
  H315     1.0000 0.42033  0.34777  0.13057  Biso   1.000  H
  H316     1.0000 0.68110  0.59410  0.53610  Biso   1.000  H
  H317     1.0000 0.40590  0.08700  0.53610  Biso   1.000  H
  H318     1.0000 0.91300  0.31890  0.53610  Biso   1.000  H
  H319     1.0000 0.34777  0.92743  0.86943  Biso   1.000  H
  H320     1.0000 0.07257  0.42033  0.86943  Biso   1.000  H
  H321     1.0000 0.57967  0.65223  0.86943  Biso   1.000  H
  H322     1.0000 0.01443  0.26077  0.20277  Biso   1.000  H
  H323     1.0000 0.73923  0.75367  0.20277  Biso   1.000  H
  H324     1.0000 0.24633  0.98557  0.20277  Biso   1.000  H
  C541     1.0000 0.44492  0.48470  0.41591  Biso   1.000  C
  C542     1.0000 0.51530  0.96022  0.41591  Biso   1.000  C
  C543     1.0000 0.03978  0.55508  0.41591  Biso   1.000  C
  C544     1.0000 0.11159  0.81803  0.74924  Biso   1.000  C
  C545     1.0000 0.18197  0.29355  0.74924  Biso   1.000  C
  C546     1.0000 0.70645  0.88841  0.74924  Biso   1.000  C
  C547     1.0000 0.77825  0.15137  0.08258  Biso   1.000  C
  C548     1.0000 0.84863  0.62689  0.08258  Biso   1.000  C
  C549     1.0000 0.37311  0.22175  0.08258  Biso   1.000  C
  C550     1.0000 0.55508  0.51530  0.58409  Biso   1.000  C
  C551     1.0000 0.48470  0.03978  0.58409  Biso   1.000  C
  C552     1.0000 0.96022  0.44492  0.58409  Biso   1.000  C
  C553     1.0000 0.22175  0.84863  0.91742  Biso   1.000  C
  C554     1.0000 0.15137  0.37311  0.91742  Biso   1.000  C
  C555     1.0000 0.62689  0.77825  0.91742  Biso   1.000  C
  C556     1.0000 0.88841  0.18197  0.25076  Biso   1.000  C
  C557     1.0000 0.81803  0.70645  0.25076  Biso   1.000  C
  C558     1.0000 0.29355  0.11159  0.25076  Biso   1.000  C
  H325     1.0000 0.47700  0.50480  0.40390  Biso   1.000  H
  H326     1.0000 0.49520  0.97220  0.40390  Biso   1.000  H
  H327     1.0000 0.02780  0.52300  0.40390  Biso   1.000  H
  H328     1.0000 0.14367  0.83813  0.73723  Biso   1.000  H
  H329     1.0000 0.16187  0.30553  0.73723  Biso   1.000  H
  H330     1.0000 0.69447  0.85633  0.73723  Biso   1.000  H
  H331     1.0000 0.81033  0.17147  0.07057  Biso   1.000  H
  H332     1.0000 0.82853  0.63887  0.07057  Biso   1.000  H
  H333     1.0000 0.36113  0.18967  0.07057  Biso   1.000  H
  H334     1.0000 0.52300  0.49520  0.59610  Biso   1.000  H
  H335     1.0000 0.50480  0.02780  0.59610  Biso   1.000  H
  H336     1.0000 0.97220  0.47700  0.59610  Biso   1.000  H
  H337     1.0000 0.18967  0.82853  0.92943  Biso   1.000  H
  H338     1.0000 0.17147  0.36113  0.92943  Biso   1.000  H
  H339     1.0000 0.63887  0.81033  0.92943  Biso   1.000  H
  H340     1.0000 0.85633  0.16187  0.26277  Biso   1.000  H
  H341     1.0000 0.83813  0.69447  0.26277  Biso   1.000  H
  H342     1.0000 0.30553  0.14367  0.26277  Biso   1.000  H
  C559     1.0000 0.39390  0.44190  0.47707  Biso   1.000  C
  C560     1.0000 0.55810  0.95200  0.47707  Biso   1.000  C
  C561     1.0000 0.04800  0.60610  0.47707  Biso   1.000  C
  C562     1.0000 0.06057  0.77523  0.81040  Biso   1.000  C
  C563     1.0000 0.22477  0.28533  0.81040  Biso   1.000  C
  C564     1.0000 0.71467  0.93943  0.81040  Biso   1.000  C
  C565     1.0000 0.72723  0.10857  0.14374  Biso   1.000  C
  C566     1.0000 0.89143  0.61867  0.14374  Biso   1.000  C
  C567     1.0000 0.38133  0.27277  0.14374  Biso   1.000  C
  C568     1.0000 0.60610  0.55810  0.52293  Biso   1.000  C
  C569     1.0000 0.44190  0.04800  0.52293  Biso   1.000  C
  C570     1.0000 0.95200  0.39390  0.52293  Biso   1.000  C
  C571     1.0000 0.27277  0.89143  0.85626  Biso   1.000  C
  C572     1.0000 0.10857  0.38133  0.85626  Biso   1.000  C
  C573     1.0000 0.61867  0.72723  0.85626  Biso   1.000  C
  C574     1.0000 0.93943  0.22477  0.18960  Biso   1.000  C
  C575     1.0000 0.77523  0.71467  0.18960  Biso   1.000  C
  C576     1.0000 0.28533  0.06057  0.18960  Biso   1.000  C
  H343     1.0000 0.39100  0.43150  0.50710  Biso   1.000  H
  H344     1.0000 0.56850  0.95950  0.50710  Biso   1.000  H
  H345     1.0000 0.04050  0.60900  0.50710  Biso   1.000  H
  H346     1.0000 0.05767  0.76483  0.84043  Biso   1.000  H
  H347     1.0000 0.23517  0.29283  0.84043  Biso   1.000  H
  H348     1.0000 0.70717  0.94233  0.84043  Biso   1.000  H
  H349     1.0000 0.72433  0.09817  0.17377  Biso   1.000  H
  H350     1.0000 0.90183  0.62617  0.17377  Biso   1.000  H
  H351     1.0000 0.37383  0.27567  0.17377  Biso   1.000  H
  H352     1.0000 0.60900  0.56850  0.49290  Biso   1.000  H
  H353     1.0000 0.43150  0.04050  0.49290  Biso   1.000  H
  H354     1.0000 0.95950  0.39100  0.49290  Biso   1.000  H
  H355     1.0000 0.27567  0.90183  0.82623  Biso   1.000  H
  H356     1.0000 0.09817  0.37383  0.82623  Biso   1.000  H
  H357     1.0000 0.62617  0.72433  0.82623  Biso   1.000  H
  H358     1.0000 0.94233  0.23517  0.15957  Biso   1.000  H
  H359     1.0000 0.76483  0.70717  0.15957  Biso   1.000  H
  H360     1.0000 0.29283  0.05767  0.15957  Biso   1.000  H
  N127     1.0000 0.43941  0.47193  0.45991  Biso   1.000  N
  N128     1.0000 0.52807  0.96748  0.45991  Biso   1.000  N
  N129     1.0000 0.03252  0.56059  0.45991  Biso   1.000  N
  N130     1.0000 0.10608  0.80526  0.79324  Biso   1.000  N
  N131     1.0000 0.19474  0.30081  0.79324  Biso   1.000  N
  N132     1.0000 0.69919  0.89392  0.79324  Biso   1.000  N
  N133     1.0000 0.77274  0.13860  0.12658  Biso   1.000  N
  N134     1.0000 0.86140  0.63415  0.12658  Biso   1.000  N
  N135     1.0000 0.36585  0.22726  0.12658  Biso   1.000  N
  N136     1.0000 0.56059  0.52807  0.54009  Biso   1.000  N
  N137     1.0000 0.47193  0.03252  0.54009  Biso   1.000  N
  N138     1.0000 0.96748  0.43941  0.54009  Biso   1.000  N
  N139     1.0000 0.22726  0.86140  0.87342  Biso   1.000  N
  N140     1.0000 0.13860  0.36585  0.87342  Biso   1.000  N
  N141     1.0000 0.63415  0.77274  0.87342  Biso   1.000  N
  N142     1.0000 0.89392  0.19474  0.20676  Biso   1.000  N
  N143     1.0000 0.80526  0.69919  0.20676  Biso   1.000  N
  N144     1.0000 0.30081  0.10608  0.20676  Biso   1.000  N
  Cl1      1.0000 0.04940  0.36389  0.05896  Biso   1.000  Cl
  Cl2      1.0000 0.63611  0.68551  0.05896  Biso   1.000  Cl
  Cl3      1.0000 0.31449  0.95060  0.05896  Biso   1.000  Cl
  Cl4      1.0000 0.71607  0.69722  0.39229  Biso   1.000  Cl
  Cl5      1.0000 0.30278  0.01884  0.39229  Biso   1.000  Cl
  Cl6      1.0000 0.98116  0.28393  0.39229  Biso   1.000  Cl
  Cl7      1.0000 0.38273  0.03056  0.72563  Biso   1.000  Cl
  Cl8      1.0000 0.96944  0.35218  0.72563  Biso   1.000  Cl
  Cl9      1.0000 0.64782  0.61727  0.72563  Biso   1.000  Cl
  Cl10     1.0000 0.95060  0.63611  0.94104  Biso   1.000  Cl
  Cl11     1.0000 0.36389  0.31449  0.94104  Biso   1.000  Cl
  Cl12     1.0000 0.68551  0.04940  0.94104  Biso   1.000  Cl
  Cl13     1.0000 0.61727  0.96944  0.27437  Biso   1.000  Cl
  Cl14     1.0000 0.03056  0.64782  0.27437  Biso   1.000  Cl
  Cl15     1.0000 0.35218  0.38273  0.27437  Biso   1.000  Cl
  Cl16     1.0000 0.28393  0.30278  0.60771  Biso   1.000  Cl
  Cl17     1.0000 0.69722  0.98116  0.60771  Biso   1.000  Cl
  Cl18     1.0000 0.01884  0.71607  0.60771  Biso   1.000  Cl
  O37      1.0000 0.02210  0.32107  0.08801  Biso   1.000  O
  O38      1.0000 0.67893  0.70103  0.08801  Biso   1.000  O
  O39      1.0000 0.29897  0.97790  0.08801  Biso   1.000  O
  O40      1.0000 0.68877  0.65440  0.42134  Biso   1.000  O
  O41      1.0000 0.34560  0.03436  0.42134  Biso   1.000  O
  O42      1.0000 0.96564  0.31123  0.42134  Biso   1.000  O
  O43      1.0000 0.35543  0.98774  0.75468  Biso   1.000  O
  O44      1.0000 0.01226  0.36770  0.75468  Biso   1.000  O
  O45      1.0000 0.63230  0.64457  0.75468  Biso   1.000  O
  O46      1.0000 0.97790  0.67893  0.91199  Biso   1.000  O
  O47      1.0000 0.32107  0.29897  0.91199  Biso   1.000  O
  O48      1.0000 0.70103  0.02210  0.91199  Biso   1.000  O
  O49      1.0000 0.64457  0.01226  0.24532  Biso   1.000  O
  O50      1.0000 0.98774  0.63230  0.24532  Biso   1.000  O
  O51      1.0000 0.36770  0.35543  0.24532  Biso   1.000  O
  O52      1.0000 0.31123  0.34560  0.57866  Biso   1.000  O
  O53      1.0000 0.65440  0.96564  0.57866  Biso   1.000  O
  O54      1.0000 0.03436  0.68877  0.57866  Biso   1.000  O
  O55      1.0000 0.04706  0.40579  0.07701  Biso   1.000  O
  O56      1.0000 0.59421  0.64127  0.07701  Biso   1.000  O
  O57      1.0000 0.35873  0.95294  0.07701  Biso   1.000  O
  O58      1.0000 0.71373  0.73912  0.41034  Biso   1.000  O
  O59      1.0000 0.26088  0.97460  0.41034  Biso   1.000  O
  O60      1.0000 0.02540  0.28627  0.41034  Biso   1.000  O
  O61      1.0000 0.38039  0.07246  0.74368  Biso   1.000  O
  O62      1.0000 0.92754  0.30794  0.74368  Biso   1.000  O
  O63      1.0000 0.69206  0.61961  0.74368  Biso   1.000  O
  O64      1.0000 0.95294  0.59421  0.92299  Biso   1.000  O
  O65      1.0000 0.40579  0.35873  0.92299  Biso   1.000  O
  O66      1.0000 0.64127  0.04706  0.92299  Biso   1.000  O
  O67      1.0000 0.61961  0.92754  0.25632  Biso   1.000  O
  O68      1.0000 0.07246  0.69206  0.25632  Biso   1.000  O
  O69      1.0000 0.30794  0.38039  0.25632  Biso   1.000  O
  O70      1.0000 0.28627  0.26088  0.58966  Biso   1.000  O
  O71      1.0000 0.73912  0.02540  0.58966  Biso   1.000  O
  O72      1.0000 0.97460  0.71373  0.58966  Biso   1.000  O
  O73      1.0000 0.02756  0.35217  0.01357  Biso   1.000  O
  O74      1.0000 0.64783  0.67539  0.01357  Biso   1.000  O
  O75      1.0000 0.32461  0.97244  0.01357  Biso   1.000  O
  O76      1.0000 0.69423  0.68550  0.34690  Biso   1.000  O
  O77      1.0000 0.31450  0.00872  0.34690  Biso   1.000  O
  O78      1.0000 0.99128  0.30577  0.34690  Biso   1.000  O
  O79      1.0000 0.36089  0.01884  0.68024  Biso   1.000  O
  O80      1.0000 0.98116  0.34206  0.68024  Biso   1.000  O
  O81      1.0000 0.65794  0.63911  0.68024  Biso   1.000  O
  O82      1.0000 0.97244  0.64783  0.98643  Biso   1.000  O
  O83      1.0000 0.35217  0.32461  0.98643  Biso   1.000  O
  O84      1.0000 0.67539  0.02756  0.98643  Biso   1.000  O
  O85      1.0000 0.63911  0.98116  0.31976  Biso   1.000  O
  O86      1.0000 0.01884  0.65794  0.31976  Biso   1.000  O
  O87      1.0000 0.34206  0.36089  0.31976  Biso   1.000  O
  O88      1.0000 0.30577  0.31450  0.65310  Biso   1.000  O
  O89      1.0000 0.68550  0.99128  0.65310  Biso   1.000  O
  O90      1.0000 0.00872  0.69423  0.65310  Biso   1.000  O
  O91      1.0000 0.10240  0.37690  0.05535  Biso   1.000  O
  O92      1.0000 0.62310  0.72550  0.05535  Biso   1.000  O
  O93      1.0000 0.27450  0.89760  0.05535  Biso   1.000  O
  O94      1.0000 0.76907  0.71023  0.38868  Biso   1.000  O
  O95      1.0000 0.28977  0.05883  0.38868  Biso   1.000  O
  O96      1.0000 0.94117  0.23093  0.38868  Biso   1.000  O
  O97      1.0000 0.43573  0.04357  0.72202  Biso   1.000  O
  O98      1.0000 0.95643  0.39217  0.72202  Biso   1.000  O
  O99      1.0000 0.60783  0.56427  0.72202  Biso   1.000  O
  O100     1.0000 0.89760  0.62310  0.94465  Biso   1.000  O
  O101     1.0000 0.37690  0.27450  0.94465  Biso   1.000  O
  O102     1.0000 0.72550  0.10240  0.94465  Biso   1.000  O
  O103     1.0000 0.56427  0.95643  0.27798  Biso   1.000  O
  O104     1.0000 0.04357  0.60783  0.27798  Biso   1.000  O
  O105     1.0000 0.39217  0.43573  0.27798  Biso   1.000  O
  O106     1.0000 0.23093  0.28977  0.61132  Biso   1.000  O
  O107     1.0000 0.71023  0.94117  0.61132  Biso   1.000  O
  O108     1.0000 0.05883  0.76907  0.61132  Biso   1.000  O
  Cl19     1.0000 0.06445  0.91070  0.76840  Biso   1.000  Cl
  Cl20     1.0000 0.08930  0.15375  0.76840  Biso   1.000  Cl
  Cl21     1.0000 0.84625  0.93555  0.76840  Biso   1.000  Cl
  Cl22     1.0000 0.73112  0.24403  0.10173  Biso   1.000  Cl
  Cl23     1.0000 0.75597  0.48708  0.10173  Biso   1.000  Cl
  Cl24     1.0000 0.51292  0.26888  0.10173  Biso   1.000  Cl
  Cl25     1.0000 0.39778  0.57737  0.43507  Biso   1.000  Cl
  Cl26     1.0000 0.42263  0.82042  0.43507  Biso   1.000  Cl
  Cl27     1.0000 0.17958  0.60222  0.43507  Biso   1.000  Cl
  Cl28     1.0000 0.93555  0.08930  0.23160  Biso   1.000  Cl
  Cl29     1.0000 0.91070  0.84625  0.23160  Biso   1.000  Cl
  Cl30     1.0000 0.15375  0.06445  0.23160  Biso   1.000  Cl
  Cl31     1.0000 0.60222  0.42263  0.56493  Biso   1.000  Cl
  Cl32     1.0000 0.57737  0.17958  0.56493  Biso   1.000  Cl
  Cl33     1.0000 0.82042  0.39778  0.56493  Biso   1.000  Cl
  Cl34     1.0000 0.26888  0.75597  0.89827  Biso   1.000  Cl
  Cl35     1.0000 0.24403  0.51292  0.89827  Biso   1.000  Cl
  Cl36     1.0000 0.48708  0.73112  0.89827  Biso   1.000  Cl
  O109     1.0000 0.06510  0.88370  0.80300  Biso   1.000  O
  O110     1.0000 0.11630  0.18140  0.80300  Biso   1.000  O
  O111     1.0000 0.81860  0.93490  0.80300  Biso   1.000  O
  O112     1.0000 0.73177  0.21703  0.13633  Biso   1.000  O
  O113     1.0000 0.78297  0.51473  0.13633  Biso   1.000  O
  O114     1.0000 0.48527  0.26823  0.13633  Biso   1.000  O
  O115     1.0000 0.39843  0.55037  0.46967  Biso   1.000  O
  O116     1.0000 0.44963  0.84807  0.46967  Biso   1.000  O
  O117     1.0000 0.15193  0.60157  0.46967  Biso   1.000  O
  O118     1.0000 0.93490  0.11630  0.19700  Biso   1.000  O
  O119     1.0000 0.88370  0.81860  0.19700  Biso   1.000  O
  O120     1.0000 0.18140  0.06510  0.19700  Biso   1.000  O
  O121     1.0000 0.60157  0.44963  0.53033  Biso   1.000  O
  O122     1.0000 0.55037  0.15193  0.53033  Biso   1.000  O
  O123     1.0000 0.84807  0.39843  0.53033  Biso   1.000  O
  O124     1.0000 0.26823  0.78297  0.86367  Biso   1.000  O
  O125     1.0000 0.21703  0.48527  0.86367  Biso   1.000  O
  O126     1.0000 0.51473  0.73177  0.86367  Biso   1.000  O
  O127     1.0000 0.05680  0.95120  0.78050  Biso   1.000  O
  O128     1.0000 0.04880  0.10560  0.78050  Biso   1.000  O
  O129     1.0000 0.89440  0.94320  0.78050  Biso   1.000  O
  O130     1.0000 0.72347  0.28453  0.11383  Biso   1.000  O
  O131     1.0000 0.71547  0.43893  0.11383  Biso   1.000  O
  O132     1.0000 0.56107  0.27653  0.11383  Biso   1.000  O
  O133     1.0000 0.39013  0.61787  0.44717  Biso   1.000  O
  O134     1.0000 0.38213  0.77227  0.44717  Biso   1.000  O
  O135     1.0000 0.22773  0.60987  0.44717  Biso   1.000  O
  O136     1.0000 0.94320  0.04880  0.21950  Biso   1.000  O
  O137     1.0000 0.95120  0.89440  0.21950  Biso   1.000  O
  O138     1.0000 0.10560  0.05680  0.21950  Biso   1.000  O
  O139     1.0000 0.60987  0.38213  0.55283  Biso   1.000  O
  O140     1.0000 0.61787  0.22773  0.55283  Biso   1.000  O
  O141     1.0000 0.77227  0.39013  0.55283  Biso   1.000  O
  O142     1.0000 0.27653  0.71547  0.88617  Biso   1.000  O
  O143     1.0000 0.28453  0.56107  0.88617  Biso   1.000  O
  O144     1.0000 0.43893  0.72347  0.88617  Biso   1.000  O
  O145     1.0000 0.02470  0.87830  0.73370  Biso   1.000  O
  O146     1.0000 0.12170  0.14640  0.73370  Biso   1.000  O
  O147     1.0000 0.85360  0.97530  0.73370  Biso   1.000  O
  O148     1.0000 0.69137  0.21163  0.06703  Biso   1.000  O
  O149     1.0000 0.78837  0.47973  0.06703  Biso   1.000  O
  O150     1.0000 0.52027  0.30863  0.06703  Biso   1.000  O
  O151     1.0000 0.35803  0.54497  0.40037  Biso   1.000  O
  O152     1.0000 0.45503  0.81307  0.40037  Biso   1.000  O
  O153     1.0000 0.18693  0.64197  0.40037  Biso   1.000  O
  O154     1.0000 0.97530  0.12170  0.26630  Biso   1.000  O
  O155     1.0000 0.87830  0.85360  0.26630  Biso   1.000  O
  O156     1.0000 0.14640  0.02470  0.26630  Biso   1.000  O
  O157     1.0000 0.64197  0.45503  0.59963  Biso   1.000  O
  O158     1.0000 0.54497  0.18693  0.59963  Biso   1.000  O
  O159     1.0000 0.81307  0.35803  0.59963  Biso   1.000  O
  O160     1.0000 0.30863  0.78837  0.93297  Biso   1.000  O
  O161     1.0000 0.21163  0.52027  0.93297  Biso   1.000  O
  O162     1.0000 0.47973  0.69137  0.93297  Biso   1.000  O
  O163     1.0000 0.11170  0.93110  0.74780  Biso   1.000  O
  O164     1.0000 0.06890  0.18060  0.74780  Biso   1.000  O
  O165     1.0000 0.81940  0.88830  0.74780  Biso   1.000  O
  O166     1.0000 0.77837  0.26443  0.08113  Biso   1.000  O
  O167     1.0000 0.73557  0.51393  0.08113  Biso   1.000  O
  O168     1.0000 0.48607  0.22163  0.08113  Biso   1.000  O
  O169     1.0000 0.44503  0.59777  0.41447  Biso   1.000  O
  O170     1.0000 0.40223  0.84727  0.41447  Biso   1.000  O
  O171     1.0000 0.15273  0.55497  0.41447  Biso   1.000  O
  O172     1.0000 0.88830  0.06890  0.25220  Biso   1.000  O
  O173     1.0000 0.93110  0.81940  0.25220  Biso   1.000  O
  O174     1.0000 0.18060  0.11170  0.25220  Biso   1.000  O
  O175     1.0000 0.55497  0.40223  0.58553  Biso   1.000  O
  O176     1.0000 0.59777  0.15273  0.58553  Biso   1.000  O
  O177     1.0000 0.84727  0.44503  0.58553  Biso   1.000  O
  O178     1.0000 0.22163  0.73557  0.91887  Biso   1.000  O
  O179     1.0000 0.26443  0.48607  0.91887  Biso   1.000  O
  O180     1.0000 0.51393  0.77837  0.91887  Biso   1.000  O
