data_image0
_cell_length_a       28.481
_cell_length_b       28.481
_cell_length_c       18.723
_cell_angle_alpha    90
_cell_angle_beta     90
_cell_angle_gamma    90

_symmetry_space_group_name_H-M    "P 1"
_symmetry_int_tables_number       1

loop_
  _symmetry_equiv_pos_as_xyz
  'x, y, z'

loop_
  _atom_site_label
  _atom_site_occupancy
  _atom_site_fract_x
  _atom_site_fract_y
  _atom_site_fract_z
  _atom_site_thermal_displace_type
  _atom_site_B_iso_or_equiv
  _atom_site_type_symbol
  Cu1      1.0000 0.75000  0.25489  0.00000  Biso   1.000  Cu
  Cu2      1.0000 0.75000  0.74511  0.50000  Biso   1.000  Cu
  Cu3      1.0000 0.99511  0.50000  0.25000  Biso   1.000  Cu
  Cu4      1.0000 0.50489  0.50000  0.75000  Biso   1.000  Cu
  Cu5      1.0000 0.25000  0.75489  0.50000  Biso   1.000  Cu
  Cu6      1.0000 0.25000  0.24511  0.00000  Biso   1.000  Cu
  Cu7      1.0000 0.49511  0.00000  0.75000  Biso   1.000  Cu
  Cu8      1.0000 0.00489  0.00000  0.25000  Biso   1.000  Cu
  Cu9      1.0000 0.25000  0.74511  0.00000  Biso   1.000  Cu
  Cu10     1.0000 0.25000  0.25489  0.50000  Biso   1.000  Cu
  Cu11     1.0000 0.50489  0.00000  0.25000  Biso   1.000  Cu
  Cu12     1.0000 0.99511  0.00000  0.75000  Biso   1.000  Cu
  Cu13     1.0000 0.75000  0.24511  0.50000  Biso   1.000  Cu
  Cu14     1.0000 0.75000  0.75489  0.00000  Biso   1.000  Cu
  Cu15     1.0000 0.00489  0.50000  0.75000  Biso   1.000  Cu
  Cu16     1.0000 0.49511  0.50000  0.25000  Biso   1.000  Cu
  N1       1.0000 0.70755  0.30400  0.04510  Biso   1.000  N
  N2       1.0000 0.79245  0.69600  0.54510  Biso   1.000  N
  N3       1.0000 0.94600  0.45755  0.29510  Biso   1.000  N
  N4       1.0000 0.55400  0.54245  0.79510  Biso   1.000  N
  N5       1.0000 0.79245  0.30400  0.95490  Biso   1.000  N
  N6       1.0000 0.70755  0.69600  0.45490  Biso   1.000  N
  N7       1.0000 0.55400  0.45755  0.70490  Biso   1.000  N
  N8       1.0000 0.94600  0.54245  0.20490  Biso   1.000  N
  N9       1.0000 0.20755  0.80400  0.54510  Biso   1.000  N
  N10      1.0000 0.29245  0.19600  0.04510  Biso   1.000  N
  N11      1.0000 0.44600  0.95755  0.79510  Biso   1.000  N
  N12      1.0000 0.05400  0.04245  0.29510  Biso   1.000  N
  N13      1.0000 0.29245  0.80400  0.45490  Biso   1.000  N
  N14      1.0000 0.20755  0.19600  0.95490  Biso   1.000  N
  N15      1.0000 0.05400  0.95755  0.20490  Biso   1.000  N
  N16      1.0000 0.44600  0.04245  0.70490  Biso   1.000  N
  N17      1.0000 0.29245  0.69600  0.95490  Biso   1.000  N
  N18      1.0000 0.20755  0.30400  0.45490  Biso   1.000  N
  N19      1.0000 0.55400  0.04245  0.20490  Biso   1.000  N
  N20      1.0000 0.94600  0.95755  0.70490  Biso   1.000  N
  N21      1.0000 0.20755  0.69600  0.04510  Biso   1.000  N
  N22      1.0000 0.29245  0.30400  0.54510  Biso   1.000  N
  N23      1.0000 0.94600  0.04245  0.79510  Biso   1.000  N
  N24      1.0000 0.55400  0.95755  0.29510  Biso   1.000  N
  N25      1.0000 0.79245  0.19600  0.45490  Biso   1.000  N
  N26      1.0000 0.70755  0.80400  0.95490  Biso   1.000  N
  N27      1.0000 0.05400  0.54245  0.70490  Biso   1.000  N
  N28      1.0000 0.44600  0.45755  0.20490  Biso   1.000  N
  N29      1.0000 0.70755  0.19600  0.54510  Biso   1.000  N
  N30      1.0000 0.79245  0.80400  0.04510  Biso   1.000  N
  N31      1.0000 0.44600  0.54245  0.29510  Biso   1.000  N
  N32      1.0000 0.05400  0.45755  0.79510  Biso   1.000  N
  C1       1.0000 0.70040  0.30270  0.11720  Biso   1.000  C
  C2       1.0000 0.79960  0.69730  0.61720  Biso   1.000  C
  C3       1.0000 0.94730  0.45040  0.36720  Biso   1.000  C
  C4       1.0000 0.55270  0.54960  0.86720  Biso   1.000  C
  C5       1.0000 0.79960  0.30270  0.88280  Biso   1.000  C
  C6       1.0000 0.70040  0.69730  0.38280  Biso   1.000  C
  C7       1.0000 0.55270  0.45040  0.63280  Biso   1.000  C
  C8       1.0000 0.94730  0.54960  0.13280  Biso   1.000  C
  C9       1.0000 0.20040  0.80270  0.61720  Biso   1.000  C
  C10      1.0000 0.29960  0.19730  0.11720  Biso   1.000  C
  C11      1.0000 0.44730  0.95040  0.86720  Biso   1.000  C
  C12      1.0000 0.05270  0.04960  0.36720  Biso   1.000  C
  C13      1.0000 0.29960  0.80270  0.38280  Biso   1.000  C
  C14      1.0000 0.20040  0.19730  0.88280  Biso   1.000  C
  C15      1.0000 0.05270  0.95040  0.13280  Biso   1.000  C
  C16      1.0000 0.44730  0.04960  0.63280  Biso   1.000  C
  C17      1.0000 0.29960  0.69730  0.88280  Biso   1.000  C
  C18      1.0000 0.20040  0.30270  0.38280  Biso   1.000  C
  C19      1.0000 0.55270  0.04960  0.13280  Biso   1.000  C
  C20      1.0000 0.94730  0.95040  0.63280  Biso   1.000  C
  C21      1.0000 0.20040  0.69730  0.11720  Biso   1.000  C
  C22      1.0000 0.29960  0.30270  0.61720  Biso   1.000  C
  C23      1.0000 0.94730  0.04960  0.86720  Biso   1.000  C
  C24      1.0000 0.55270  0.95040  0.36720  Biso   1.000  C
  C25      1.0000 0.79960  0.19730  0.38280  Biso   1.000  C
  C26      1.0000 0.70040  0.80270  0.88280  Biso   1.000  C
  C27      1.0000 0.05270  0.54960  0.63280  Biso   1.000  C
  C28      1.0000 0.44730  0.45040  0.13280  Biso   1.000  C
  C29      1.0000 0.70040  0.19730  0.61720  Biso   1.000  C
  C30      1.0000 0.79960  0.80270  0.11720  Biso   1.000  C
  C31      1.0000 0.44730  0.54960  0.36720  Biso   1.000  C
  C32      1.0000 0.05270  0.45040  0.86720  Biso   1.000  C
  H1       1.0000 0.71730  0.28200  0.14570  Biso   1.000  H
  H2       1.0000 0.78270  0.71800  0.64570  Biso   1.000  H
  H3       1.0000 0.96800  0.46730  0.39570  Biso   1.000  H
  H4       1.0000 0.53200  0.53270  0.89570  Biso   1.000  H
  H5       1.0000 0.78270  0.28200  0.85430  Biso   1.000  H
  H6       1.0000 0.71730  0.71800  0.35430  Biso   1.000  H
  H7       1.0000 0.53200  0.46730  0.60430  Biso   1.000  H
  H8       1.0000 0.96800  0.53270  0.10430  Biso   1.000  H
  H9       1.0000 0.21730  0.78200  0.64570  Biso   1.000  H
  H10      1.0000 0.28270  0.21800  0.14570  Biso   1.000  H
  H11      1.0000 0.46800  0.96730  0.89570  Biso   1.000  H
  H12      1.0000 0.03200  0.03270  0.39570  Biso   1.000  H
  H13      1.0000 0.28270  0.78200  0.35430  Biso   1.000  H
  H14      1.0000 0.21730  0.21800  0.85430  Biso   1.000  H
  H15      1.0000 0.03200  0.96730  0.10430  Biso   1.000  H
  H16      1.0000 0.46800  0.03270  0.60430  Biso   1.000  H
  H17      1.0000 0.28270  0.71800  0.85430  Biso   1.000  H
  H18      1.0000 0.21730  0.28200  0.35430  Biso   1.000  H
  H19      1.0000 0.53200  0.03270  0.10430  Biso   1.000  H
  H20      1.0000 0.96800  0.96730  0.60430  Biso   1.000  H
  H21      1.0000 0.21730  0.71800  0.14570  Biso   1.000  H
  H22      1.0000 0.28270  0.28200  0.64570  Biso   1.000  H
  H23      1.0000 0.96800  0.03270  0.89570  Biso   1.000  H
  H24      1.0000 0.53200  0.96730  0.39570  Biso   1.000  H
  H25      1.0000 0.78270  0.21800  0.35430  Biso   1.000  H
  H26      1.0000 0.71730  0.78200  0.85430  Biso   1.000  H
  H27      1.0000 0.03200  0.53270  0.60430  Biso   1.000  H
  H28      1.0000 0.46800  0.46730  0.10430  Biso   1.000  H
  H29      1.0000 0.71730  0.21800  0.64570  Biso   1.000  H
  H30      1.0000 0.78270  0.78200  0.14570  Biso   1.000  H
  H31      1.0000 0.46800  0.53270  0.39570  Biso   1.000  H
  H32      1.0000 0.03200  0.46730  0.89570  Biso   1.000  H
  C33      1.0000 0.66770  0.33260  0.14700  Biso   1.000  C
  C34      1.0000 0.83230  0.66740  0.64700  Biso   1.000  C
  C35      1.0000 0.91740  0.41770  0.39700  Biso   1.000  C
  C36      1.0000 0.58260  0.58230  0.89700  Biso   1.000  C
  C37      1.0000 0.83230  0.33260  0.85300  Biso   1.000  C
  C38      1.0000 0.66770  0.66740  0.35300  Biso   1.000  C
  C39      1.0000 0.58260  0.41770  0.60300  Biso   1.000  C
  C40      1.0000 0.91740  0.58230  0.10300  Biso   1.000  C
  C41      1.0000 0.16770  0.83260  0.64700  Biso   1.000  C
  C42      1.0000 0.33230  0.16740  0.14700  Biso   1.000  C
  C43      1.0000 0.41740  0.91770  0.89700  Biso   1.000  C
  C44      1.0000 0.08260  0.08230  0.39700  Biso   1.000  C
  C45      1.0000 0.33230  0.83260  0.35300  Biso   1.000  C
  C46      1.0000 0.16770  0.16740  0.85300  Biso   1.000  C
  C47      1.0000 0.08260  0.91770  0.10300  Biso   1.000  C
  C48      1.0000 0.41740  0.08230  0.60300  Biso   1.000  C
  C49      1.0000 0.33230  0.66740  0.85300  Biso   1.000  C
  C50      1.0000 0.16770  0.33260  0.35300  Biso   1.000  C
  C51      1.0000 0.58260  0.08230  0.10300  Biso   1.000  C
  C52      1.0000 0.91740  0.91770  0.60300  Biso   1.000  C
  C53      1.0000 0.16770  0.66740  0.14700  Biso   1.000  C
  C54      1.0000 0.33230  0.33260  0.64700  Biso   1.000  C
  C55      1.0000 0.91740  0.08230  0.89700  Biso   1.000  C
  C56      1.0000 0.58260  0.91770  0.39700  Biso   1.000  C
  C57      1.0000 0.83230  0.16740  0.35300  Biso   1.000  C
  C58      1.0000 0.66770  0.83260  0.85300  Biso   1.000  C
  C59      1.0000 0.08260  0.58230  0.60300  Biso   1.000  C
  C60      1.0000 0.41740  0.41770  0.10300  Biso   1.000  C
  C61      1.0000 0.66770  0.16740  0.64700  Biso   1.000  C
  C62      1.0000 0.83230  0.83260  0.14700  Biso   1.000  C
  C63      1.0000 0.41740  0.58230  0.39700  Biso   1.000  C
  C64      1.0000 0.08260  0.41770  0.89700  Biso   1.000  C
  H33      1.0000 0.66060  0.32940  0.19520  Biso   1.000  H
  H34      1.0000 0.83940  0.67060  0.69520  Biso   1.000  H
  H35      1.0000 0.92060  0.41060  0.44520  Biso   1.000  H
  H36      1.0000 0.57940  0.58940  0.94520  Biso   1.000  H
  H37      1.0000 0.83940  0.32940  0.80480  Biso   1.000  H
  H38      1.0000 0.66060  0.67060  0.30480  Biso   1.000  H
  H39      1.0000 0.57940  0.41060  0.55480  Biso   1.000  H
  H40      1.0000 0.92060  0.58940  0.05480  Biso   1.000  H
  H41      1.0000 0.16060  0.82940  0.69520  Biso   1.000  H
  H42      1.0000 0.33940  0.17060  0.19520  Biso   1.000  H
  H43      1.0000 0.42060  0.91060  0.94520  Biso   1.000  H
  H44      1.0000 0.07940  0.08940  0.44520  Biso   1.000  H
  H45      1.0000 0.33940  0.82940  0.30480  Biso   1.000  H
  H46      1.0000 0.16060  0.17060  0.80480  Biso   1.000  H
  H47      1.0000 0.07940  0.91060  0.05480  Biso   1.000  H
  H48      1.0000 0.42060  0.08940  0.55480  Biso   1.000  H
  H49      1.0000 0.33940  0.67060  0.80480  Biso   1.000  H
  H50      1.0000 0.16060  0.32940  0.30480  Biso   1.000  H
  H51      1.0000 0.57940  0.08940  0.05480  Biso   1.000  H
  H52      1.0000 0.92060  0.91060  0.55480  Biso   1.000  H
  H53      1.0000 0.16060  0.67060  0.19520  Biso   1.000  H
  H54      1.0000 0.33940  0.32940  0.69520  Biso   1.000  H
  H55      1.0000 0.92060  0.08940  0.94520  Biso   1.000  H
  H56      1.0000 0.57940  0.91060  0.44520  Biso   1.000  H
  H57      1.0000 0.83940  0.17060  0.30480  Biso   1.000  H
  H58      1.0000 0.66060  0.82940  0.80480  Biso   1.000  H
  H59      1.0000 0.07940  0.58940  0.55480  Biso   1.000  H
  H60      1.0000 0.42060  0.41060  0.05480  Biso   1.000  H
  H61      1.0000 0.66060  0.17060  0.69520  Biso   1.000  H
  H62      1.0000 0.83940  0.82940  0.19520  Biso   1.000  H
  H63      1.0000 0.42060  0.58940  0.44520  Biso   1.000  H
  H64      1.0000 0.07940  0.41060  0.94520  Biso   1.000  H
  C65      1.0000 0.64510  0.36698  0.10800  Biso   1.000  C
  C66      1.0000 0.85490  0.63302  0.60800  Biso   1.000  C
  C67      1.0000 0.88302  0.39510  0.35800  Biso   1.000  C
  C68      1.0000 0.61698  0.60490  0.85800  Biso   1.000  C
  C69      1.0000 0.85490  0.36698  0.89200  Biso   1.000  C
  C70      1.0000 0.64510  0.63302  0.39200  Biso   1.000  C
  C71      1.0000 0.61698  0.39510  0.64200  Biso   1.000  C
  C72      1.0000 0.88302  0.60490  0.14200  Biso   1.000  C
  C73      1.0000 0.14510  0.86698  0.60800  Biso   1.000  C
  C74      1.0000 0.35490  0.13302  0.10800  Biso   1.000  C
  C75      1.0000 0.38302  0.89510  0.85800  Biso   1.000  C
  C76      1.0000 0.11698  0.10490  0.35800  Biso   1.000  C
  C77      1.0000 0.35490  0.86698  0.39200  Biso   1.000  C
  C78      1.0000 0.14510  0.13302  0.89200  Biso   1.000  C
  C79      1.0000 0.11698  0.89510  0.14200  Biso   1.000  C
  C80      1.0000 0.38302  0.10490  0.64200  Biso   1.000  C
  C81      1.0000 0.35490  0.63302  0.89200  Biso   1.000  C
  C82      1.0000 0.14510  0.36698  0.39200  Biso   1.000  C
  C83      1.0000 0.61698  0.10490  0.14200  Biso   1.000  C
  C84      1.0000 0.88302  0.89510  0.64200  Biso   1.000  C
  C85      1.0000 0.14510  0.63302  0.10800  Biso   1.000  C
  C86      1.0000 0.35490  0.36698  0.60800  Biso   1.000  C
  C87      1.0000 0.88302  0.10490  0.85800  Biso   1.000  C
  C88      1.0000 0.61698  0.89510  0.35800  Biso   1.000  C
  C89      1.0000 0.85490  0.13302  0.39200  Biso   1.000  C
  C90      1.0000 0.64510  0.86698  0.89200  Biso   1.000  C
  C91      1.0000 0.11698  0.60490  0.64200  Biso   1.000  C
  C92      1.0000 0.38302  0.39510  0.14200  Biso   1.000  C
  C93      1.0000 0.64510  0.13302  0.60800  Biso   1.000  C
  C94      1.0000 0.85490  0.86698  0.10800  Biso   1.000  C
  C95      1.0000 0.38302  0.60490  0.35800  Biso   1.000  C
  C96      1.0000 0.11698  0.39510  0.85800  Biso   1.000  C
  C97      1.0000 0.65640  0.37110  0.03520  Biso   1.000  C
  C98      1.0000 0.84360  0.62890  0.53520  Biso   1.000  C
  C99      1.0000 0.87890  0.40640  0.28520  Biso   1.000  C
  C100     1.0000 0.62110  0.59360  0.78520  Biso   1.000  C
  C101     1.0000 0.84360  0.37110  0.96480  Biso   1.000  C
  C102     1.0000 0.65640  0.62890  0.46480  Biso   1.000  C
  C103     1.0000 0.62110  0.40640  0.71480  Biso   1.000  C
  C104     1.0000 0.87890  0.59360  0.21480  Biso   1.000  C
  C105     1.0000 0.15640  0.87110  0.53520  Biso   1.000  C
  C106     1.0000 0.34360  0.12890  0.03520  Biso   1.000  C
  C107     1.0000 0.37890  0.90640  0.78520  Biso   1.000  C
  C108     1.0000 0.12110  0.09360  0.28520  Biso   1.000  C
  C109     1.0000 0.34360  0.87110  0.46480  Biso   1.000  C
  C110     1.0000 0.15640  0.12890  0.96480  Biso   1.000  C
  C111     1.0000 0.12110  0.90640  0.21480  Biso   1.000  C
  C112     1.0000 0.37890  0.09360  0.71480  Biso   1.000  C
  C113     1.0000 0.34360  0.62890  0.96480  Biso   1.000  C
  C114     1.0000 0.15640  0.37110  0.46480  Biso   1.000  C
  C115     1.0000 0.62110  0.09360  0.21480  Biso   1.000  C
  C116     1.0000 0.87890  0.90640  0.71480  Biso   1.000  C
  C117     1.0000 0.15640  0.62890  0.03520  Biso   1.000  C
  C118     1.0000 0.34360  0.37110  0.53520  Biso   1.000  C
  C119     1.0000 0.87890  0.09360  0.78520  Biso   1.000  C
  C120     1.0000 0.62110  0.90640  0.28520  Biso   1.000  C
  C121     1.0000 0.84360  0.12890  0.46480  Biso   1.000  C
  C122     1.0000 0.65640  0.87110  0.96480  Biso   1.000  C
  C123     1.0000 0.12110  0.59360  0.71480  Biso   1.000  C
  C124     1.0000 0.37890  0.40640  0.21480  Biso   1.000  C
  C125     1.0000 0.65640  0.12890  0.53520  Biso   1.000  C
  C126     1.0000 0.84360  0.87110  0.03520  Biso   1.000  C
  C127     1.0000 0.37890  0.59360  0.28520  Biso   1.000  C
  C128     1.0000 0.12110  0.40640  0.78520  Biso   1.000  C
  H65      1.0000 0.64280  0.39400  0.00630  Biso   1.000  H
  H66      1.0000 0.85720  0.60600  0.50630  Biso   1.000  H
  H67      1.0000 0.85600  0.39280  0.25630  Biso   1.000  H
  H68      1.0000 0.64400  0.60720  0.75630  Biso   1.000  H
  H69      1.0000 0.85720  0.39400  0.99370  Biso   1.000  H
  H70      1.0000 0.64280  0.60600  0.49370  Biso   1.000  H
  H71      1.0000 0.64400  0.39280  0.74370  Biso   1.000  H
  H72      1.0000 0.85600  0.60720  0.24370  Biso   1.000  H
  H73      1.0000 0.14280  0.89400  0.50630  Biso   1.000  H
  H74      1.0000 0.35720  0.10600  0.00630  Biso   1.000  H
  H75      1.0000 0.35600  0.89280  0.75630  Biso   1.000  H
  H76      1.0000 0.14400  0.10720  0.25630  Biso   1.000  H
  H77      1.0000 0.35720  0.89400  0.49370  Biso   1.000  H
  H78      1.0000 0.14280  0.10600  0.99370  Biso   1.000  H
  H79      1.0000 0.14400  0.89280  0.24370  Biso   1.000  H
  H80      1.0000 0.35600  0.10720  0.74370  Biso   1.000  H
  H81      1.0000 0.35720  0.60600  0.99370  Biso   1.000  H
  H82      1.0000 0.14280  0.39400  0.49370  Biso   1.000  H
  H83      1.0000 0.64400  0.10720  0.24370  Biso   1.000  H
  H84      1.0000 0.85600  0.89280  0.74370  Biso   1.000  H
  H85      1.0000 0.14280  0.60600  0.00630  Biso   1.000  H
  H86      1.0000 0.35720  0.39400  0.50630  Biso   1.000  H
  H87      1.0000 0.85600  0.10720  0.75630  Biso   1.000  H
  H88      1.0000 0.64400  0.89280  0.25630  Biso   1.000  H
  H89      1.0000 0.85720  0.10600  0.49370  Biso   1.000  H
  H90      1.0000 0.64280  0.89400  0.99370  Biso   1.000  H
  H91      1.0000 0.14400  0.60720  0.74370  Biso   1.000  H
  H92      1.0000 0.35600  0.39280  0.24370  Biso   1.000  H
  H93      1.0000 0.64280  0.10600  0.50630  Biso   1.000  H
  H94      1.0000 0.85720  0.89400  0.00630  Biso   1.000  H
  H95      1.0000 0.35600  0.60720  0.25630  Biso   1.000  H
  H96      1.0000 0.14400  0.39280  0.75630  Biso   1.000  H
  C129     1.0000 0.68970  0.33850  0.00830  Biso   1.000  C
  C130     1.0000 0.81030  0.66150  0.50830  Biso   1.000  C
  C131     1.0000 0.91150  0.43970  0.25830  Biso   1.000  C
  C132     1.0000 0.58850  0.56030  0.75830  Biso   1.000  C
  C133     1.0000 0.81030  0.33850  0.99170  Biso   1.000  C
  C134     1.0000 0.68970  0.66150  0.49170  Biso   1.000  C
  C135     1.0000 0.58850  0.43970  0.74170  Biso   1.000  C
  C136     1.0000 0.91150  0.56030  0.24170  Biso   1.000  C
  C137     1.0000 0.18970  0.83850  0.50830  Biso   1.000  C
  C138     1.0000 0.31030  0.16150  0.00830  Biso   1.000  C
  C139     1.0000 0.41150  0.93970  0.75830  Biso   1.000  C
  C140     1.0000 0.08850  0.06030  0.25830  Biso   1.000  C
  C141     1.0000 0.31030  0.83850  0.49170  Biso   1.000  C
  C142     1.0000 0.18970  0.16150  0.99170  Biso   1.000  C
  C143     1.0000 0.08850  0.93970  0.24170  Biso   1.000  C
  C144     1.0000 0.41150  0.06030  0.74170  Biso   1.000  C
  C145     1.0000 0.31030  0.66150  0.99170  Biso   1.000  C
  C146     1.0000 0.18970  0.33850  0.49170  Biso   1.000  C
  C147     1.0000 0.58850  0.06030  0.24170  Biso   1.000  C
  C148     1.0000 0.91150  0.93970  0.74170  Biso   1.000  C
  C149     1.0000 0.18970  0.66150  0.00830  Biso   1.000  C
  C150     1.0000 0.31030  0.33850  0.50830  Biso   1.000  C
  C151     1.0000 0.91150  0.06030  0.75830  Biso   1.000  C
  C152     1.0000 0.58850  0.93970  0.25830  Biso   1.000  C
  C153     1.0000 0.81030  0.16150  0.49170  Biso   1.000  C
  C154     1.0000 0.68970  0.83850  0.99170  Biso   1.000  C
  C155     1.0000 0.08850  0.56030  0.74170  Biso   1.000  C
  C156     1.0000 0.41150  0.43970  0.24170  Biso   1.000  C
  C157     1.0000 0.68970  0.16150  0.50830  Biso   1.000  C
  C158     1.0000 0.81030  0.83850  0.00830  Biso   1.000  C
  C159     1.0000 0.41150  0.56030  0.25830  Biso   1.000  C
  C160     1.0000 0.08850  0.43970  0.75830  Biso   1.000  C
  H97      1.0000 0.69950  0.34200  0.96120  Biso   1.000  H
  H98      1.0000 0.80050  0.65800  0.46120  Biso   1.000  H
  H99      1.0000 0.90800  0.44950  0.21120  Biso   1.000  H
  H100     1.0000 0.59200  0.55050  0.71120  Biso   1.000  H
  H101     1.0000 0.80050  0.34200  0.03880  Biso   1.000  H
  H102     1.0000 0.69950  0.65800  0.53880  Biso   1.000  H
  H103     1.0000 0.59200  0.44950  0.78880  Biso   1.000  H
  H104     1.0000 0.90800  0.55050  0.28880  Biso   1.000  H
  H105     1.0000 0.19950  0.84200  0.46120  Biso   1.000  H
  H106     1.0000 0.30050  0.15800  0.96120  Biso   1.000  H
  H107     1.0000 0.40800  0.94950  0.71120  Biso   1.000  H
  H108     1.0000 0.09200  0.05050  0.21120  Biso   1.000  H
  H109     1.0000 0.30050  0.84200  0.53880  Biso   1.000  H
  H110     1.0000 0.19950  0.15800  0.03880  Biso   1.000  H
  H111     1.0000 0.09200  0.94950  0.28880  Biso   1.000  H
  H112     1.0000 0.40800  0.05050  0.78880  Biso   1.000  H
  H113     1.0000 0.30050  0.65800  0.03880  Biso   1.000  H
  H114     1.0000 0.19950  0.34200  0.53880  Biso   1.000  H
  H115     1.0000 0.59200  0.05050  0.28880  Biso   1.000  H
  H116     1.0000 0.90800  0.94950  0.78880  Biso   1.000  H
  H117     1.0000 0.19950  0.65800  0.96120  Biso   1.000  H
  H118     1.0000 0.30050  0.34200  0.46120  Biso   1.000  H
  H119     1.0000 0.90800  0.05050  0.71120  Biso   1.000  H
  H120     1.0000 0.59200  0.94950  0.21120  Biso   1.000  H
  H121     1.0000 0.80050  0.15800  0.53880  Biso   1.000  H
  H122     1.0000 0.69950  0.84200  0.03880  Biso   1.000  H
  H123     1.0000 0.09200  0.55050  0.78880  Biso   1.000  H
  H124     1.0000 0.40800  0.44950  0.28880  Biso   1.000  H
  H125     1.0000 0.69950  0.15800  0.46120  Biso   1.000  H
  H126     1.0000 0.80050  0.84200  0.96120  Biso   1.000  H
  H127     1.0000 0.40800  0.55050  0.21120  Biso   1.000  H
  H128     1.0000 0.09200  0.44950  0.71120  Biso   1.000  H
  N33      1.0000 0.54589  0.45881  0.20550  Biso   1.000  N
  N34      1.0000 0.95411  0.54119  0.70550  Biso   1.000  N
  N35      1.0000 0.79119  0.29589  0.45550  Biso   1.000  N
  N36      1.0000 0.70881  0.70411  0.95550  Biso   1.000  N
  N37      1.0000 0.95411  0.45881  0.79450  Biso   1.000  N
  N38      1.0000 0.54589  0.54119  0.29450  Biso   1.000  N
  N39      1.0000 0.70881  0.29589  0.54450  Biso   1.000  N
  N40      1.0000 0.79119  0.70411  0.04450  Biso   1.000  N
  N41      1.0000 0.04589  0.95881  0.70550  Biso   1.000  N
  N42      1.0000 0.45411  0.04119  0.20550  Biso   1.000  N
  N43      1.0000 0.29119  0.79589  0.95550  Biso   1.000  N
  N44      1.0000 0.20881  0.20411  0.45550  Biso   1.000  N
  N45      1.0000 0.45411  0.95881  0.29450  Biso   1.000  N
  N46      1.0000 0.04589  0.04119  0.79450  Biso   1.000  N
  N47      1.0000 0.20881  0.79589  0.04450  Biso   1.000  N
  N48      1.0000 0.29119  0.20411  0.54450  Biso   1.000  N
  N49      1.0000 0.45411  0.54119  0.79450  Biso   1.000  N
  N50      1.0000 0.04589  0.45881  0.29450  Biso   1.000  N
  N51      1.0000 0.70881  0.20411  0.04450  Biso   1.000  N
  N52      1.0000 0.79119  0.79589  0.54450  Biso   1.000  N
  N53      1.0000 0.04589  0.54119  0.20550  Biso   1.000  N
  N54      1.0000 0.45411  0.45881  0.70550  Biso   1.000  N
  N55      1.0000 0.79119  0.20411  0.95550  Biso   1.000  N
  N56      1.0000 0.70881  0.79589  0.45550  Biso   1.000  N
  N57      1.0000 0.95411  0.04119  0.29450  Biso   1.000  N
  N58      1.0000 0.54589  0.95881  0.79450  Biso   1.000  N
  N59      1.0000 0.20881  0.70411  0.54450  Biso   1.000  N
  N60      1.0000 0.29119  0.29589  0.04450  Biso   1.000  N
  N61      1.0000 0.54589  0.04119  0.70550  Biso   1.000  N
  N62      1.0000 0.95411  0.95881  0.20550  Biso   1.000  N
  N63      1.0000 0.29119  0.70411  0.45550  Biso   1.000  N
  N64      1.0000 0.20881  0.29589  0.95550  Biso   1.000  N
  C161     1.0000 0.54710  0.41500  0.22330  Biso   1.000  C
  C162     1.0000 0.95290  0.58500  0.72330  Biso   1.000  C
  C163     1.0000 0.83500  0.29710  0.47330  Biso   1.000  C
  C164     1.0000 0.66500  0.70290  0.97330  Biso   1.000  C
  C165     1.0000 0.95290  0.41500  0.77670  Biso   1.000  C
  C166     1.0000 0.54710  0.58500  0.27670  Biso   1.000  C
  C167     1.0000 0.66500  0.29710  0.52670  Biso   1.000  C
  C168     1.0000 0.83500  0.70290  0.02670  Biso   1.000  C
  C169     1.0000 0.04710  0.91500  0.72330  Biso   1.000  C
  C170     1.0000 0.45290  0.08500  0.22330  Biso   1.000  C
  C171     1.0000 0.33500  0.79710  0.97330  Biso   1.000  C
  C172     1.0000 0.16500  0.20290  0.47330  Biso   1.000  C
  C173     1.0000 0.45290  0.91500  0.27670  Biso   1.000  C
  C174     1.0000 0.04710  0.08500  0.77670  Biso   1.000  C
  C175     1.0000 0.16500  0.79710  0.02670  Biso   1.000  C
  C176     1.0000 0.33500  0.20290  0.52670  Biso   1.000  C
  C177     1.0000 0.45290  0.58500  0.77670  Biso   1.000  C
  C178     1.0000 0.04710  0.41500  0.27670  Biso   1.000  C
  C179     1.0000 0.66500  0.20290  0.02670  Biso   1.000  C
  C180     1.0000 0.83500  0.79710  0.52670  Biso   1.000  C
  C181     1.0000 0.04710  0.58500  0.22330  Biso   1.000  C
  C182     1.0000 0.45290  0.41500  0.72330  Biso   1.000  C
  C183     1.0000 0.83500  0.20290  0.97330  Biso   1.000  C
  C184     1.0000 0.66500  0.79710  0.47330  Biso   1.000  C
  C185     1.0000 0.95290  0.08500  0.27670  Biso   1.000  C
  C186     1.0000 0.54710  0.91500  0.77670  Biso   1.000  C
  C187     1.0000 0.16500  0.70290  0.52670  Biso   1.000  C
  C188     1.0000 0.33500  0.29710  0.02670  Biso   1.000  C
  C189     1.0000 0.54710  0.08500  0.72330  Biso   1.000  C
  C190     1.0000 0.95290  0.91500  0.22330  Biso   1.000  C
  C191     1.0000 0.33500  0.70290  0.47330  Biso   1.000  C
  C192     1.0000 0.16500  0.29710  0.97330  Biso   1.000  C
  H129     1.0000 0.52570  0.40390  0.25690  Biso   1.000  H
  H130     1.0000 0.97430  0.59610  0.75690  Biso   1.000  H
  H131     1.0000 0.84610  0.27570  0.50690  Biso   1.000  H
  H132     1.0000 0.65390  0.72430  0.00690  Biso   1.000  H
  H133     1.0000 0.97430  0.40390  0.74310  Biso   1.000  H
  H134     1.0000 0.52570  0.59610  0.24310  Biso   1.000  H
  H135     1.0000 0.65390  0.27570  0.49310  Biso   1.000  H
  H136     1.0000 0.84610  0.72430  0.99310  Biso   1.000  H
  H137     1.0000 0.02570  0.90390  0.75690  Biso   1.000  H
  H138     1.0000 0.47430  0.09610  0.25690  Biso   1.000  H
  H139     1.0000 0.34610  0.77570  0.00690  Biso   1.000  H
  H140     1.0000 0.15390  0.22430  0.50690  Biso   1.000  H
  H141     1.0000 0.47430  0.90390  0.24310  Biso   1.000  H
  H142     1.0000 0.02570  0.09610  0.74310  Biso   1.000  H
  H143     1.0000 0.15390  0.77570  0.99310  Biso   1.000  H
  H144     1.0000 0.34610  0.22430  0.49310  Biso   1.000  H
  H145     1.0000 0.47430  0.59610  0.74310  Biso   1.000  H
  H146     1.0000 0.02570  0.40390  0.24310  Biso   1.000  H
  H147     1.0000 0.65390  0.22430  0.99310  Biso   1.000  H
  H148     1.0000 0.84610  0.77570  0.49310  Biso   1.000  H
  H149     1.0000 0.02570  0.59610  0.25690  Biso   1.000  H
  H150     1.0000 0.47430  0.40390  0.75690  Biso   1.000  H
  H151     1.0000 0.84610  0.22430  0.00690  Biso   1.000  H
  H152     1.0000 0.65390  0.77570  0.50690  Biso   1.000  H
  H153     1.0000 0.97430  0.09610  0.24310  Biso   1.000  H
  H154     1.0000 0.52570  0.90390  0.74310  Biso   1.000  H
  H155     1.0000 0.15390  0.72430  0.49310  Biso   1.000  H
  H156     1.0000 0.34610  0.27570  0.99310  Biso   1.000  H
  H157     1.0000 0.52570  0.09610  0.75690  Biso   1.000  H
  H158     1.0000 0.97430  0.90390  0.25690  Biso   1.000  H
  H159     1.0000 0.34610  0.72430  0.50690  Biso   1.000  H
  H160     1.0000 0.15390  0.27570  0.00690  Biso   1.000  H
  C193     1.0000 0.58050  0.38290  0.19280  Biso   1.000  C
  C194     1.0000 0.91950  0.61710  0.69280  Biso   1.000  C
  C195     1.0000 0.86710  0.33050  0.44280  Biso   1.000  C
  C196     1.0000 0.63290  0.66950  0.94280  Biso   1.000  C
  C197     1.0000 0.91950  0.38290  0.80720  Biso   1.000  C
  C198     1.0000 0.58050  0.61710  0.30720  Biso   1.000  C
  C199     1.0000 0.63290  0.33050  0.55720  Biso   1.000  C
  C200     1.0000 0.86710  0.66950  0.05720  Biso   1.000  C
  C201     1.0000 0.08050  0.88290  0.69280  Biso   1.000  C
  C202     1.0000 0.41950  0.11710  0.19280  Biso   1.000  C
  C203     1.0000 0.36710  0.83050  0.94280  Biso   1.000  C
  C204     1.0000 0.13290  0.16950  0.44280  Biso   1.000  C
  C205     1.0000 0.41950  0.88290  0.30720  Biso   1.000  C
  C206     1.0000 0.08050  0.11710  0.80720  Biso   1.000  C
  C207     1.0000 0.13290  0.83050  0.05720  Biso   1.000  C
  C208     1.0000 0.36710  0.16950  0.55720  Biso   1.000  C
  C209     1.0000 0.41950  0.61710  0.80720  Biso   1.000  C
  C210     1.0000 0.08050  0.38290  0.30720  Biso   1.000  C
  C211     1.0000 0.63290  0.16950  0.05720  Biso   1.000  C
  C212     1.0000 0.86710  0.83050  0.55720  Biso   1.000  C
  C213     1.0000 0.08050  0.61710  0.19280  Biso   1.000  C
  C214     1.0000 0.41950  0.38290  0.69280  Biso   1.000  C
  C215     1.0000 0.86710  0.16950  0.94280  Biso   1.000  C
  C216     1.0000 0.63290  0.83050  0.44280  Biso   1.000  C
  C217     1.0000 0.91950  0.11710  0.30720  Biso   1.000  C
  C218     1.0000 0.58050  0.88290  0.80720  Biso   1.000  C
  C219     1.0000 0.13290  0.66950  0.55720  Biso   1.000  C
  C220     1.0000 0.36710  0.33050  0.05720  Biso   1.000  C
  C221     1.0000 0.58050  0.11710  0.69280  Biso   1.000  C
  C222     1.0000 0.91950  0.88290  0.19280  Biso   1.000  C
  C223     1.0000 0.36710  0.66950  0.44280  Biso   1.000  C
  C224     1.0000 0.13290  0.33050  0.94280  Biso   1.000  C
  H161     1.0000 0.58160  0.35170  0.20730  Biso   1.000  H
  H162     1.0000 0.91840  0.64830  0.70730  Biso   1.000  H
  H163     1.0000 0.89830  0.33160  0.45730  Biso   1.000  H
  H164     1.0000 0.60170  0.66840  0.95730  Biso   1.000  H
  H165     1.0000 0.91840  0.35170  0.79270  Biso   1.000  H
  H166     1.0000 0.58160  0.64830  0.29270  Biso   1.000  H
  H167     1.0000 0.60170  0.33160  0.54270  Biso   1.000  H
  H168     1.0000 0.89830  0.66840  0.04270  Biso   1.000  H
  H169     1.0000 0.08160  0.85170  0.70730  Biso   1.000  H
  H170     1.0000 0.41840  0.14830  0.20730  Biso   1.000  H
  H171     1.0000 0.39830  0.83160  0.95730  Biso   1.000  H
  H172     1.0000 0.10170  0.16840  0.45730  Biso   1.000  H
  H173     1.0000 0.41840  0.85170  0.29270  Biso   1.000  H
  H174     1.0000 0.08160  0.14830  0.79270  Biso   1.000  H
  H175     1.0000 0.10170  0.83160  0.04270  Biso   1.000  H
  H176     1.0000 0.39830  0.16840  0.54270  Biso   1.000  H
  H177     1.0000 0.41840  0.64830  0.79270  Biso   1.000  H
  H178     1.0000 0.08160  0.35170  0.29270  Biso   1.000  H
  H179     1.0000 0.60170  0.16840  0.04270  Biso   1.000  H
  H180     1.0000 0.89830  0.83160  0.54270  Biso   1.000  H
  H181     1.0000 0.08160  0.64830  0.20730  Biso   1.000  H
  H182     1.0000 0.41840  0.35170  0.70730  Biso   1.000  H
  H183     1.0000 0.89830  0.16840  0.95730  Biso   1.000  H
  H184     1.0000 0.60170  0.83160  0.45730  Biso   1.000  H
  H185     1.0000 0.91840  0.14830  0.29270  Biso   1.000  H
  H186     1.0000 0.58160  0.85170  0.79270  Biso   1.000  H
  H187     1.0000 0.10170  0.66840  0.54270  Biso   1.000  H
  H188     1.0000 0.39830  0.33160  0.04270  Biso   1.000  H
  H189     1.0000 0.58160  0.14830  0.70730  Biso   1.000  H
  H190     1.0000 0.91840  0.85170  0.20730  Biso   1.000  H
  H191     1.0000 0.39830  0.66840  0.45730  Biso   1.000  H
  H192     1.0000 0.10170  0.33160  0.95730  Biso   1.000  H
  C225     1.0000 0.61080  0.39956  0.14170  Biso   1.000  C
  C226     1.0000 0.88920  0.60044  0.64170  Biso   1.000  C
  C227     1.0000 0.85044  0.36080  0.39170  Biso   1.000  C
  C228     1.0000 0.64956  0.63920  0.89170  Biso   1.000  C
  C229     1.0000 0.88920  0.39956  0.85830  Biso   1.000  C
  C230     1.0000 0.61080  0.60044  0.35830  Biso   1.000  C
  C231     1.0000 0.64956  0.36080  0.60830  Biso   1.000  C
  C232     1.0000 0.85044  0.63920  0.10830  Biso   1.000  C
  C233     1.0000 0.11080  0.89956  0.64170  Biso   1.000  C
  C234     1.0000 0.38920  0.10044  0.14170  Biso   1.000  C
  C235     1.0000 0.35044  0.86080  0.89170  Biso   1.000  C
  C236     1.0000 0.14956  0.13920  0.39170  Biso   1.000  C
  C237     1.0000 0.38920  0.89956  0.35830  Biso   1.000  C
  C238     1.0000 0.11080  0.10044  0.85830  Biso   1.000  C
  C239     1.0000 0.14956  0.86080  0.10830  Biso   1.000  C
  C240     1.0000 0.35044  0.13920  0.60830  Biso   1.000  C
  C241     1.0000 0.38920  0.60044  0.85830  Biso   1.000  C
  C242     1.0000 0.11080  0.39956  0.35830  Biso   1.000  C
  C243     1.0000 0.64956  0.13920  0.10830  Biso   1.000  C
  C244     1.0000 0.85044  0.86080  0.60830  Biso   1.000  C
  C245     1.0000 0.11080  0.60044  0.14170  Biso   1.000  C
  C246     1.0000 0.38920  0.39956  0.64170  Biso   1.000  C
  C247     1.0000 0.85044  0.13920  0.89170  Biso   1.000  C
  C248     1.0000 0.64956  0.86080  0.39170  Biso   1.000  C
  C249     1.0000 0.88920  0.10044  0.35830  Biso   1.000  C
  C250     1.0000 0.61080  0.89956  0.85830  Biso   1.000  C
  C251     1.0000 0.14956  0.63920  0.60830  Biso   1.000  C
  C252     1.0000 0.35044  0.36080  0.10830  Biso   1.000  C
  C253     1.0000 0.61080  0.10044  0.64170  Biso   1.000  C
  C254     1.0000 0.88920  0.89956  0.14170  Biso   1.000  C
  C255     1.0000 0.35044  0.63920  0.39170  Biso   1.000  C
  C256     1.0000 0.14956  0.36080  0.89170  Biso   1.000  C
  C257     1.0000 0.60880  0.44630  0.12320  Biso   1.000  C
  C258     1.0000 0.89120  0.55370  0.62320  Biso   1.000  C
  C259     1.0000 0.80370  0.35880  0.37320  Biso   1.000  C
  C260     1.0000 0.69630  0.64120  0.87320  Biso   1.000  C
  C261     1.0000 0.89120  0.44630  0.87680  Biso   1.000  C
  C262     1.0000 0.60880  0.55370  0.37680  Biso   1.000  C
  C263     1.0000 0.69630  0.35880  0.62680  Biso   1.000  C
  C264     1.0000 0.80370  0.64120  0.12680  Biso   1.000  C
  C265     1.0000 0.10880  0.94630  0.62320  Biso   1.000  C
  C266     1.0000 0.39120  0.05370  0.12320  Biso   1.000  C
  C267     1.0000 0.30370  0.85880  0.87320  Biso   1.000  C
  C268     1.0000 0.19630  0.14120  0.37320  Biso   1.000  C
  C269     1.0000 0.39120  0.94630  0.37680  Biso   1.000  C
  C270     1.0000 0.10880  0.05370  0.87680  Biso   1.000  C
  C271     1.0000 0.19630  0.85880  0.12680  Biso   1.000  C
  C272     1.0000 0.30370  0.14120  0.62680  Biso   1.000  C
  C273     1.0000 0.39120  0.55370  0.87680  Biso   1.000  C
  C274     1.0000 0.10880  0.44630  0.37680  Biso   1.000  C
  C275     1.0000 0.69630  0.14120  0.12680  Biso   1.000  C
  C276     1.0000 0.80370  0.85880  0.62680  Biso   1.000  C
  C277     1.0000 0.10880  0.55370  0.12320  Biso   1.000  C
  C278     1.0000 0.39120  0.44630  0.62320  Biso   1.000  C
  C279     1.0000 0.80370  0.14120  0.87320  Biso   1.000  C
  C280     1.0000 0.69630  0.85880  0.37320  Biso   1.000  C
  C281     1.0000 0.89120  0.05370  0.37680  Biso   1.000  C
  C282     1.0000 0.60880  0.94630  0.87680  Biso   1.000  C
  C283     1.0000 0.19630  0.64120  0.62680  Biso   1.000  C
  C284     1.0000 0.30370  0.35880  0.12680  Biso   1.000  C
  C285     1.0000 0.60880  0.05370  0.62320  Biso   1.000  C
  C286     1.0000 0.89120  0.94630  0.12320  Biso   1.000  C
  C287     1.0000 0.30370  0.64120  0.37320  Biso   1.000  C
  C288     1.0000 0.19630  0.35880  0.87320  Biso   1.000  C
  H193     1.0000 0.62890  0.45900  0.08910  Biso   1.000  H
  H194     1.0000 0.87110  0.54100  0.58910  Biso   1.000  H
  H195     1.0000 0.79100  0.37890  0.33910  Biso   1.000  H
  H196     1.0000 0.70900  0.62110  0.83910  Biso   1.000  H
  H197     1.0000 0.87110  0.45900  0.91090  Biso   1.000  H
  H198     1.0000 0.62890  0.54100  0.41090  Biso   1.000  H
  H199     1.0000 0.70900  0.37890  0.66090  Biso   1.000  H
  H200     1.0000 0.79100  0.62110  0.16090  Biso   1.000  H
  H201     1.0000 0.12890  0.95900  0.58910  Biso   1.000  H
  H202     1.0000 0.37110  0.04100  0.08910  Biso   1.000  H
  H203     1.0000 0.29100  0.87890  0.83910  Biso   1.000  H
  H204     1.0000 0.20900  0.12110  0.33910  Biso   1.000  H
  H205     1.0000 0.37110  0.95900  0.41090  Biso   1.000  H
  H206     1.0000 0.12890  0.04100  0.91090  Biso   1.000  H
  H207     1.0000 0.20900  0.87890  0.16090  Biso   1.000  H
  H208     1.0000 0.29100  0.12110  0.66090  Biso   1.000  H
  H209     1.0000 0.37110  0.54100  0.91090  Biso   1.000  H
  H210     1.0000 0.12890  0.45900  0.41090  Biso   1.000  H
  H211     1.0000 0.70900  0.12110  0.16090  Biso   1.000  H
  H212     1.0000 0.79100  0.87890  0.66090  Biso   1.000  H
  H213     1.0000 0.12890  0.54100  0.08910  Biso   1.000  H
  H214     1.0000 0.37110  0.45900  0.58910  Biso   1.000  H
  H215     1.0000 0.79100  0.12110  0.83910  Biso   1.000  H
  H216     1.0000 0.70900  0.87890  0.33910  Biso   1.000  H
  H217     1.0000 0.87110  0.04100  0.41090  Biso   1.000  H
  H218     1.0000 0.62890  0.95900  0.91090  Biso   1.000  H
  H219     1.0000 0.20900  0.62110  0.66090  Biso   1.000  H
  H220     1.0000 0.29100  0.37890  0.16090  Biso   1.000  H
  H221     1.0000 0.62890  0.04100  0.58910  Biso   1.000  H
  H222     1.0000 0.87110  0.95900  0.08910  Biso   1.000  H
  H223     1.0000 0.29100  0.62110  0.33910  Biso   1.000  H
  H224     1.0000 0.20900  0.37890  0.83910  Biso   1.000  H
  C289     1.0000 0.57460  0.47440  0.15880  Biso   1.000  C
  C290     1.0000 0.92540  0.52560  0.65880  Biso   1.000  C
  C291     1.0000 0.77560  0.32460  0.40880  Biso   1.000  C
  C292     1.0000 0.72440  0.67540  0.90880  Biso   1.000  C
  C293     1.0000 0.92540  0.47440  0.84120  Biso   1.000  C
  C294     1.0000 0.57460  0.52560  0.34120  Biso   1.000  C
  C295     1.0000 0.72440  0.32460  0.59120  Biso   1.000  C
  C296     1.0000 0.77560  0.67540  0.09120  Biso   1.000  C
  C297     1.0000 0.07460  0.97440  0.65880  Biso   1.000  C
  C298     1.0000 0.42540  0.02560  0.15880  Biso   1.000  C
  C299     1.0000 0.27560  0.82460  0.90880  Biso   1.000  C
  C300     1.0000 0.22440  0.17540  0.40880  Biso   1.000  C
  C301     1.0000 0.42540  0.97440  0.34120  Biso   1.000  C
  C302     1.0000 0.07460  0.02560  0.84120  Biso   1.000  C
  C303     1.0000 0.22440  0.82460  0.09120  Biso   1.000  C
  C304     1.0000 0.27560  0.17540  0.59120  Biso   1.000  C
  C305     1.0000 0.42540  0.52560  0.84120  Biso   1.000  C
  C306     1.0000 0.07460  0.47440  0.34120  Biso   1.000  C
  C307     1.0000 0.72440  0.17540  0.09120  Biso   1.000  C
  C308     1.0000 0.77560  0.82460  0.59120  Biso   1.000  C
  C309     1.0000 0.07460  0.52560  0.15880  Biso   1.000  C
  C310     1.0000 0.42540  0.47440  0.65880  Biso   1.000  C
  C311     1.0000 0.77560  0.17540  0.90880  Biso   1.000  C
  C312     1.0000 0.72440  0.82460  0.40880  Biso   1.000  C
  C313     1.0000 0.92540  0.02560  0.34120  Biso   1.000  C
  C314     1.0000 0.57460  0.97440  0.84120  Biso   1.000  C
  C315     1.0000 0.22440  0.67540  0.59120  Biso   1.000  C
  C316     1.0000 0.27560  0.32460  0.09120  Biso   1.000  C
  C317     1.0000 0.57460  0.02560  0.65880  Biso   1.000  C
  C318     1.0000 0.92540  0.97440  0.15880  Biso   1.000  C
  C319     1.0000 0.27560  0.67540  0.40880  Biso   1.000  C
  C320     1.0000 0.22440  0.32460  0.90880  Biso   1.000  C
  H225     1.0000 0.57310  0.50620  0.14720  Biso   1.000  H
  H226     1.0000 0.92690  0.49380  0.64720  Biso   1.000  H
  H227     1.0000 0.74380  0.32310  0.39720  Biso   1.000  H
  H228     1.0000 0.75620  0.67690  0.89720  Biso   1.000  H
  H229     1.0000 0.92690  0.50620  0.85280  Biso   1.000  H
  H230     1.0000 0.57310  0.49380  0.35280  Biso   1.000  H
  H231     1.0000 0.75620  0.32310  0.60280  Biso   1.000  H
  H232     1.0000 0.74380  0.67690  0.10280  Biso   1.000  H
  H233     1.0000 0.07310  0.00620  0.64720  Biso   1.000  H
  H234     1.0000 0.42690  0.99380  0.14720  Biso   1.000  H
  H235     1.0000 0.24380  0.82310  0.89720  Biso   1.000  H
  H236     1.0000 0.25620  0.17690  0.39720  Biso   1.000  H
  H237     1.0000 0.42690  0.00620  0.35280  Biso   1.000  H
  H238     1.0000 0.07310  0.99380  0.85280  Biso   1.000  H
  H239     1.0000 0.25620  0.82310  0.10280  Biso   1.000  H
  H240     1.0000 0.24380  0.17690  0.60280  Biso   1.000  H
  H241     1.0000 0.42690  0.49380  0.85280  Biso   1.000  H
  H242     1.0000 0.07310  0.50620  0.35280  Biso   1.000  H
  H243     1.0000 0.75620  0.17690  0.10280  Biso   1.000  H
  H244     1.0000 0.74380  0.82310  0.60280  Biso   1.000  H
  H245     1.0000 0.07310  0.49380  0.14720  Biso   1.000  H
  H246     1.0000 0.42690  0.50620  0.64720  Biso   1.000  H
  H247     1.0000 0.74380  0.17690  0.89720  Biso   1.000  H
  H248     1.0000 0.75620  0.82310  0.39720  Biso   1.000  H
  H249     1.0000 0.92690  0.99380  0.35280  Biso   1.000  H
  H250     1.0000 0.57310  0.00620  0.85280  Biso   1.000  H
  H251     1.0000 0.25620  0.67690  0.60280  Biso   1.000  H
  H252     1.0000 0.24380  0.32310  0.10280  Biso   1.000  H
  H253     1.0000 0.57310  0.99380  0.64720  Biso   1.000  H
  H254     1.0000 0.92690  0.00620  0.14720  Biso   1.000  H
  H255     1.0000 0.24380  0.67690  0.39720  Biso   1.000  H
  H256     1.0000 0.25620  0.32310  0.89720  Biso   1.000  H
  O1       1.0000 0.80221  0.25717  0.10770  Biso   1.000  O
  O2       1.0000 0.69779  0.74283  0.60770  Biso   1.000  O
  O3       1.0000 0.99283  0.55221  0.35770  Biso   1.000  O
  O4       1.0000 0.50717  0.44779  0.85770  Biso   1.000  O
  O5       1.0000 0.69779  0.25717  0.89230  Biso   1.000  O
  O6       1.0000 0.80221  0.74283  0.39230  Biso   1.000  O
  O7       1.0000 0.50717  0.55221  0.64230  Biso   1.000  O
  O8       1.0000 0.99283  0.44779  0.14230  Biso   1.000  O
  O9       1.0000 0.30221  0.75717  0.60770  Biso   1.000  O
  O10      1.0000 0.19779  0.24283  0.10770  Biso   1.000  O
  O11      1.0000 0.49283  0.05221  0.85770  Biso   1.000  O
  O12      1.0000 0.00717  0.94779  0.35770  Biso   1.000  O
  O13      1.0000 0.19779  0.75717  0.39230  Biso   1.000  O
  O14      1.0000 0.30221  0.24283  0.89230  Biso   1.000  O
  O15      1.0000 0.00717  0.05221  0.14230  Biso   1.000  O
  O16      1.0000 0.49283  0.94779  0.64230  Biso   1.000  O
  O17      1.0000 0.19779  0.74283  0.89230  Biso   1.000  O
  O18      1.0000 0.30221  0.25717  0.39230  Biso   1.000  O
  O19      1.0000 0.50717  0.94779  0.14230  Biso   1.000  O
  O20      1.0000 0.99283  0.05221  0.64230  Biso   1.000  O
  O21      1.0000 0.30221  0.74283  0.10770  Biso   1.000  O
  O22      1.0000 0.19779  0.25717  0.60770  Biso   1.000  O
  O23      1.0000 0.99283  0.94779  0.85770  Biso   1.000  O
  O24      1.0000 0.50717  0.05221  0.35770  Biso   1.000  O
  O25      1.0000 0.69779  0.24283  0.39230  Biso   1.000  O
  O26      1.0000 0.80221  0.75717  0.89230  Biso   1.000  O
  O27      1.0000 0.00717  0.44779  0.64230  Biso   1.000  O
  O28      1.0000 0.49283  0.55221  0.14230  Biso   1.000  O
  O29      1.0000 0.80221  0.24283  0.60770  Biso   1.000  O
  O30      1.0000 0.69779  0.75717  0.10770  Biso   1.000  O
  O31      1.0000 0.49283  0.44779  0.35770  Biso   1.000  O
  O32      1.0000 0.00717  0.55221  0.85770  Biso   1.000  O
  O33      1.0000 0.79870  0.25500  0.24170  Biso   1.000  O
  O34      1.0000 0.70130  0.74500  0.74170  Biso   1.000  O
  O35      1.0000 0.99500  0.54870  0.49170  Biso   1.000  O
  O36      1.0000 0.50500  0.45130  0.99170  Biso   1.000  O
  O37      1.0000 0.70130  0.25500  0.75830  Biso   1.000  O
  O38      1.0000 0.79870  0.74500  0.25830  Biso   1.000  O
  O39      1.0000 0.50500  0.54870  0.50830  Biso   1.000  O
  O40      1.0000 0.99500  0.45130  0.00830  Biso   1.000  O
  O41      1.0000 0.29870  0.75500  0.74170  Biso   1.000  O
  O42      1.0000 0.20130  0.24500  0.24170  Biso   1.000  O
  O43      1.0000 0.49500  0.04870  0.99170  Biso   1.000  O
  O44      1.0000 0.00500  0.95130  0.49170  Biso   1.000  O
  O45      1.0000 0.20130  0.75500  0.25830  Biso   1.000  O
  O46      1.0000 0.29870  0.24500  0.75830  Biso   1.000  O
  O47      1.0000 0.00500  0.04870  0.00830  Biso   1.000  O
  O48      1.0000 0.49500  0.95130  0.50830  Biso   1.000  O
  O49      1.0000 0.20130  0.74500  0.75830  Biso   1.000  O
  O50      1.0000 0.29870  0.25500  0.25830  Biso   1.000  O
  O51      1.0000 0.50500  0.95130  0.00830  Biso   1.000  O
  O52      1.0000 0.99500  0.04870  0.50830  Biso   1.000  O
  O53      1.0000 0.29870  0.74500  0.24170  Biso   1.000  O
  O54      1.0000 0.20130  0.25500  0.74170  Biso   1.000  O
  O55      1.0000 0.99500  0.95130  0.99170  Biso   1.000  O
  O56      1.0000 0.50500  0.04870  0.49170  Biso   1.000  O
  O57      1.0000 0.70130  0.24500  0.25830  Biso   1.000  O
  O58      1.0000 0.79870  0.75500  0.75830  Biso   1.000  O
  O59      1.0000 0.00500  0.45130  0.50830  Biso   1.000  O
  O60      1.0000 0.49500  0.54870  0.00830  Biso   1.000  O
  O61      1.0000 0.79870  0.24500  0.74170  Biso   1.000  O
  O62      1.0000 0.70130  0.75500  0.24170  Biso   1.000  O
  O63      1.0000 0.49500  0.45130  0.49170  Biso   1.000  O
  O64      1.0000 0.00500  0.54870  0.99170  Biso   1.000  O
  S1       1.0000 0.82450  0.24480  0.17080  Biso   1.000  S
  S2       1.0000 0.67550  0.75520  0.67080  Biso   1.000  S
  S3       1.0000 0.00520  0.57450  0.42080  Biso   1.000  S
  S4       1.0000 0.49480  0.42550  0.92080  Biso   1.000  S
  S5       1.0000 0.67550  0.24480  0.82920  Biso   1.000  S
  S6       1.0000 0.82450  0.75520  0.32920  Biso   1.000  S
  S7       1.0000 0.49480  0.57450  0.57920  Biso   1.000  S
  S8       1.0000 0.00520  0.42550  0.07920  Biso   1.000  S
  S9       1.0000 0.32450  0.74480  0.67080  Biso   1.000  S
  S10      1.0000 0.17550  0.25520  0.17080  Biso   1.000  S
  S11      1.0000 0.50520  0.07450  0.92080  Biso   1.000  S
  S12      1.0000 0.99480  0.92550  0.42080  Biso   1.000  S
  S13      1.0000 0.17550  0.74480  0.32920  Biso   1.000  S
  S14      1.0000 0.32450  0.25520  0.82920  Biso   1.000  S
  S15      1.0000 0.99480  0.07450  0.07920  Biso   1.000  S
  S16      1.0000 0.50520  0.92550  0.57920  Biso   1.000  S
  S17      1.0000 0.17550  0.75520  0.82920  Biso   1.000  S
  S18      1.0000 0.32450  0.24480  0.32920  Biso   1.000  S
  S19      1.0000 0.49480  0.92550  0.07920  Biso   1.000  S
  S20      1.0000 0.00520  0.07450  0.57920  Biso   1.000  S
  S21      1.0000 0.32450  0.75520  0.17080  Biso   1.000  S
  S22      1.0000 0.17550  0.24480  0.67080  Biso   1.000  S
  S23      1.0000 0.00520  0.92550  0.92080  Biso   1.000  S
  S24      1.0000 0.49480  0.07450  0.42080  Biso   1.000  S
  S25      1.0000 0.67550  0.25520  0.32920  Biso   1.000  S
  S26      1.0000 0.82450  0.74480  0.82920  Biso   1.000  S
  S27      1.0000 0.99480  0.42550  0.57920  Biso   1.000  S
  S28      1.0000 0.50520  0.57450  0.07920  Biso   1.000  S
  S29      1.0000 0.82450  0.25520  0.67080  Biso   1.000  S
  S30      1.0000 0.67550  0.74480  0.17080  Biso   1.000  S
  S31      1.0000 0.50520  0.42550  0.42080  Biso   1.000  S
  S32      1.0000 0.99480  0.57450  0.92080  Biso   1.000  S
  O65      1.0000 0.84420  0.19620  0.16840  Biso   1.000  O
  O66      1.0000 0.65580  0.80380  0.66840  Biso   1.000  O
  O67      1.0000 0.05380  0.59420  0.41840  Biso   1.000  O
  O68      1.0000 0.44620  0.40580  0.91840  Biso   1.000  O
  O69      1.0000 0.65580  0.19620  0.83160  Biso   1.000  O
  O70      1.0000 0.84420  0.80380  0.33160  Biso   1.000  O
  O71      1.0000 0.44620  0.59420  0.58160  Biso   1.000  O
  O72      1.0000 0.05380  0.40580  0.08160  Biso   1.000  O
  O73      1.0000 0.34420  0.69620  0.66840  Biso   1.000  O
  O74      1.0000 0.15580  0.30380  0.16840  Biso   1.000  O
  O75      1.0000 0.55380  0.09420  0.91840  Biso   1.000  O
  O76      1.0000 0.94620  0.90580  0.41840  Biso   1.000  O
  O77      1.0000 0.15580  0.69620  0.33160  Biso   1.000  O
  O78      1.0000 0.34420  0.30380  0.83160  Biso   1.000  O
  O79      1.0000 0.94620  0.09420  0.08160  Biso   1.000  O
  O80      1.0000 0.55380  0.90580  0.58160  Biso   1.000  O
  O81      1.0000 0.15580  0.80380  0.83160  Biso   1.000  O
  O82      1.0000 0.34420  0.19620  0.33160  Biso   1.000  O
  O83      1.0000 0.44620  0.90580  0.08160  Biso   1.000  O
  O84      1.0000 0.05380  0.09420  0.58160  Biso   1.000  O
  O85      1.0000 0.34420  0.80380  0.16840  Biso   1.000  O
  O86      1.0000 0.15580  0.19620  0.66840  Biso   1.000  O
  O87      1.0000 0.05380  0.90580  0.91840  Biso   1.000  O
  O88      1.0000 0.44620  0.09420  0.41840  Biso   1.000  O
  O89      1.0000 0.65580  0.30380  0.33160  Biso   1.000  O
  O90      1.0000 0.84420  0.69620  0.83160  Biso   1.000  O
  O91      1.0000 0.94620  0.40580  0.58160  Biso   1.000  O
  O92      1.0000 0.55380  0.59420  0.08160  Biso   1.000  O
  O93      1.0000 0.84420  0.30380  0.66840  Biso   1.000  O
  O94      1.0000 0.65580  0.69620  0.16840  Biso   1.000  O
  O95      1.0000 0.55380  0.40580  0.41840  Biso   1.000  O
  O96      1.0000 0.94620  0.59420  0.91840  Biso   1.000  O
  C321     1.0000 0.88170  0.26960  0.17030  Biso   1.000  C
  C322     1.0000 0.61830  0.73040  0.67030  Biso   1.000  C
  C323     1.0000 0.98040  0.63170  0.42030  Biso   1.000  C
  C324     1.0000 0.51960  0.36830  0.92030  Biso   1.000  C
  C325     1.0000 0.61830  0.26960  0.82970  Biso   1.000  C
  C326     1.0000 0.88170  0.73040  0.32970  Biso   1.000  C
  C327     1.0000 0.51960  0.63170  0.57970  Biso   1.000  C
  C328     1.0000 0.98040  0.36830  0.07970  Biso   1.000  C
  C329     1.0000 0.38170  0.76960  0.67030  Biso   1.000  C
  C330     1.0000 0.11830  0.23040  0.17030  Biso   1.000  C
  C331     1.0000 0.48040  0.13170  0.92030  Biso   1.000  C
  C332     1.0000 0.01960  0.86830  0.42030  Biso   1.000  C
  C333     1.0000 0.11830  0.76960  0.32970  Biso   1.000  C
  C334     1.0000 0.38170  0.23040  0.82970  Biso   1.000  C
  C335     1.0000 0.01960  0.13170  0.07970  Biso   1.000  C
  C336     1.0000 0.48040  0.86830  0.57970  Biso   1.000  C
  C337     1.0000 0.11830  0.73040  0.82970  Biso   1.000  C
  C338     1.0000 0.38170  0.26960  0.32970  Biso   1.000  C
  C339     1.0000 0.51960  0.86830  0.07970  Biso   1.000  C
  C340     1.0000 0.98040  0.13170  0.57970  Biso   1.000  C
  C341     1.0000 0.38170  0.73040  0.17030  Biso   1.000  C
  C342     1.0000 0.11830  0.26960  0.67030  Biso   1.000  C
  C343     1.0000 0.98040  0.86830  0.92030  Biso   1.000  C
  C344     1.0000 0.51960  0.13170  0.42030  Biso   1.000  C
  C345     1.0000 0.61830  0.23040  0.32970  Biso   1.000  C
  C346     1.0000 0.88170  0.76960  0.82970  Biso   1.000  C
  C347     1.0000 0.01960  0.36830  0.57970  Biso   1.000  C
  C348     1.0000 0.48040  0.63170  0.07970  Biso   1.000  C
  C349     1.0000 0.88170  0.23040  0.67030  Biso   1.000  C
  C350     1.0000 0.61830  0.76960  0.17030  Biso   1.000  C
  C351     1.0000 0.48040  0.36830  0.42030  Biso   1.000  C
  C352     1.0000 0.01960  0.63170  0.92030  Biso   1.000  C
  F1       1.0000 0.90660  0.24500  0.12000  Biso   1.000  F
  F2       1.0000 0.59340  0.75500  0.62000  Biso   1.000  F
  F3       1.0000 0.00500  0.65660  0.37000  Biso   1.000  F
  F4       1.0000 0.49500  0.34340  0.87000  Biso   1.000  F
  F5       1.0000 0.59340  0.24500  0.88000  Biso   1.000  F
  F6       1.0000 0.90660  0.75500  0.38000  Biso   1.000  F
  F7       1.0000 0.49500  0.65660  0.63000  Biso   1.000  F
  F8       1.0000 0.00500  0.34340  0.13000  Biso   1.000  F
  F9       1.0000 0.40660  0.74500  0.62000  Biso   1.000  F
  F10      1.0000 0.09340  0.25500  0.12000  Biso   1.000  F
  F11      1.0000 0.50500  0.15660  0.87000  Biso   1.000  F
  F12      1.0000 0.99500  0.84340  0.37000  Biso   1.000  F
  F13      1.0000 0.09340  0.74500  0.38000  Biso   1.000  F
  F14      1.0000 0.40660  0.25500  0.88000  Biso   1.000  F
  F15      1.0000 0.99500  0.15660  0.13000  Biso   1.000  F
  F16      1.0000 0.50500  0.84340  0.63000  Biso   1.000  F
  F17      1.0000 0.09340  0.75500  0.88000  Biso   1.000  F
  F18      1.0000 0.40660  0.24500  0.38000  Biso   1.000  F
  F19      1.0000 0.49500  0.84340  0.13000  Biso   1.000  F
  F20      1.0000 0.00500  0.15660  0.63000  Biso   1.000  F
  F21      1.0000 0.40660  0.75500  0.12000  Biso   1.000  F
  F22      1.0000 0.09340  0.24500  0.62000  Biso   1.000  F
  F23      1.0000 0.00500  0.84340  0.87000  Biso   1.000  F
  F24      1.0000 0.49500  0.15660  0.37000  Biso   1.000  F
  F25      1.0000 0.59340  0.25500  0.38000  Biso   1.000  F
  F26      1.0000 0.90660  0.74500  0.88000  Biso   1.000  F
  F27      1.0000 0.99500  0.34340  0.63000  Biso   1.000  F
  F28      1.0000 0.50500  0.65660  0.13000  Biso   1.000  F
  F29      1.0000 0.90660  0.25500  0.62000  Biso   1.000  F
  F30      1.0000 0.59340  0.74500  0.12000  Biso   1.000  F
  F31      1.0000 0.50500  0.34340  0.37000  Biso   1.000  F
  F32      1.0000 0.99500  0.65660  0.87000  Biso   1.000  F
  F33      1.0000 0.89040  0.25570  0.23920  Biso   1.000  F
  F34      1.0000 0.60960  0.74430  0.73920  Biso   1.000  F
  F35      1.0000 0.99430  0.64040  0.48920  Biso   1.000  F
  F36      1.0000 0.50570  0.35960  0.98920  Biso   1.000  F
  F37      1.0000 0.60960  0.25570  0.76080  Biso   1.000  F
  F38      1.0000 0.89040  0.74430  0.26080  Biso   1.000  F
  F39      1.0000 0.50570  0.64040  0.51080  Biso   1.000  F
  F40      1.0000 0.99430  0.35960  0.01080  Biso   1.000  F
  F41      1.0000 0.39040  0.75570  0.73920  Biso   1.000  F
  F42      1.0000 0.10960  0.24430  0.23920  Biso   1.000  F
  F43      1.0000 0.49430  0.14040  0.98920  Biso   1.000  F
  F44      1.0000 0.00570  0.85960  0.48920  Biso   1.000  F
  F45      1.0000 0.10960  0.75570  0.26080  Biso   1.000  F
  F46      1.0000 0.39040  0.24430  0.76080  Biso   1.000  F
  F47      1.0000 0.00570  0.14040  0.01080  Biso   1.000  F
  F48      1.0000 0.49430  0.85960  0.51080  Biso   1.000  F
  F49      1.0000 0.10960  0.74430  0.76080  Biso   1.000  F
  F50      1.0000 0.39040  0.25570  0.26080  Biso   1.000  F
  F51      1.0000 0.50570  0.85960  0.01080  Biso   1.000  F
  F52      1.0000 0.99430  0.14040  0.51080  Biso   1.000  F
  F53      1.0000 0.39040  0.74430  0.23920  Biso   1.000  F
  F54      1.0000 0.10960  0.25570  0.73920  Biso   1.000  F
  F55      1.0000 0.99430  0.85960  0.98920  Biso   1.000  F
  F56      1.0000 0.50570  0.14040  0.48920  Biso   1.000  F
  F57      1.0000 0.60960  0.24430  0.26080  Biso   1.000  F
  F58      1.0000 0.89040  0.75570  0.76080  Biso   1.000  F
  F59      1.0000 0.00570  0.35960  0.51080  Biso   1.000  F
  F60      1.0000 0.49430  0.64040  0.01080  Biso   1.000  F
  F61      1.0000 0.89040  0.24430  0.73920  Biso   1.000  F
  F62      1.0000 0.60960  0.75570  0.23920  Biso   1.000  F
  F63      1.0000 0.49430  0.35960  0.48920  Biso   1.000  F
  F64      1.0000 0.00570  0.64040  0.98920  Biso   1.000  F
  F65      1.0000 0.88380  0.31760  0.16180  Biso   1.000  F
  F66      1.0000 0.61620  0.68240  0.66180  Biso   1.000  F
  F67      1.0000 0.93240  0.63380  0.41180  Biso   1.000  F
  F68      1.0000 0.56760  0.36620  0.91180  Biso   1.000  F
  F69      1.0000 0.61620  0.31760  0.83820  Biso   1.000  F
  F70      1.0000 0.88380  0.68240  0.33820  Biso   1.000  F
  F71      1.0000 0.56760  0.63380  0.58820  Biso   1.000  F
  F72      1.0000 0.93240  0.36620  0.08820  Biso   1.000  F
  F73      1.0000 0.38380  0.81760  0.66180  Biso   1.000  F
  F74      1.0000 0.11620  0.18240  0.16180  Biso   1.000  F
  F75      1.0000 0.43240  0.13380  0.91180  Biso   1.000  F
  F76      1.0000 0.06760  0.86620  0.41180  Biso   1.000  F
  F77      1.0000 0.11620  0.81760  0.33820  Biso   1.000  F
  F78      1.0000 0.38380  0.18240  0.83820  Biso   1.000  F
  F79      1.0000 0.06760  0.13380  0.08820  Biso   1.000  F
  F80      1.0000 0.43240  0.86620  0.58820  Biso   1.000  F
  F81      1.0000 0.11620  0.68240  0.83820  Biso   1.000  F
  F82      1.0000 0.38380  0.31760  0.33820  Biso   1.000  F
  F83      1.0000 0.56760  0.86620  0.08820  Biso   1.000  F
  F84      1.0000 0.93240  0.13380  0.58820  Biso   1.000  F
  F85      1.0000 0.38380  0.68240  0.16180  Biso   1.000  F
  F86      1.0000 0.11620  0.31760  0.66180  Biso   1.000  F
  F87      1.0000 0.93240  0.86620  0.91180  Biso   1.000  F
  F88      1.0000 0.56760  0.13380  0.41180  Biso   1.000  F
  F89      1.0000 0.61620  0.18240  0.33820  Biso   1.000  F
  F90      1.0000 0.88380  0.81760  0.83820  Biso   1.000  F
  F91      1.0000 0.06760  0.36620  0.58820  Biso   1.000  F
  F92      1.0000 0.43240  0.63380  0.08820  Biso   1.000  F
  F93      1.0000 0.88380  0.18240  0.66180  Biso   1.000  F
  F94      1.0000 0.61620  0.81760  0.16180  Biso   1.000  F
  F95      1.0000 0.43240  0.36620  0.41180  Biso   1.000  F
  F96      1.0000 0.06760  0.63380  0.91180  Biso   1.000  F
  S33      1.0000 0.82057  0.27410  0.17490  Biso   1.000  S
  S34      1.0000 0.67943  0.72590  0.67490  Biso   1.000  S
  S35      1.0000 0.97590  0.57057  0.42490  Biso   1.000  S
  S36      1.0000 0.52410  0.42943  0.92490  Biso   1.000  S
  S37      1.0000 0.67943  0.27410  0.82510  Biso   1.000  S
  S38      1.0000 0.82057  0.72590  0.32510  Biso   1.000  S
  S39      1.0000 0.52410  0.57057  0.57510  Biso   1.000  S
  S40      1.0000 0.97590  0.42943  0.07510  Biso   1.000  S
  S41      1.0000 0.32057  0.77410  0.67490  Biso   1.000  S
  S42      1.0000 0.17943  0.22590  0.17490  Biso   1.000  S
  S43      1.0000 0.47590  0.07057  0.92490  Biso   1.000  S
  S44      1.0000 0.02410  0.92943  0.42490  Biso   1.000  S
  S45      1.0000 0.17943  0.77410  0.32510  Biso   1.000  S
  S46      1.0000 0.32057  0.22590  0.82510  Biso   1.000  S
  S47      1.0000 0.02410  0.07057  0.07510  Biso   1.000  S
  S48      1.0000 0.47590  0.92943  0.57510  Biso   1.000  S
  S49      1.0000 0.17943  0.72590  0.82510  Biso   1.000  S
  S50      1.0000 0.32057  0.27410  0.32510  Biso   1.000  S
  S51      1.0000 0.52410  0.92943  0.07510  Biso   1.000  S
  S52      1.0000 0.97590  0.07057  0.57510  Biso   1.000  S
  S53      1.0000 0.32057  0.72590  0.17490  Biso   1.000  S
  S54      1.0000 0.17943  0.27410  0.67490  Biso   1.000  S
  S55      1.0000 0.97590  0.92943  0.92490  Biso   1.000  S
  S56      1.0000 0.52410  0.07057  0.42490  Biso   1.000  S
  S57      1.0000 0.67943  0.22590  0.32510  Biso   1.000  S
  S58      1.0000 0.82057  0.77410  0.82510  Biso   1.000  S
  S59      1.0000 0.02410  0.42943  0.57510  Biso   1.000  S
  S60      1.0000 0.47590  0.57057  0.07510  Biso   1.000  S
  S61      1.0000 0.82057  0.22590  0.67490  Biso   1.000  S
  S62      1.0000 0.67943  0.77410  0.17490  Biso   1.000  S
  S63      1.0000 0.47590  0.42943  0.42490  Biso   1.000  S
  S64      1.0000 0.02410  0.57057  0.92490  Biso   1.000  S
  O97      1.0000 0.81380  0.32410  0.18470  Biso   1.000  O
  O98      1.0000 0.68620  0.67590  0.68470  Biso   1.000  O
  O99      1.0000 0.92590  0.56380  0.43470  Biso   1.000  O
  O100     1.0000 0.57410  0.43620  0.93470  Biso   1.000  O
  O101     1.0000 0.68620  0.32410  0.81530  Biso   1.000  O
  O102     1.0000 0.81380  0.67590  0.31530  Biso   1.000  O
  O103     1.0000 0.57410  0.56380  0.56530  Biso   1.000  O
  O104     1.0000 0.92590  0.43620  0.06530  Biso   1.000  O
  O105     1.0000 0.31380  0.82410  0.68470  Biso   1.000  O
  O106     1.0000 0.18620  0.17590  0.18470  Biso   1.000  O
  O107     1.0000 0.42590  0.06380  0.93470  Biso   1.000  O
  O108     1.0000 0.07410  0.93620  0.43470  Biso   1.000  O
  O109     1.0000 0.18620  0.82410  0.31530  Biso   1.000  O
  O110     1.0000 0.31380  0.17590  0.81530  Biso   1.000  O
  O111     1.0000 0.07410  0.06380  0.06530  Biso   1.000  O
  O112     1.0000 0.42590  0.93620  0.56530  Biso   1.000  O
  O113     1.0000 0.18620  0.67590  0.81530  Biso   1.000  O
  O114     1.0000 0.31380  0.32410  0.31530  Biso   1.000  O
  O115     1.0000 0.57410  0.93620  0.06530  Biso   1.000  O
  O116     1.0000 0.92590  0.06380  0.56530  Biso   1.000  O
  O117     1.0000 0.31380  0.67590  0.18470  Biso   1.000  O
  O118     1.0000 0.18620  0.32410  0.68470  Biso   1.000  O
  O119     1.0000 0.92590  0.93620  0.93470  Biso   1.000  O
  O120     1.0000 0.57410  0.06380  0.43470  Biso   1.000  O
  O121     1.0000 0.68620  0.17590  0.31530  Biso   1.000  O
  O122     1.0000 0.81380  0.82410  0.81530  Biso   1.000  O
  O123     1.0000 0.07410  0.43620  0.56530  Biso   1.000  O
  O124     1.0000 0.42590  0.56380  0.06530  Biso   1.000  O
  O125     1.0000 0.81380  0.17590  0.68470  Biso   1.000  O
  O126     1.0000 0.68620  0.82410  0.18470  Biso   1.000  O
  O127     1.0000 0.42590  0.43620  0.43470  Biso   1.000  O
  O128     1.0000 0.07410  0.56380  0.93470  Biso   1.000  O
  C353     1.0000 0.88170  0.26660  0.16750  Biso   1.000  C
  C354     1.0000 0.61830  0.73340  0.66750  Biso   1.000  C
  C355     1.0000 0.98340  0.63170  0.41750  Biso   1.000  C
  C356     1.0000 0.51660  0.36830  0.91750  Biso   1.000  C
  C357     1.0000 0.61830  0.26660  0.83250  Biso   1.000  C
  C358     1.0000 0.88170  0.73340  0.33250  Biso   1.000  C
  C359     1.0000 0.51660  0.63170  0.58250  Biso   1.000  C
  C360     1.0000 0.98340  0.36830  0.08250  Biso   1.000  C
  C361     1.0000 0.38170  0.76660  0.66750  Biso   1.000  C
  C362     1.0000 0.11830  0.23340  0.16750  Biso   1.000  C
  C363     1.0000 0.48340  0.13170  0.91750  Biso   1.000  C
  C364     1.0000 0.01660  0.86830  0.41750  Biso   1.000  C
  C365     1.0000 0.11830  0.76660  0.33250  Biso   1.000  C
  C366     1.0000 0.38170  0.23340  0.83250  Biso   1.000  C
  C367     1.0000 0.01660  0.13170  0.08250  Biso   1.000  C
  C368     1.0000 0.48340  0.86830  0.58250  Biso   1.000  C
  C369     1.0000 0.11830  0.73340  0.83250  Biso   1.000  C
  C370     1.0000 0.38170  0.26660  0.33250  Biso   1.000  C
  C371     1.0000 0.51660  0.86830  0.08250  Biso   1.000  C
  C372     1.0000 0.98340  0.13170  0.58250  Biso   1.000  C
  C373     1.0000 0.38170  0.73340  0.16750  Biso   1.000  C
  C374     1.0000 0.11830  0.26660  0.66750  Biso   1.000  C
  C375     1.0000 0.98340  0.86830  0.91750  Biso   1.000  C
  C376     1.0000 0.51660  0.13170  0.41750  Biso   1.000  C
  C377     1.0000 0.61830  0.23340  0.33250  Biso   1.000  C
  C378     1.0000 0.88170  0.76660  0.83250  Biso   1.000  C
  C379     1.0000 0.01660  0.36830  0.58250  Biso   1.000  C
  C380     1.0000 0.48340  0.63170  0.08250  Biso   1.000  C
  C381     1.0000 0.88170  0.23340  0.66750  Biso   1.000  C
  C382     1.0000 0.61830  0.76660  0.16750  Biso   1.000  C
  C383     1.0000 0.48340  0.36830  0.41750  Biso   1.000  C
  C384     1.0000 0.01660  0.63170  0.91750  Biso   1.000  C
  F97      1.0000 0.88980  0.21460  0.17120  Biso   1.000  F
  F98      1.0000 0.61020  0.78540  0.67120  Biso   1.000  F
  F99      1.0000 0.03540  0.63980  0.42120  Biso   1.000  F
  F100     1.0000 0.46460  0.36020  0.92120  Biso   1.000  F
  F101     1.0000 0.61020  0.21460  0.82880  Biso   1.000  F
  F102     1.0000 0.88980  0.78540  0.32880  Biso   1.000  F
  F103     1.0000 0.46460  0.63980  0.57880  Biso   1.000  F
  F104     1.0000 0.03540  0.36020  0.07880  Biso   1.000  F
  F105     1.0000 0.38980  0.71460  0.67120  Biso   1.000  F
  F106     1.0000 0.11020  0.28540  0.17120  Biso   1.000  F
  F107     1.0000 0.53540  0.13980  0.92120  Biso   1.000  F
  F108     1.0000 0.96460  0.86020  0.42120  Biso   1.000  F
  F109     1.0000 0.11020  0.71460  0.32880  Biso   1.000  F
  F110     1.0000 0.38980  0.28540  0.82880  Biso   1.000  F
  F111     1.0000 0.96460  0.13980  0.07880  Biso   1.000  F
  F112     1.0000 0.53540  0.86020  0.57880  Biso   1.000  F
  F113     1.0000 0.11020  0.78540  0.82880  Biso   1.000  F
  F114     1.0000 0.38980  0.21460  0.32880  Biso   1.000  F
  F115     1.0000 0.46460  0.86020  0.07880  Biso   1.000  F
  F116     1.0000 0.03540  0.13980  0.57880  Biso   1.000  F
  F117     1.0000 0.38980  0.78540  0.17120  Biso   1.000  F
  F118     1.0000 0.11020  0.21460  0.67120  Biso   1.000  F
  F119     1.0000 0.03540  0.86020  0.92120  Biso   1.000  F
  F120     1.0000 0.46460  0.13980  0.42120  Biso   1.000  F
  F121     1.0000 0.61020  0.28540  0.32880  Biso   1.000  F
  F122     1.0000 0.88980  0.71460  0.82880  Biso   1.000  F
  F123     1.0000 0.96460  0.36020  0.57880  Biso   1.000  F
  F124     1.0000 0.53540  0.63980  0.07880  Biso   1.000  F
  F125     1.0000 0.88980  0.28540  0.67120  Biso   1.000  F
  F126     1.0000 0.61020  0.71460  0.17120  Biso   1.000  F
  F127     1.0000 0.53540  0.36020  0.42120  Biso   1.000  F
  F128     1.0000 0.96460  0.63980  0.92120  Biso   1.000  F
  F129     1.0000 0.91950  0.28610  0.21520  Biso   1.000  F
  F130     1.0000 0.58050  0.71390  0.71520  Biso   1.000  F
  F131     1.0000 0.96390  0.66950  0.46520  Biso   1.000  F
  F132     1.0000 0.53610  0.33050  0.96520  Biso   1.000  F
  F133     1.0000 0.58050  0.28610  0.78480  Biso   1.000  F
  F134     1.0000 0.91950  0.71390  0.28480  Biso   1.000  F
  F135     1.0000 0.53610  0.66950  0.53480  Biso   1.000  F
  F136     1.0000 0.96390  0.33050  0.03480  Biso   1.000  F
  F137     1.0000 0.41950  0.78610  0.71520  Biso   1.000  F
  F138     1.0000 0.08050  0.21390  0.21520  Biso   1.000  F
  F139     1.0000 0.46390  0.16950  0.96520  Biso   1.000  F
  F140     1.0000 0.03610  0.83050  0.46520  Biso   1.000  F
  F141     1.0000 0.08050  0.78610  0.28480  Biso   1.000  F
  F142     1.0000 0.41950  0.21390  0.78480  Biso   1.000  F
  F143     1.0000 0.03610  0.16950  0.03480  Biso   1.000  F
  F144     1.0000 0.46390  0.83050  0.53480  Biso   1.000  F
  F145     1.0000 0.08050  0.71390  0.78480  Biso   1.000  F
  F146     1.0000 0.41950  0.28610  0.28480  Biso   1.000  F
  F147     1.0000 0.53610  0.83050  0.03480  Biso   1.000  F
  F148     1.0000 0.96390  0.16950  0.53480  Biso   1.000  F
  F149     1.0000 0.41950  0.71390  0.21520  Biso   1.000  F
  F150     1.0000 0.08050  0.28610  0.71520  Biso   1.000  F
  F151     1.0000 0.96390  0.83050  0.96520  Biso   1.000  F
  F152     1.0000 0.53610  0.16950  0.46520  Biso   1.000  F
  F153     1.0000 0.58050  0.21390  0.28480  Biso   1.000  F
  F154     1.0000 0.91950  0.78610  0.78480  Biso   1.000  F
  F155     1.0000 0.03610  0.33050  0.53480  Biso   1.000  F
  F156     1.0000 0.46390  0.66950  0.03480  Biso   1.000  F
  F157     1.0000 0.91950  0.21390  0.71520  Biso   1.000  F
  F158     1.0000 0.58050  0.78610  0.21520  Biso   1.000  F
  F159     1.0000 0.46390  0.33050  0.46520  Biso   1.000  F
  F160     1.0000 0.03610  0.66950  0.96520  Biso   1.000  F
  F161     1.0000 0.90000  0.27890  0.09400  Biso   1.000  F
  F162     1.0000 0.60000  0.72110  0.59400  Biso   1.000  F
  F163     1.0000 0.97110  0.65000  0.34400  Biso   1.000  F
  F164     1.0000 0.52890  0.35000  0.84400  Biso   1.000  F
  F165     1.0000 0.60000  0.27890  0.90600  Biso   1.000  F
  F166     1.0000 0.90000  0.72110  0.40600  Biso   1.000  F
  F167     1.0000 0.52890  0.65000  0.65600  Biso   1.000  F
  F168     1.0000 0.97110  0.35000  0.15600  Biso   1.000  F
  F169     1.0000 0.40000  0.77890  0.59400  Biso   1.000  F
  F170     1.0000 0.10000  0.22110  0.09400  Biso   1.000  F
  F171     1.0000 0.47110  0.15000  0.84400  Biso   1.000  F
  F172     1.0000 0.02890  0.85000  0.34400  Biso   1.000  F
  F173     1.0000 0.10000  0.77890  0.40600  Biso   1.000  F
  F174     1.0000 0.40000  0.22110  0.90600  Biso   1.000  F
  F175     1.0000 0.02890  0.15000  0.15600  Biso   1.000  F
  F176     1.0000 0.47110  0.85000  0.65600  Biso   1.000  F
  F177     1.0000 0.10000  0.72110  0.90600  Biso   1.000  F
  F178     1.0000 0.40000  0.27890  0.40600  Biso   1.000  F
  F179     1.0000 0.52890  0.85000  0.15600  Biso   1.000  F
  F180     1.0000 0.97110  0.15000  0.65600  Biso   1.000  F
  F181     1.0000 0.40000  0.72110  0.09400  Biso   1.000  F
  F182     1.0000 0.10000  0.27890  0.59400  Biso   1.000  F
  F183     1.0000 0.97110  0.85000  0.84400  Biso   1.000  F
  F184     1.0000 0.52890  0.15000  0.34400  Biso   1.000  F
  F185     1.0000 0.60000  0.22110  0.40600  Biso   1.000  F
  F186     1.0000 0.90000  0.77890  0.90600  Biso   1.000  F
  F187     1.0000 0.02890  0.35000  0.65600  Biso   1.000  F
  F188     1.0000 0.47110  0.65000  0.15600  Biso   1.000  F
  F189     1.0000 0.90000  0.22110  0.59400  Biso   1.000  F
  F190     1.0000 0.60000  0.77890  0.09400  Biso   1.000  F
  F191     1.0000 0.47110  0.35000  0.34400  Biso   1.000  F
  F192     1.0000 0.02890  0.65000  0.84400  Biso   1.000  F
