data_image0
_cell_length_a       28.576
_cell_length_b       28.576
_cell_length_c       17.986
_cell_angle_alpha    90
_cell_angle_beta     90
_cell_angle_gamma    90

_symmetry_space_group_name_H-M    "P 1"
_symmetry_int_tables_number       1

loop_
  _symmetry_equiv_pos_as_xyz
  'x, y, z'

loop_
  _atom_site_label
  _atom_site_occupancy
  _atom_site_fract_x
  _atom_site_fract_y
  _atom_site_fract_z
  _atom_site_thermal_displace_type
  _atom_site_B_iso_or_equiv
  _atom_site_type_symbol
  O1       1.0000 0.31640  0.10640  0.33160  Biso   1.000  O
  O2       1.0000 0.18360  0.89360  0.83160  Biso   1.000  O
  O3       1.0000 0.14360  0.06640  0.58160  Biso   1.000  O
  O4       1.0000 0.35640  0.93360  0.08160  Biso   1.000  O
  O5       1.0000 0.18360  0.10640  0.66840  Biso   1.000  O
  O6       1.0000 0.31640  0.89360  0.16840  Biso   1.000  O
  O7       1.0000 0.35640  0.06640  0.41840  Biso   1.000  O
  O8       1.0000 0.14360  0.93360  0.91840  Biso   1.000  O
  O9       1.0000 0.81640  0.60640  0.83160  Biso   1.000  O
  O10      1.0000 0.68360  0.39360  0.33160  Biso   1.000  O
  O11      1.0000 0.64360  0.56640  0.08160  Biso   1.000  O
  O12      1.0000 0.85640  0.43360  0.58160  Biso   1.000  O
  O13      1.0000 0.68360  0.60640  0.16840  Biso   1.000  O
  O14      1.0000 0.81640  0.39360  0.66840  Biso   1.000  O
  O15      1.0000 0.85640  0.56640  0.91840  Biso   1.000  O
  O16      1.0000 0.64360  0.43360  0.41840  Biso   1.000  O
  O17      1.0000 0.68360  0.89360  0.66840  Biso   1.000  O
  O18      1.0000 0.81640  0.10640  0.16840  Biso   1.000  O
  O19      1.0000 0.35640  0.43360  0.91840  Biso   1.000  O
  O20      1.0000 0.14360  0.56640  0.41840  Biso   1.000  O
  O21      1.0000 0.81640  0.89360  0.33160  Biso   1.000  O
  O22      1.0000 0.68360  0.10640  0.83160  Biso   1.000  O
  O23      1.0000 0.14360  0.43360  0.08160  Biso   1.000  O
  O24      1.0000 0.35640  0.56640  0.58160  Biso   1.000  O
  O25      1.0000 0.18360  0.39360  0.16840  Biso   1.000  O
  O26      1.0000 0.31640  0.60640  0.66840  Biso   1.000  O
  O27      1.0000 0.85640  0.93360  0.41840  Biso   1.000  O
  O28      1.0000 0.64360  0.06640  0.91840  Biso   1.000  O
  O29      1.0000 0.31640  0.39360  0.83160  Biso   1.000  O
  O30      1.0000 0.18360  0.60640  0.33160  Biso   1.000  O
  O31      1.0000 0.64360  0.93360  0.58160  Biso   1.000  O
  O32      1.0000 0.85640  0.06640  0.08160  Biso   1.000  O
  O33      1.0000 0.95920  0.77130  0.12600  Biso   1.000  O
  O34      1.0000 0.54080  0.22870  0.62600  Biso   1.000  O
  O35      1.0000 0.47870  0.70920  0.37600  Biso   1.000  O
  O36      1.0000 0.02130  0.29080  0.87600  Biso   1.000  O
  O37      1.0000 0.54080  0.77130  0.87400  Biso   1.000  O
  O38      1.0000 0.95920  0.22870  0.37400  Biso   1.000  O
  O39      1.0000 0.02130  0.70920  0.62400  Biso   1.000  O
  O40      1.0000 0.47870  0.29080  0.12400  Biso   1.000  O
  O41      1.0000 0.45920  0.27130  0.62600  Biso   1.000  O
  O42      1.0000 0.04080  0.72870  0.12600  Biso   1.000  O
  O43      1.0000 0.97870  0.20920  0.87600  Biso   1.000  O
  O44      1.0000 0.52130  0.79080  0.37600  Biso   1.000  O
  O45      1.0000 0.04080  0.27130  0.37400  Biso   1.000  O
  O46      1.0000 0.45920  0.72870  0.87400  Biso   1.000  O
  O47      1.0000 0.52130  0.20920  0.12400  Biso   1.000  O
  O48      1.0000 0.97870  0.79080  0.62400  Biso   1.000  O
  O49      1.0000 0.04080  0.22870  0.87400  Biso   1.000  O
  O50      1.0000 0.45920  0.77130  0.37400  Biso   1.000  O
  O51      1.0000 0.02130  0.79080  0.12400  Biso   1.000  O
  O52      1.0000 0.47870  0.20920  0.62400  Biso   1.000  O
  O53      1.0000 0.45920  0.22870  0.12600  Biso   1.000  O
  O54      1.0000 0.04080  0.77130  0.62600  Biso   1.000  O
  O55      1.0000 0.47870  0.79080  0.87600  Biso   1.000  O
  O56      1.0000 0.02130  0.20920  0.37600  Biso   1.000  O
  O57      1.0000 0.54080  0.72870  0.37400  Biso   1.000  O
  O58      1.0000 0.95920  0.27130  0.87400  Biso   1.000  O
  O59      1.0000 0.52130  0.29080  0.62400  Biso   1.000  O
  O60      1.0000 0.97870  0.70920  0.12400  Biso   1.000  O
  O61      1.0000 0.95920  0.72870  0.62600  Biso   1.000  O
  O62      1.0000 0.54080  0.27130  0.12600  Biso   1.000  O
  O63      1.0000 0.97870  0.29080  0.37600  Biso   1.000  O
  O64      1.0000 0.52130  0.70920  0.87600  Biso   1.000  O
  Cu1      1.0000 0.75000  0.25963  0.00000  Biso   1.000  Cu
  Cu2      1.0000 0.75000  0.74037  0.50000  Biso   1.000  Cu
  Cu3      1.0000 0.99037  0.50000  0.25000  Biso   1.000  Cu
  Cu4      1.0000 0.50963  0.50000  0.75000  Biso   1.000  Cu
  Cu5      1.0000 0.25000  0.75963  0.50000  Biso   1.000  Cu
  Cu6      1.0000 0.25000  0.24037  0.00000  Biso   1.000  Cu
  Cu7      1.0000 0.49037  0.00000  0.75000  Biso   1.000  Cu
  Cu8      1.0000 0.00963  0.00000  0.25000  Biso   1.000  Cu
  Cu9      1.0000 0.25000  0.74037  0.00000  Biso   1.000  Cu
  Cu10     1.0000 0.25000  0.25963  0.50000  Biso   1.000  Cu
  Cu11     1.0000 0.50963  0.00000  0.25000  Biso   1.000  Cu
  Cu12     1.0000 0.99037  0.00000  0.75000  Biso   1.000  Cu
  Cu13     1.0000 0.75000  0.24037  0.50000  Biso   1.000  Cu
  Cu14     1.0000 0.75000  0.75963  0.00000  Biso   1.000  Cu
  Cu15     1.0000 0.00963  0.50000  0.75000  Biso   1.000  Cu
  Cu16     1.0000 0.49037  0.50000  0.25000  Biso   1.000  Cu
  N1       1.0000 0.70869  0.30864  0.04600  Biso   1.000  N
  N2       1.0000 0.79131  0.69136  0.54600  Biso   1.000  N
  N3       1.0000 0.94136  0.45869  0.29600  Biso   1.000  N
  N4       1.0000 0.55864  0.54131  0.79600  Biso   1.000  N
  N5       1.0000 0.79131  0.30864  0.95400  Biso   1.000  N
  N6       1.0000 0.70869  0.69136  0.45400  Biso   1.000  N
  N7       1.0000 0.55864  0.45869  0.70400  Biso   1.000  N
  N8       1.0000 0.94136  0.54131  0.20400  Biso   1.000  N
  N9       1.0000 0.20869  0.80864  0.54600  Biso   1.000  N
  N10      1.0000 0.29131  0.19136  0.04600  Biso   1.000  N
  N11      1.0000 0.44136  0.95869  0.79600  Biso   1.000  N
  N12      1.0000 0.05864  0.04131  0.29600  Biso   1.000  N
  N13      1.0000 0.29131  0.80864  0.45400  Biso   1.000  N
  N14      1.0000 0.20869  0.19136  0.95400  Biso   1.000  N
  N15      1.0000 0.05864  0.95869  0.20400  Biso   1.000  N
  N16      1.0000 0.44136  0.04131  0.70400  Biso   1.000  N
  N17      1.0000 0.29131  0.69136  0.95400  Biso   1.000  N
  N18      1.0000 0.20869  0.30864  0.45400  Biso   1.000  N
  N19      1.0000 0.55864  0.04131  0.20400  Biso   1.000  N
  N20      1.0000 0.94136  0.95869  0.70400  Biso   1.000  N
  N21      1.0000 0.20869  0.69136  0.04600  Biso   1.000  N
  N22      1.0000 0.29131  0.30864  0.54600  Biso   1.000  N
  N23      1.0000 0.94136  0.04131  0.79600  Biso   1.000  N
  N24      1.0000 0.55864  0.95869  0.29600  Biso   1.000  N
  N25      1.0000 0.79131  0.19136  0.45400  Biso   1.000  N
  N26      1.0000 0.70869  0.80864  0.95400  Biso   1.000  N
  N27      1.0000 0.05864  0.54131  0.70400  Biso   1.000  N
  N28      1.0000 0.44136  0.45869  0.20400  Biso   1.000  N
  N29      1.0000 0.70869  0.19136  0.54600  Biso   1.000  N
  N30      1.0000 0.79131  0.80864  0.04600  Biso   1.000  N
  N31      1.0000 0.44136  0.54131  0.29600  Biso   1.000  N
  N32      1.0000 0.05864  0.45869  0.79600  Biso   1.000  N
  C1       1.0000 0.69744  0.30569  0.11860  Biso   1.000  C
  C2       1.0000 0.80256  0.69431  0.61860  Biso   1.000  C
  C3       1.0000 0.94431  0.44744  0.36860  Biso   1.000  C
  C4       1.0000 0.55569  0.55256  0.86860  Biso   1.000  C
  C5       1.0000 0.80256  0.30569  0.88140  Biso   1.000  C
  C6       1.0000 0.69744  0.69431  0.38140  Biso   1.000  C
  C7       1.0000 0.55569  0.44744  0.63140  Biso   1.000  C
  C8       1.0000 0.94431  0.55256  0.13140  Biso   1.000  C
  C9       1.0000 0.19744  0.80569  0.61860  Biso   1.000  C
  C10      1.0000 0.30256  0.19431  0.11860  Biso   1.000  C
  C11      1.0000 0.44431  0.94744  0.86860  Biso   1.000  C
  C12      1.0000 0.05569  0.05256  0.36860  Biso   1.000  C
  C13      1.0000 0.30256  0.80569  0.38140  Biso   1.000  C
  C14      1.0000 0.19744  0.19431  0.88140  Biso   1.000  C
  C15      1.0000 0.05569  0.94744  0.13140  Biso   1.000  C
  C16      1.0000 0.44431  0.05256  0.63140  Biso   1.000  C
  C17      1.0000 0.30256  0.69431  0.88140  Biso   1.000  C
  C18      1.0000 0.19744  0.30569  0.38140  Biso   1.000  C
  C19      1.0000 0.55569  0.05256  0.13140  Biso   1.000  C
  C20      1.0000 0.94431  0.94744  0.63140  Biso   1.000  C
  C21      1.0000 0.19744  0.69431  0.11860  Biso   1.000  C
  C22      1.0000 0.30256  0.30569  0.61860  Biso   1.000  C
  C23      1.0000 0.94431  0.05256  0.86860  Biso   1.000  C
  C24      1.0000 0.55569  0.94744  0.36860  Biso   1.000  C
  C25      1.0000 0.80256  0.19431  0.38140  Biso   1.000  C
  C26      1.0000 0.69744  0.80569  0.88140  Biso   1.000  C
  C27      1.0000 0.05569  0.55256  0.63140  Biso   1.000  C
  C28      1.0000 0.44431  0.44744  0.13140  Biso   1.000  C
  C29      1.0000 0.69744  0.19431  0.61860  Biso   1.000  C
  C30      1.0000 0.80256  0.80569  0.11860  Biso   1.000  C
  C31      1.0000 0.44431  0.55256  0.36860  Biso   1.000  C
  C32      1.0000 0.05569  0.44744  0.86860  Biso   1.000  C
  H1       1.0000 0.71230  0.28270  0.14850  Biso   1.000  H
  H2       1.0000 0.78770  0.71730  0.64850  Biso   1.000  H
  H3       1.0000 0.96730  0.46230  0.39850  Biso   1.000  H
  H4       1.0000 0.53270  0.53770  0.89850  Biso   1.000  H
  H5       1.0000 0.78770  0.28270  0.85150  Biso   1.000  H
  H6       1.0000 0.71230  0.71730  0.35150  Biso   1.000  H
  H7       1.0000 0.53270  0.46230  0.60150  Biso   1.000  H
  H8       1.0000 0.96730  0.53770  0.10150  Biso   1.000  H
  H9       1.0000 0.21230  0.78270  0.64850  Biso   1.000  H
  H10      1.0000 0.28770  0.21730  0.14850  Biso   1.000  H
  H11      1.0000 0.46730  0.96230  0.89850  Biso   1.000  H
  H12      1.0000 0.03270  0.03770  0.39850  Biso   1.000  H
  H13      1.0000 0.28770  0.78270  0.35150  Biso   1.000  H
  H14      1.0000 0.21230  0.21730  0.85150  Biso   1.000  H
  H15      1.0000 0.03270  0.96230  0.10150  Biso   1.000  H
  H16      1.0000 0.46730  0.03770  0.60150  Biso   1.000  H
  H17      1.0000 0.28770  0.71730  0.85150  Biso   1.000  H
  H18      1.0000 0.21230  0.28270  0.35150  Biso   1.000  H
  H19      1.0000 0.53270  0.03770  0.10150  Biso   1.000  H
  H20      1.0000 0.96730  0.96230  0.60150  Biso   1.000  H
  H21      1.0000 0.21230  0.71730  0.14850  Biso   1.000  H
  H22      1.0000 0.28770  0.28270  0.64850  Biso   1.000  H
  H23      1.0000 0.96730  0.03770  0.89850  Biso   1.000  H
  H24      1.0000 0.53270  0.96230  0.39850  Biso   1.000  H
  H25      1.0000 0.78770  0.21730  0.35150  Biso   1.000  H
  H26      1.0000 0.71230  0.78270  0.85150  Biso   1.000  H
  H27      1.0000 0.03270  0.53770  0.60150  Biso   1.000  H
  H28      1.0000 0.46730  0.46230  0.10150  Biso   1.000  H
  H29      1.0000 0.71230  0.21730  0.64850  Biso   1.000  H
  H30      1.0000 0.78770  0.78270  0.14850  Biso   1.000  H
  H31      1.0000 0.46730  0.53770  0.39850  Biso   1.000  H
  H32      1.0000 0.03270  0.46230  0.89850  Biso   1.000  H
  C33      1.0000 0.66505  0.33506  0.15070  Biso   1.000  C
  C34      1.0000 0.83495  0.66494  0.65070  Biso   1.000  C
  C35      1.0000 0.91494  0.41505  0.40070  Biso   1.000  C
  C36      1.0000 0.58506  0.58495  0.90070  Biso   1.000  C
  C37      1.0000 0.83495  0.33506  0.84930  Biso   1.000  C
  C38      1.0000 0.66505  0.66494  0.34930  Biso   1.000  C
  C39      1.0000 0.58506  0.41505  0.59930  Biso   1.000  C
  C40      1.0000 0.91494  0.58495  0.09930  Biso   1.000  C
  C41      1.0000 0.16505  0.83506  0.65070  Biso   1.000  C
  C42      1.0000 0.33495  0.16494  0.15070  Biso   1.000  C
  C43      1.0000 0.41494  0.91505  0.90070  Biso   1.000  C
  C44      1.0000 0.08506  0.08495  0.40070  Biso   1.000  C
  C45      1.0000 0.33495  0.83506  0.34930  Biso   1.000  C
  C46      1.0000 0.16505  0.16494  0.84930  Biso   1.000  C
  C47      1.0000 0.08506  0.91505  0.09930  Biso   1.000  C
  C48      1.0000 0.41494  0.08495  0.59930  Biso   1.000  C
  C49      1.0000 0.33495  0.66494  0.84930  Biso   1.000  C
  C50      1.0000 0.16505  0.33506  0.34930  Biso   1.000  C
  C51      1.0000 0.58506  0.08495  0.09930  Biso   1.000  C
  C52      1.0000 0.91494  0.91505  0.59930  Biso   1.000  C
  C53      1.0000 0.16505  0.66494  0.15070  Biso   1.000  C
  C54      1.0000 0.33495  0.33506  0.65070  Biso   1.000  C
  C55      1.0000 0.91494  0.08495  0.90070  Biso   1.000  C
  C56      1.0000 0.58506  0.91505  0.40070  Biso   1.000  C
  C57      1.0000 0.83495  0.16494  0.34930  Biso   1.000  C
  C58      1.0000 0.66505  0.83506  0.84930  Biso   1.000  C
  C59      1.0000 0.08506  0.58495  0.59930  Biso   1.000  C
  C60      1.0000 0.41494  0.41505  0.09930  Biso   1.000  C
  C61      1.0000 0.66505  0.16494  0.65070  Biso   1.000  C
  C62      1.0000 0.83495  0.83506  0.15070  Biso   1.000  C
  C63      1.0000 0.41494  0.58495  0.40070  Biso   1.000  C
  C64      1.0000 0.08506  0.41505  0.90070  Biso   1.000  C
  H33      1.0000 0.65750  0.33180  0.20190  Biso   1.000  H
  H34      1.0000 0.84250  0.66820  0.70190  Biso   1.000  H
  H35      1.0000 0.91820  0.40750  0.45190  Biso   1.000  H
  H36      1.0000 0.58180  0.59250  0.95190  Biso   1.000  H
  H37      1.0000 0.84250  0.33180  0.79810  Biso   1.000  H
  H38      1.0000 0.65750  0.66820  0.29810  Biso   1.000  H
  H39      1.0000 0.58180  0.40750  0.54810  Biso   1.000  H
  H40      1.0000 0.91820  0.59250  0.04810  Biso   1.000  H
  H41      1.0000 0.15750  0.83180  0.70190  Biso   1.000  H
  H42      1.0000 0.34250  0.16820  0.20190  Biso   1.000  H
  H43      1.0000 0.41820  0.90750  0.95190  Biso   1.000  H
  H44      1.0000 0.08180  0.09250  0.45190  Biso   1.000  H
  H45      1.0000 0.34250  0.83180  0.29810  Biso   1.000  H
  H46      1.0000 0.15750  0.16820  0.79810  Biso   1.000  H
  H47      1.0000 0.08180  0.90750  0.04810  Biso   1.000  H
  H48      1.0000 0.41820  0.09250  0.54810  Biso   1.000  H
  H49      1.0000 0.34250  0.66820  0.79810  Biso   1.000  H
  H50      1.0000 0.15750  0.33180  0.29810  Biso   1.000  H
  H51      1.0000 0.58180  0.09250  0.04810  Biso   1.000  H
  H52      1.0000 0.91820  0.90750  0.54810  Biso   1.000  H
  H53      1.0000 0.15750  0.66820  0.20190  Biso   1.000  H
  H54      1.0000 0.34250  0.33180  0.70190  Biso   1.000  H
  H55      1.0000 0.91820  0.09250  0.95190  Biso   1.000  H
  H56      1.0000 0.58180  0.90750  0.45190  Biso   1.000  H
  H57      1.0000 0.84250  0.16820  0.29810  Biso   1.000  H
  H58      1.0000 0.65750  0.83180  0.79810  Biso   1.000  H
  H59      1.0000 0.08180  0.59250  0.54810  Biso   1.000  H
  H60      1.0000 0.41820  0.40750  0.04810  Biso   1.000  H
  H61      1.0000 0.65750  0.16820  0.70190  Biso   1.000  H
  H62      1.0000 0.84250  0.83180  0.20190  Biso   1.000  H
  H63      1.0000 0.41820  0.59250  0.45190  Biso   1.000  H
  H64      1.0000 0.08180  0.40750  0.95190  Biso   1.000  H
  C65      1.0000 0.64338  0.36930  0.10860  Biso   1.000  C
  C66      1.0000 0.85662  0.63070  0.60860  Biso   1.000  C
  C67      1.0000 0.88070  0.39338  0.35860  Biso   1.000  C
  C68      1.0000 0.61930  0.60662  0.85860  Biso   1.000  C
  C69      1.0000 0.85662  0.36930  0.89140  Biso   1.000  C
  C70      1.0000 0.64338  0.63070  0.39140  Biso   1.000  C
  C71      1.0000 0.61930  0.39338  0.64140  Biso   1.000  C
  C72      1.0000 0.88070  0.60662  0.14140  Biso   1.000  C
  C73      1.0000 0.14338  0.86930  0.60860  Biso   1.000  C
  C74      1.0000 0.35662  0.13070  0.10860  Biso   1.000  C
  C75      1.0000 0.38070  0.89338  0.85860  Biso   1.000  C
  C76      1.0000 0.11930  0.10662  0.35860  Biso   1.000  C
  C77      1.0000 0.35662  0.86930  0.39140  Biso   1.000  C
  C78      1.0000 0.14338  0.13070  0.89140  Biso   1.000  C
  C79      1.0000 0.11930  0.89338  0.14140  Biso   1.000  C
  C80      1.0000 0.38070  0.10662  0.64140  Biso   1.000  C
  C81      1.0000 0.35662  0.63070  0.89140  Biso   1.000  C
  C82      1.0000 0.14338  0.36930  0.39140  Biso   1.000  C
  C83      1.0000 0.61930  0.10662  0.14140  Biso   1.000  C
  C84      1.0000 0.88070  0.89338  0.64140  Biso   1.000  C
  C85      1.0000 0.14338  0.63070  0.10860  Biso   1.000  C
  C86      1.0000 0.35662  0.36930  0.60860  Biso   1.000  C
  C87      1.0000 0.88070  0.10662  0.85860  Biso   1.000  C
  C88      1.0000 0.61930  0.89338  0.35860  Biso   1.000  C
  C89      1.0000 0.85662  0.13070  0.39140  Biso   1.000  C
  C90      1.0000 0.64338  0.86930  0.89140  Biso   1.000  C
  C91      1.0000 0.11930  0.60662  0.64140  Biso   1.000  C
  C92      1.0000 0.38070  0.39338  0.14140  Biso   1.000  C
  C93      1.0000 0.64338  0.13070  0.60860  Biso   1.000  C
  C94      1.0000 0.85662  0.86930  0.10860  Biso   1.000  C
  C95      1.0000 0.38070  0.60662  0.35860  Biso   1.000  C
  C96      1.0000 0.11930  0.39338  0.85860  Biso   1.000  C
  C97      1.0000 0.65544  0.37245  0.03420  Biso   1.000  C
  C98      1.0000 0.84456  0.62755  0.53420  Biso   1.000  C
  C99      1.0000 0.87755  0.40544  0.28420  Biso   1.000  C
  C100     1.0000 0.62245  0.59456  0.78420  Biso   1.000  C
  C101     1.0000 0.84456  0.37245  0.96580  Biso   1.000  C
  C102     1.0000 0.65544  0.62755  0.46580  Biso   1.000  C
  C103     1.0000 0.62245  0.40544  0.71580  Biso   1.000  C
  C104     1.0000 0.87755  0.59456  0.21580  Biso   1.000  C
  C105     1.0000 0.15544  0.87245  0.53420  Biso   1.000  C
  C106     1.0000 0.34456  0.12755  0.03420  Biso   1.000  C
  C107     1.0000 0.37755  0.90544  0.78420  Biso   1.000  C
  C108     1.0000 0.12245  0.09456  0.28420  Biso   1.000  C
  C109     1.0000 0.34456  0.87245  0.46580  Biso   1.000  C
  C110     1.0000 0.15544  0.12755  0.96580  Biso   1.000  C
  C111     1.0000 0.12245  0.90544  0.21580  Biso   1.000  C
  C112     1.0000 0.37755  0.09456  0.71580  Biso   1.000  C
  C113     1.0000 0.34456  0.62755  0.96580  Biso   1.000  C
  C114     1.0000 0.15544  0.37245  0.46580  Biso   1.000  C
  C115     1.0000 0.62245  0.09456  0.21580  Biso   1.000  C
  C116     1.0000 0.87755  0.90544  0.71580  Biso   1.000  C
  C117     1.0000 0.15544  0.62755  0.03420  Biso   1.000  C
  C118     1.0000 0.34456  0.37245  0.53420  Biso   1.000  C
  C119     1.0000 0.87755  0.09456  0.78420  Biso   1.000  C
  C120     1.0000 0.62245  0.90544  0.28420  Biso   1.000  C
  C121     1.0000 0.84456  0.12755  0.46580  Biso   1.000  C
  C122     1.0000 0.65544  0.87245  0.96580  Biso   1.000  C
  C123     1.0000 0.12245  0.59456  0.71580  Biso   1.000  C
  C124     1.0000 0.37755  0.40544  0.21580  Biso   1.000  C
  C125     1.0000 0.65544  0.12755  0.53420  Biso   1.000  C
  C126     1.0000 0.84456  0.87245  0.03420  Biso   1.000  C
  C127     1.0000 0.37755  0.59456  0.28420  Biso   1.000  C
  C128     1.0000 0.12245  0.40544  0.78420  Biso   1.000  C
  H65      1.0000 0.64140  0.39550  0.00340  Biso   1.000  H
  H66      1.0000 0.85860  0.60450  0.50340  Biso   1.000  H
  H67      1.0000 0.85450  0.39140  0.25340  Biso   1.000  H
  H68      1.0000 0.64550  0.60860  0.75340  Biso   1.000  H
  H69      1.0000 0.85860  0.39550  0.99660  Biso   1.000  H
  H70      1.0000 0.64140  0.60450  0.49660  Biso   1.000  H
  H71      1.0000 0.64550  0.39140  0.74660  Biso   1.000  H
  H72      1.0000 0.85450  0.60860  0.24660  Biso   1.000  H
  H73      1.0000 0.14140  0.89550  0.50340  Biso   1.000  H
  H74      1.0000 0.35860  0.10450  0.00340  Biso   1.000  H
  H75      1.0000 0.35450  0.89140  0.75340  Biso   1.000  H
  H76      1.0000 0.14550  0.10860  0.25340  Biso   1.000  H
  H77      1.0000 0.35860  0.89550  0.49660  Biso   1.000  H
  H78      1.0000 0.14140  0.10450  0.99660  Biso   1.000  H
  H79      1.0000 0.14550  0.89140  0.24660  Biso   1.000  H
  H80      1.0000 0.35450  0.10860  0.74660  Biso   1.000  H
  H81      1.0000 0.35860  0.60450  0.99660  Biso   1.000  H
  H82      1.0000 0.14140  0.39550  0.49660  Biso   1.000  H
  H83      1.0000 0.64550  0.10860  0.24660  Biso   1.000  H
  H84      1.0000 0.85450  0.89140  0.74660  Biso   1.000  H
  H85      1.0000 0.14140  0.60450  0.00340  Biso   1.000  H
  H86      1.0000 0.35860  0.39550  0.50340  Biso   1.000  H
  H87      1.0000 0.85450  0.10860  0.75340  Biso   1.000  H
  H88      1.0000 0.64550  0.89140  0.25340  Biso   1.000  H
  H89      1.0000 0.85860  0.10450  0.49660  Biso   1.000  H
  H90      1.0000 0.64140  0.89550  0.99660  Biso   1.000  H
  H91      1.0000 0.14550  0.60860  0.74660  Biso   1.000  H
  H92      1.0000 0.35450  0.39140  0.24660  Biso   1.000  H
  H93      1.0000 0.64140  0.10450  0.50340  Biso   1.000  H
  H94      1.0000 0.85860  0.89550  0.00340  Biso   1.000  H
  H95      1.0000 0.35450  0.60860  0.25340  Biso   1.000  H
  H96      1.0000 0.14550  0.39140  0.75340  Biso   1.000  H
  C129     1.0000 0.68805  0.34188  0.00530  Biso   1.000  C
  C130     1.0000 0.81195  0.65812  0.50530  Biso   1.000  C
  C131     1.0000 0.90812  0.43805  0.25530  Biso   1.000  C
  C132     1.0000 0.59188  0.56195  0.75530  Biso   1.000  C
  C133     1.0000 0.81195  0.34188  0.99470  Biso   1.000  C
  C134     1.0000 0.68805  0.65812  0.49470  Biso   1.000  C
  C135     1.0000 0.59188  0.43805  0.74470  Biso   1.000  C
  C136     1.0000 0.90812  0.56195  0.24470  Biso   1.000  C
  C137     1.0000 0.18805  0.84188  0.50530  Biso   1.000  C
  C138     1.0000 0.31195  0.15812  0.00530  Biso   1.000  C
  C139     1.0000 0.40812  0.93805  0.75530  Biso   1.000  C
  C140     1.0000 0.09188  0.06195  0.25530  Biso   1.000  C
  C141     1.0000 0.31195  0.84188  0.49470  Biso   1.000  C
  C142     1.0000 0.18805  0.15812  0.99470  Biso   1.000  C
  C143     1.0000 0.09188  0.93805  0.24470  Biso   1.000  C
  C144     1.0000 0.40812  0.06195  0.74470  Biso   1.000  C
  C145     1.0000 0.31195  0.65812  0.99470  Biso   1.000  C
  C146     1.0000 0.18805  0.34188  0.49470  Biso   1.000  C
  C147     1.0000 0.59188  0.06195  0.24470  Biso   1.000  C
  C148     1.0000 0.90812  0.93805  0.74470  Biso   1.000  C
  C149     1.0000 0.18805  0.65812  0.00530  Biso   1.000  C
  C150     1.0000 0.31195  0.34188  0.50530  Biso   1.000  C
  C151     1.0000 0.90812  0.06195  0.75530  Biso   1.000  C
  C152     1.0000 0.59188  0.93805  0.25530  Biso   1.000  C
  C153     1.0000 0.81195  0.15812  0.49470  Biso   1.000  C
  C154     1.0000 0.68805  0.84188  0.99470  Biso   1.000  C
  C155     1.0000 0.09188  0.56195  0.74470  Biso   1.000  C
  C156     1.0000 0.40812  0.43805  0.24470  Biso   1.000  C
  C157     1.0000 0.68805  0.15812  0.50530  Biso   1.000  C
  C158     1.0000 0.81195  0.84188  0.00530  Biso   1.000  C
  C159     1.0000 0.40812  0.56195  0.25530  Biso   1.000  C
  C160     1.0000 0.09188  0.43805  0.75530  Biso   1.000  C
  H97      1.0000 0.69620  0.34460  0.95430  Biso   1.000  H
  H98      1.0000 0.80380  0.65540  0.45430  Biso   1.000  H
  H99      1.0000 0.90540  0.44620  0.20430  Biso   1.000  H
  H100     1.0000 0.59460  0.55380  0.70430  Biso   1.000  H
  H101     1.0000 0.80380  0.34460  0.04570  Biso   1.000  H
  H102     1.0000 0.69620  0.65540  0.54570  Biso   1.000  H
  H103     1.0000 0.59460  0.44620  0.79570  Biso   1.000  H
  H104     1.0000 0.90540  0.55380  0.29570  Biso   1.000  H
  H105     1.0000 0.19620  0.84460  0.45430  Biso   1.000  H
  H106     1.0000 0.30380  0.15540  0.95430  Biso   1.000  H
  H107     1.0000 0.40540  0.94620  0.70430  Biso   1.000  H
  H108     1.0000 0.09460  0.05380  0.20430  Biso   1.000  H
  H109     1.0000 0.30380  0.84460  0.54570  Biso   1.000  H
  H110     1.0000 0.19620  0.15540  0.04570  Biso   1.000  H
  H111     1.0000 0.09460  0.94620  0.29570  Biso   1.000  H
  H112     1.0000 0.40540  0.05380  0.79570  Biso   1.000  H
  H113     1.0000 0.30380  0.65540  0.04570  Biso   1.000  H
  H114     1.0000 0.19620  0.34460  0.54570  Biso   1.000  H
  H115     1.0000 0.59460  0.05380  0.29570  Biso   1.000  H
  H116     1.0000 0.90540  0.94620  0.79570  Biso   1.000  H
  H117     1.0000 0.19620  0.65540  0.95430  Biso   1.000  H
  H118     1.0000 0.30380  0.34460  0.45430  Biso   1.000  H
  H119     1.0000 0.90540  0.05380  0.70430  Biso   1.000  H
  H120     1.0000 0.59460  0.94620  0.20430  Biso   1.000  H
  H121     1.0000 0.80380  0.15540  0.54570  Biso   1.000  H
  H122     1.0000 0.69620  0.84460  0.04570  Biso   1.000  H
  H123     1.0000 0.09460  0.55380  0.79570  Biso   1.000  H
  H124     1.0000 0.40540  0.44620  0.29570  Biso   1.000  H
  H125     1.0000 0.69620  0.15540  0.45430  Biso   1.000  H
  H126     1.0000 0.80380  0.84460  0.95430  Biso   1.000  H
  H127     1.0000 0.40540  0.55380  0.20430  Biso   1.000  H
  H128     1.0000 0.09460  0.44620  0.70430  Biso   1.000  H
  N33      1.0000 0.54065  0.45878  0.20490  Biso   1.000  N
  N34      1.0000 0.95935  0.54122  0.70490  Biso   1.000  N
  N35      1.0000 0.79122  0.29065  0.45490  Biso   1.000  N
  N36      1.0000 0.70878  0.70935  0.95490  Biso   1.000  N
  N37      1.0000 0.95935  0.45878  0.79510  Biso   1.000  N
  N38      1.0000 0.54065  0.54122  0.29510  Biso   1.000  N
  N39      1.0000 0.70878  0.29065  0.54510  Biso   1.000  N
  N40      1.0000 0.79122  0.70935  0.04510  Biso   1.000  N
  N41      1.0000 0.04065  0.95878  0.70490  Biso   1.000  N
  N42      1.0000 0.45935  0.04122  0.20490  Biso   1.000  N
  N43      1.0000 0.29122  0.79065  0.95490  Biso   1.000  N
  N44      1.0000 0.20878  0.20935  0.45490  Biso   1.000  N
  N45      1.0000 0.45935  0.95878  0.29510  Biso   1.000  N
  N46      1.0000 0.04065  0.04122  0.79510  Biso   1.000  N
  N47      1.0000 0.20878  0.79065  0.04510  Biso   1.000  N
  N48      1.0000 0.29122  0.20935  0.54510  Biso   1.000  N
  N49      1.0000 0.45935  0.54122  0.79510  Biso   1.000  N
  N50      1.0000 0.04065  0.45878  0.29510  Biso   1.000  N
  N51      1.0000 0.70878  0.20935  0.04510  Biso   1.000  N
  N52      1.0000 0.79122  0.79065  0.54510  Biso   1.000  N
  N53      1.0000 0.04065  0.54122  0.20490  Biso   1.000  N
  N54      1.0000 0.45935  0.45878  0.70490  Biso   1.000  N
  N55      1.0000 0.79122  0.20935  0.95490  Biso   1.000  N
  N56      1.0000 0.70878  0.79065  0.45490  Biso   1.000  N
  N57      1.0000 0.95935  0.04122  0.29510  Biso   1.000  N
  N58      1.0000 0.54065  0.95878  0.79510  Biso   1.000  N
  N59      1.0000 0.20878  0.70935  0.54510  Biso   1.000  N
  N60      1.0000 0.29122  0.29065  0.04510  Biso   1.000  N
  N61      1.0000 0.54065  0.04122  0.70490  Biso   1.000  N
  N62      1.0000 0.95935  0.95878  0.20490  Biso   1.000  N
  N63      1.0000 0.29122  0.70935  0.45490  Biso   1.000  N
  N64      1.0000 0.20878  0.29065  0.95490  Biso   1.000  N
  C161     1.0000 0.54440  0.41429  0.22540  Biso   1.000  C
  C162     1.0000 0.95560  0.58571  0.72540  Biso   1.000  C
  C163     1.0000 0.83571  0.29440  0.47540  Biso   1.000  C
  C164     1.0000 0.66429  0.70560  0.97540  Biso   1.000  C
  C165     1.0000 0.95560  0.41429  0.77460  Biso   1.000  C
  C166     1.0000 0.54440  0.58571  0.27460  Biso   1.000  C
  C167     1.0000 0.66429  0.29440  0.52460  Biso   1.000  C
  C168     1.0000 0.83571  0.70560  0.02460  Biso   1.000  C
  C169     1.0000 0.04440  0.91429  0.72540  Biso   1.000  C
  C170     1.0000 0.45560  0.08571  0.22540  Biso   1.000  C
  C171     1.0000 0.33571  0.79440  0.97540  Biso   1.000  C
  C172     1.0000 0.16429  0.20560  0.47540  Biso   1.000  C
  C173     1.0000 0.45560  0.91429  0.27460  Biso   1.000  C
  C174     1.0000 0.04440  0.08571  0.77460  Biso   1.000  C
  C175     1.0000 0.16429  0.79440  0.02460  Biso   1.000  C
  C176     1.0000 0.33571  0.20560  0.52460  Biso   1.000  C
  C177     1.0000 0.45560  0.58571  0.77460  Biso   1.000  C
  C178     1.0000 0.04440  0.41429  0.27460  Biso   1.000  C
  C179     1.0000 0.66429  0.20560  0.02460  Biso   1.000  C
  C180     1.0000 0.83571  0.79440  0.52460  Biso   1.000  C
  C181     1.0000 0.04440  0.58571  0.22540  Biso   1.000  C
  C182     1.0000 0.45560  0.41429  0.72540  Biso   1.000  C
  C183     1.0000 0.83571  0.20560  0.97540  Biso   1.000  C
  C184     1.0000 0.66429  0.79440  0.47540  Biso   1.000  C
  C185     1.0000 0.95560  0.08571  0.27460  Biso   1.000  C
  C186     1.0000 0.54440  0.91429  0.77460  Biso   1.000  C
  C187     1.0000 0.16429  0.70560  0.52460  Biso   1.000  C
  C188     1.0000 0.33571  0.29440  0.02460  Biso   1.000  C
  C189     1.0000 0.54440  0.08571  0.72540  Biso   1.000  C
  C190     1.0000 0.95560  0.91429  0.22540  Biso   1.000  C
  C191     1.0000 0.33571  0.70560  0.47540  Biso   1.000  C
  C192     1.0000 0.16429  0.29440  0.97540  Biso   1.000  C
  H129     1.0000 0.52360  0.40260  0.26220  Biso   1.000  H
  H130     1.0000 0.97640  0.59740  0.76220  Biso   1.000  H
  H131     1.0000 0.84740  0.27360  0.51220  Biso   1.000  H
  H132     1.0000 0.65260  0.72640  0.01220  Biso   1.000  H
  H133     1.0000 0.97640  0.40260  0.73780  Biso   1.000  H
  H134     1.0000 0.52360  0.59740  0.23780  Biso   1.000  H
  H135     1.0000 0.65260  0.27360  0.48780  Biso   1.000  H
  H136     1.0000 0.84740  0.72640  0.98780  Biso   1.000  H
  H137     1.0000 0.02360  0.90260  0.76220  Biso   1.000  H
  H138     1.0000 0.47640  0.09740  0.26220  Biso   1.000  H
  H139     1.0000 0.34740  0.77360  0.01220  Biso   1.000  H
  H140     1.0000 0.15260  0.22640  0.51220  Biso   1.000  H
  H141     1.0000 0.47640  0.90260  0.23780  Biso   1.000  H
  H142     1.0000 0.02360  0.09740  0.73780  Biso   1.000  H
  H143     1.0000 0.15260  0.77360  0.98780  Biso   1.000  H
  H144     1.0000 0.34740  0.22640  0.48780  Biso   1.000  H
  H145     1.0000 0.47640  0.59740  0.73780  Biso   1.000  H
  H146     1.0000 0.02360  0.40260  0.23780  Biso   1.000  H
  H147     1.0000 0.65260  0.22640  0.98780  Biso   1.000  H
  H148     1.0000 0.84740  0.77360  0.48780  Biso   1.000  H
  H149     1.0000 0.02360  0.59740  0.26220  Biso   1.000  H
  H150     1.0000 0.47640  0.40260  0.76220  Biso   1.000  H
  H151     1.0000 0.84740  0.22640  0.01220  Biso   1.000  H
  H152     1.0000 0.65260  0.77360  0.51220  Biso   1.000  H
  H153     1.0000 0.97640  0.09740  0.23780  Biso   1.000  H
  H154     1.0000 0.52360  0.90260  0.73780  Biso   1.000  H
  H155     1.0000 0.15260  0.72640  0.48780  Biso   1.000  H
  H156     1.0000 0.34740  0.27360  0.98780  Biso   1.000  H
  H157     1.0000 0.52360  0.09740  0.76220  Biso   1.000  H
  H158     1.0000 0.97640  0.90260  0.26220  Biso   1.000  H
  H159     1.0000 0.34740  0.72640  0.51220  Biso   1.000  H
  H160     1.0000 0.15260  0.27360  0.01220  Biso   1.000  H
  C193     1.0000 0.57700  0.38450  0.19560  Biso   1.000  C
  C194     1.0000 0.92300  0.61550  0.69560  Biso   1.000  C
  C195     1.0000 0.86550  0.32700  0.44560  Biso   1.000  C
  C196     1.0000 0.63450  0.67300  0.94560  Biso   1.000  C
  C197     1.0000 0.92300  0.38450  0.80440  Biso   1.000  C
  C198     1.0000 0.57700  0.61550  0.30440  Biso   1.000  C
  C199     1.0000 0.63450  0.32700  0.55440  Biso   1.000  C
  C200     1.0000 0.86550  0.67300  0.05440  Biso   1.000  C
  C201     1.0000 0.07700  0.88450  0.69560  Biso   1.000  C
  C202     1.0000 0.42300  0.11550  0.19560  Biso   1.000  C
  C203     1.0000 0.36550  0.82700  0.94560  Biso   1.000  C
  C204     1.0000 0.13450  0.17300  0.44560  Biso   1.000  C
  C205     1.0000 0.42300  0.88450  0.30440  Biso   1.000  C
  C206     1.0000 0.07700  0.11550  0.80440  Biso   1.000  C
  C207     1.0000 0.13450  0.82700  0.05440  Biso   1.000  C
  C208     1.0000 0.36550  0.17300  0.55440  Biso   1.000  C
  C209     1.0000 0.42300  0.61550  0.80440  Biso   1.000  C
  C210     1.0000 0.07700  0.38450  0.30440  Biso   1.000  C
  C211     1.0000 0.63450  0.17300  0.05440  Biso   1.000  C
  C212     1.0000 0.86550  0.82700  0.55440  Biso   1.000  C
  C213     1.0000 0.07700  0.61550  0.19560  Biso   1.000  C
  C214     1.0000 0.42300  0.38450  0.69560  Biso   1.000  C
  C215     1.0000 0.86550  0.17300  0.94560  Biso   1.000  C
  C216     1.0000 0.63450  0.82700  0.44560  Biso   1.000  C
  C217     1.0000 0.92300  0.11550  0.30440  Biso   1.000  C
  C218     1.0000 0.57700  0.88450  0.80440  Biso   1.000  C
  C219     1.0000 0.13450  0.67300  0.55440  Biso   1.000  C
  C220     1.0000 0.36550  0.32700  0.05440  Biso   1.000  C
  C221     1.0000 0.57700  0.11550  0.69560  Biso   1.000  C
  C222     1.0000 0.92300  0.88450  0.19560  Biso   1.000  C
  C223     1.0000 0.36550  0.67300  0.44560  Biso   1.000  C
  C224     1.0000 0.13450  0.32700  0.94560  Biso   1.000  C
  H161     1.0000 0.57840  0.35280  0.21160  Biso   1.000  H
  H162     1.0000 0.92160  0.64720  0.71160  Biso   1.000  H
  H163     1.0000 0.89720  0.32840  0.46160  Biso   1.000  H
  H164     1.0000 0.60280  0.67160  0.96160  Biso   1.000  H
  H165     1.0000 0.92160  0.35280  0.78840  Biso   1.000  H
  H166     1.0000 0.57840  0.64720  0.28840  Biso   1.000  H
  H167     1.0000 0.60280  0.32840  0.53840  Biso   1.000  H
  H168     1.0000 0.89720  0.67160  0.03840  Biso   1.000  H
  H169     1.0000 0.07840  0.85280  0.71160  Biso   1.000  H
  H170     1.0000 0.42160  0.14720  0.21160  Biso   1.000  H
  H171     1.0000 0.39720  0.82840  0.96160  Biso   1.000  H
  H172     1.0000 0.10280  0.17160  0.46160  Biso   1.000  H
  H173     1.0000 0.42160  0.85280  0.28840  Biso   1.000  H
  H174     1.0000 0.07840  0.14720  0.78840  Biso   1.000  H
  H175     1.0000 0.10280  0.82840  0.03840  Biso   1.000  H
  H176     1.0000 0.39720  0.17160  0.53840  Biso   1.000  H
  H177     1.0000 0.42160  0.64720  0.78840  Biso   1.000  H
  H178     1.0000 0.07840  0.35280  0.28840  Biso   1.000  H
  H179     1.0000 0.60280  0.17160  0.03840  Biso   1.000  H
  H180     1.0000 0.89720  0.82840  0.53840  Biso   1.000  H
  H181     1.0000 0.07840  0.64720  0.21160  Biso   1.000  H
  H182     1.0000 0.42160  0.35280  0.71160  Biso   1.000  H
  H183     1.0000 0.89720  0.17160  0.96160  Biso   1.000  H
  H184     1.0000 0.60280  0.82840  0.46160  Biso   1.000  H
  H185     1.0000 0.92160  0.14720  0.28840  Biso   1.000  H
  H186     1.0000 0.57840  0.85280  0.78840  Biso   1.000  H
  H187     1.0000 0.10280  0.67160  0.53840  Biso   1.000  H
  H188     1.0000 0.39720  0.32840  0.03840  Biso   1.000  H
  H189     1.0000 0.57840  0.14720  0.71160  Biso   1.000  H
  H190     1.0000 0.92160  0.85280  0.21160  Biso   1.000  H
  H191     1.0000 0.39720  0.67160  0.46160  Biso   1.000  H
  H192     1.0000 0.10280  0.32840  0.96160  Biso   1.000  H
  C225     1.0000 0.60806  0.40070  0.14220  Biso   1.000  C
  C226     1.0000 0.89194  0.59930  0.64220  Biso   1.000  C
  C227     1.0000 0.84930  0.35806  0.39220  Biso   1.000  C
  C228     1.0000 0.65070  0.64194  0.89220  Biso   1.000  C
  C229     1.0000 0.89194  0.40070  0.85780  Biso   1.000  C
  C230     1.0000 0.60806  0.59930  0.35780  Biso   1.000  C
  C231     1.0000 0.65070  0.35806  0.60780  Biso   1.000  C
  C232     1.0000 0.84930  0.64194  0.10780  Biso   1.000  C
  C233     1.0000 0.10806  0.90070  0.64220  Biso   1.000  C
  C234     1.0000 0.39194  0.09930  0.14220  Biso   1.000  C
  C235     1.0000 0.34930  0.85806  0.89220  Biso   1.000  C
  C236     1.0000 0.15070  0.14194  0.39220  Biso   1.000  C
  C237     1.0000 0.39194  0.90070  0.35780  Biso   1.000  C
  C238     1.0000 0.10806  0.09930  0.85780  Biso   1.000  C
  C239     1.0000 0.15070  0.85806  0.10780  Biso   1.000  C
  C240     1.0000 0.34930  0.14194  0.60780  Biso   1.000  C
  C241     1.0000 0.39194  0.59930  0.85780  Biso   1.000  C
  C242     1.0000 0.10806  0.40070  0.35780  Biso   1.000  C
  C243     1.0000 0.65070  0.14194  0.10780  Biso   1.000  C
  C244     1.0000 0.84930  0.85806  0.60780  Biso   1.000  C
  C245     1.0000 0.10806  0.59930  0.14220  Biso   1.000  C
  C246     1.0000 0.39194  0.40070  0.64220  Biso   1.000  C
  C247     1.0000 0.84930  0.14194  0.89220  Biso   1.000  C
  C248     1.0000 0.65070  0.85806  0.39220  Biso   1.000  C
  C249     1.0000 0.89194  0.09930  0.35780  Biso   1.000  C
  C250     1.0000 0.60806  0.90070  0.85780  Biso   1.000  C
  C251     1.0000 0.15070  0.64194  0.60780  Biso   1.000  C
  C252     1.0000 0.34930  0.35806  0.10780  Biso   1.000  C
  C253     1.0000 0.60806  0.09930  0.64220  Biso   1.000  C
  C254     1.0000 0.89194  0.90070  0.14220  Biso   1.000  C
  C255     1.0000 0.34930  0.64194  0.39220  Biso   1.000  C
  C256     1.0000 0.15070  0.35806  0.89220  Biso   1.000  C
  C257     1.0000 0.60291  0.44646  0.11920  Biso   1.000  C
  C258     1.0000 0.89709  0.55354  0.61920  Biso   1.000  C
  C259     1.0000 0.80354  0.35291  0.36920  Biso   1.000  C
  C260     1.0000 0.69646  0.64709  0.86920  Biso   1.000  C
  C261     1.0000 0.89709  0.44646  0.88080  Biso   1.000  C
  C262     1.0000 0.60291  0.55354  0.38080  Biso   1.000  C
  C263     1.0000 0.69646  0.35291  0.63080  Biso   1.000  C
  C264     1.0000 0.80354  0.64709  0.13080  Biso   1.000  C
  C265     1.0000 0.10291  0.94646  0.61920  Biso   1.000  C
  C266     1.0000 0.39709  0.05354  0.11920  Biso   1.000  C
  C267     1.0000 0.30354  0.85291  0.86920  Biso   1.000  C
  C268     1.0000 0.19646  0.14709  0.36920  Biso   1.000  C
  C269     1.0000 0.39709  0.94646  0.38080  Biso   1.000  C
  C270     1.0000 0.10291  0.05354  0.88080  Biso   1.000  C
  C271     1.0000 0.19646  0.85291  0.13080  Biso   1.000  C
  C272     1.0000 0.30354  0.14709  0.63080  Biso   1.000  C
  C273     1.0000 0.39709  0.55354  0.88080  Biso   1.000  C
  C274     1.0000 0.10291  0.44646  0.38080  Biso   1.000  C
  C275     1.0000 0.69646  0.14709  0.13080  Biso   1.000  C
  C276     1.0000 0.80354  0.85291  0.63080  Biso   1.000  C
  C277     1.0000 0.10291  0.55354  0.11920  Biso   1.000  C
  C278     1.0000 0.39709  0.44646  0.61920  Biso   1.000  C
  C279     1.0000 0.80354  0.14709  0.86920  Biso   1.000  C
  C280     1.0000 0.69646  0.85291  0.36920  Biso   1.000  C
  C281     1.0000 0.89709  0.05354  0.38080  Biso   1.000  C
  C282     1.0000 0.60291  0.94646  0.88080  Biso   1.000  C
  C283     1.0000 0.19646  0.64709  0.63080  Biso   1.000  C
  C284     1.0000 0.30354  0.35291  0.13080  Biso   1.000  C
  C285     1.0000 0.60291  0.05354  0.61920  Biso   1.000  C
  C286     1.0000 0.89709  0.94646  0.11920  Biso   1.000  C
  C287     1.0000 0.30354  0.64709  0.36920  Biso   1.000  C
  C288     1.0000 0.19646  0.35291  0.86920  Biso   1.000  C
  H193     1.0000 0.62240  0.45880  0.08120  Biso   1.000  H
  H194     1.0000 0.87760  0.54120  0.58120  Biso   1.000  H
  H195     1.0000 0.79120  0.37240  0.33120  Biso   1.000  H
  H196     1.0000 0.70880  0.62760  0.83120  Biso   1.000  H
  H197     1.0000 0.87760  0.45880  0.91880  Biso   1.000  H
  H198     1.0000 0.62240  0.54120  0.41880  Biso   1.000  H
  H199     1.0000 0.70880  0.37240  0.66880  Biso   1.000  H
  H200     1.0000 0.79120  0.62760  0.16880  Biso   1.000  H
  H201     1.0000 0.12240  0.95880  0.58120  Biso   1.000  H
  H202     1.0000 0.37760  0.04120  0.08120  Biso   1.000  H
  H203     1.0000 0.29120  0.87240  0.83120  Biso   1.000  H
  H204     1.0000 0.20880  0.12760  0.33120  Biso   1.000  H
  H205     1.0000 0.37760  0.95880  0.41880  Biso   1.000  H
  H206     1.0000 0.12240  0.04120  0.91880  Biso   1.000  H
  H207     1.0000 0.20880  0.87240  0.16880  Biso   1.000  H
  H208     1.0000 0.29120  0.12760  0.66880  Biso   1.000  H
  H209     1.0000 0.37760  0.54120  0.91880  Biso   1.000  H
  H210     1.0000 0.12240  0.45880  0.41880  Biso   1.000  H
  H211     1.0000 0.70880  0.12760  0.16880  Biso   1.000  H
  H212     1.0000 0.79120  0.87240  0.66880  Biso   1.000  H
  H213     1.0000 0.12240  0.54120  0.08120  Biso   1.000  H
  H214     1.0000 0.37760  0.45880  0.58120  Biso   1.000  H
  H215     1.0000 0.79120  0.12760  0.83120  Biso   1.000  H
  H216     1.0000 0.70880  0.87240  0.33120  Biso   1.000  H
  H217     1.0000 0.87760  0.04120  0.41880  Biso   1.000  H
  H218     1.0000 0.62240  0.95880  0.91880  Biso   1.000  H
  H219     1.0000 0.20880  0.62760  0.66880  Biso   1.000  H
  H220     1.0000 0.29120  0.37240  0.16880  Biso   1.000  H
  H221     1.0000 0.62240  0.04120  0.58120  Biso   1.000  H
  H222     1.0000 0.87760  0.95880  0.08120  Biso   1.000  H
  H223     1.0000 0.29120  0.62760  0.33120  Biso   1.000  H
  H224     1.0000 0.20880  0.37240  0.83120  Biso   1.000  H
  C289     1.0000 0.56920  0.47417  0.15200  Biso   1.000  C
  C290     1.0000 0.93080  0.52583  0.65200  Biso   1.000  C
  C291     1.0000 0.77583  0.31920  0.40200  Biso   1.000  C
  C292     1.0000 0.72417  0.68080  0.90200  Biso   1.000  C
  C293     1.0000 0.93080  0.47417  0.84800  Biso   1.000  C
  C294     1.0000 0.56920  0.52583  0.34800  Biso   1.000  C
  C295     1.0000 0.72417  0.31920  0.59800  Biso   1.000  C
  C296     1.0000 0.77583  0.68080  0.09800  Biso   1.000  C
  C297     1.0000 0.06920  0.97417  0.65200  Biso   1.000  C
  C298     1.0000 0.43080  0.02583  0.15200  Biso   1.000  C
  C299     1.0000 0.27583  0.81920  0.90200  Biso   1.000  C
  C300     1.0000 0.22417  0.18080  0.40200  Biso   1.000  C
  C301     1.0000 0.43080  0.97417  0.34800  Biso   1.000  C
  C302     1.0000 0.06920  0.02583  0.84800  Biso   1.000  C
  C303     1.0000 0.22417  0.81920  0.09800  Biso   1.000  C
  C304     1.0000 0.27583  0.18080  0.59800  Biso   1.000  C
  C305     1.0000 0.43080  0.52583  0.84800  Biso   1.000  C
  C306     1.0000 0.06920  0.47417  0.34800  Biso   1.000  C
  C307     1.0000 0.72417  0.18080  0.09800  Biso   1.000  C
  C308     1.0000 0.77583  0.81920  0.59800  Biso   1.000  C
  C309     1.0000 0.06920  0.52583  0.15200  Biso   1.000  C
  C310     1.0000 0.43080  0.47417  0.65200  Biso   1.000  C
  C311     1.0000 0.77583  0.18080  0.90200  Biso   1.000  C
  C312     1.0000 0.72417  0.81920  0.40200  Biso   1.000  C
  C313     1.0000 0.93080  0.02583  0.34800  Biso   1.000  C
  C314     1.0000 0.56920  0.97417  0.84800  Biso   1.000  C
  C315     1.0000 0.22417  0.68080  0.59800  Biso   1.000  C
  C316     1.0000 0.27583  0.31920  0.09800  Biso   1.000  C
  C317     1.0000 0.56920  0.02583  0.65200  Biso   1.000  C
  C318     1.0000 0.93080  0.97417  0.15200  Biso   1.000  C
  C319     1.0000 0.27583  0.68080  0.40200  Biso   1.000  C
  C320     1.0000 0.22417  0.31920  0.90200  Biso   1.000  C
  H225     1.0000 0.56630  0.50570  0.13600  Biso   1.000  H
  H226     1.0000 0.93370  0.49430  0.63600  Biso   1.000  H
  H227     1.0000 0.74430  0.31630  0.38600  Biso   1.000  H
  H228     1.0000 0.75570  0.68370  0.88600  Biso   1.000  H
  H229     1.0000 0.93370  0.50570  0.86400  Biso   1.000  H
  H230     1.0000 0.56630  0.49430  0.36400  Biso   1.000  H
  H231     1.0000 0.75570  0.31630  0.61400  Biso   1.000  H
  H232     1.0000 0.74430  0.68370  0.11400  Biso   1.000  H
  H233     1.0000 0.06630  0.00570  0.63600  Biso   1.000  H
  H234     1.0000 0.43370  0.99430  0.13600  Biso   1.000  H
  H235     1.0000 0.24430  0.81630  0.88600  Biso   1.000  H
  H236     1.0000 0.25570  0.18370  0.38600  Biso   1.000  H
  H237     1.0000 0.43370  0.00570  0.36400  Biso   1.000  H
  H238     1.0000 0.06630  0.99430  0.86400  Biso   1.000  H
  H239     1.0000 0.25570  0.81630  0.11400  Biso   1.000  H
  H240     1.0000 0.24430  0.18370  0.61400  Biso   1.000  H
  H241     1.0000 0.43370  0.49430  0.86400  Biso   1.000  H
  H242     1.0000 0.06630  0.50570  0.36400  Biso   1.000  H
  H243     1.0000 0.75570  0.18370  0.11400  Biso   1.000  H
  H244     1.0000 0.74430  0.81630  0.61400  Biso   1.000  H
  H245     1.0000 0.06630  0.49430  0.13600  Biso   1.000  H
  H246     1.0000 0.43370  0.50570  0.63600  Biso   1.000  H
  H247     1.0000 0.74430  0.18370  0.88600  Biso   1.000  H
  H248     1.0000 0.75570  0.81630  0.38600  Biso   1.000  H
  H249     1.0000 0.93370  0.99430  0.36400  Biso   1.000  H
  H250     1.0000 0.56630  0.00570  0.86400  Biso   1.000  H
  H251     1.0000 0.25570  0.68370  0.61400  Biso   1.000  H
  H252     1.0000 0.24430  0.31630  0.11400  Biso   1.000  H
  H253     1.0000 0.56630  0.99430  0.63600  Biso   1.000  H
  H254     1.0000 0.93370  0.00570  0.13600  Biso   1.000  H
  H255     1.0000 0.24430  0.68370  0.38600  Biso   1.000  H
  H256     1.0000 0.25570  0.31630  0.88600  Biso   1.000  H
  O65      1.0000 0.80014  0.25927  0.11066  Biso   1.000  O
  O66      1.0000 0.69986  0.74073  0.61066  Biso   1.000  O
  O67      1.0000 0.99073  0.55014  0.36066  Biso   1.000  O
  O68      1.0000 0.50927  0.44986  0.86066  Biso   1.000  O
  O69      1.0000 0.69986  0.25927  0.88934  Biso   1.000  O
  O70      1.0000 0.80014  0.74073  0.38934  Biso   1.000  O
  O71      1.0000 0.50927  0.55014  0.63934  Biso   1.000  O
  O72      1.0000 0.99073  0.44986  0.13934  Biso   1.000  O
  O73      1.0000 0.30014  0.75927  0.61066  Biso   1.000  O
  O74      1.0000 0.19986  0.24073  0.11066  Biso   1.000  O
  O75      1.0000 0.49073  0.05014  0.86066  Biso   1.000  O
  O76      1.0000 0.00927  0.94986  0.36066  Biso   1.000  O
  O77      1.0000 0.19986  0.75927  0.38934  Biso   1.000  O
  O78      1.0000 0.30014  0.24073  0.88934  Biso   1.000  O
  O79      1.0000 0.00927  0.05014  0.13934  Biso   1.000  O
  O80      1.0000 0.49073  0.94986  0.63934  Biso   1.000  O
  O81      1.0000 0.19986  0.74073  0.88934  Biso   1.000  O
  O82      1.0000 0.30014  0.25927  0.38934  Biso   1.000  O
  O83      1.0000 0.50927  0.94986  0.13934  Biso   1.000  O
  O84      1.0000 0.99073  0.05014  0.63934  Biso   1.000  O
  O85      1.0000 0.30014  0.74073  0.11066  Biso   1.000  O
  O86      1.0000 0.19986  0.25927  0.61066  Biso   1.000  O
  O87      1.0000 0.99073  0.94986  0.86066  Biso   1.000  O
  O88      1.0000 0.50927  0.05014  0.36066  Biso   1.000  O
  O89      1.0000 0.69986  0.24073  0.38934  Biso   1.000  O
  O90      1.0000 0.80014  0.75927  0.88934  Biso   1.000  O
  O91      1.0000 0.00927  0.44986  0.63934  Biso   1.000  O
  O92      1.0000 0.49073  0.55014  0.13934  Biso   1.000  O
  O93      1.0000 0.80014  0.24073  0.61066  Biso   1.000  O
  O94      1.0000 0.69986  0.75927  0.11066  Biso   1.000  O
  O95      1.0000 0.49073  0.44986  0.36066  Biso   1.000  O
  O96      1.0000 0.00927  0.55014  0.86066  Biso   1.000  O
  O97      1.0000 0.80680  0.25630  0.24520  Biso   1.000  O
  O98      1.0000 0.69320  0.74370  0.74520  Biso   1.000  O
  O99      1.0000 0.99370  0.55680  0.49520  Biso   1.000  O
  O100     1.0000 0.50630  0.44320  0.99520  Biso   1.000  O
  O101     1.0000 0.69320  0.25630  0.75480  Biso   1.000  O
  O102     1.0000 0.80680  0.74370  0.25480  Biso   1.000  O
  O103     1.0000 0.50630  0.55680  0.50480  Biso   1.000  O
  O104     1.0000 0.99370  0.44320  0.00480  Biso   1.000  O
  O105     1.0000 0.30680  0.75630  0.74520  Biso   1.000  O
  O106     1.0000 0.19320  0.24370  0.24520  Biso   1.000  O
  O107     1.0000 0.49370  0.05680  0.99520  Biso   1.000  O
  O108     1.0000 0.00630  0.94320  0.49520  Biso   1.000  O
  O109     1.0000 0.19320  0.75630  0.25480  Biso   1.000  O
  O110     1.0000 0.30680  0.24370  0.75480  Biso   1.000  O
  O111     1.0000 0.00630  0.05680  0.00480  Biso   1.000  O
  O112     1.0000 0.49370  0.94320  0.50480  Biso   1.000  O
  O113     1.0000 0.19320  0.74370  0.75480  Biso   1.000  O
  O114     1.0000 0.30680  0.25630  0.25480  Biso   1.000  O
  O115     1.0000 0.50630  0.94320  0.00480  Biso   1.000  O
  O116     1.0000 0.99370  0.05680  0.50480  Biso   1.000  O
  O117     1.0000 0.30680  0.74370  0.24520  Biso   1.000  O
  O118     1.0000 0.19320  0.25630  0.74520  Biso   1.000  O
  O119     1.0000 0.99370  0.94320  0.99520  Biso   1.000  O
  O120     1.0000 0.50630  0.05680  0.49520  Biso   1.000  O
  O121     1.0000 0.69320  0.24370  0.25480  Biso   1.000  O
  O122     1.0000 0.80680  0.75630  0.75480  Biso   1.000  O
  O123     1.0000 0.00630  0.44320  0.50480  Biso   1.000  O
  O124     1.0000 0.49370  0.55680  0.00480  Biso   1.000  O
  O125     1.0000 0.80680  0.24370  0.74520  Biso   1.000  O
  O126     1.0000 0.69320  0.75630  0.24520  Biso   1.000  O
  O127     1.0000 0.49370  0.44320  0.49520  Biso   1.000  O
  O128     1.0000 0.00630  0.55680  0.99520  Biso   1.000  O
  S1       1.0000 0.81917  0.27748  0.17845  Biso   1.000  S
  S2       1.0000 0.68083  0.72252  0.67845  Biso   1.000  S
  S3       1.0000 0.97252  0.56917  0.42845  Biso   1.000  S
  S4       1.0000 0.52748  0.43083  0.92845  Biso   1.000  S
  S5       1.0000 0.68083  0.27748  0.82155  Biso   1.000  S
  S6       1.0000 0.81917  0.72252  0.32155  Biso   1.000  S
  S7       1.0000 0.52748  0.56917  0.57155  Biso   1.000  S
  S8       1.0000 0.97252  0.43083  0.07155  Biso   1.000  S
  S9       1.0000 0.31917  0.77748  0.67845  Biso   1.000  S
  S10      1.0000 0.18083  0.22252  0.17845  Biso   1.000  S
  S11      1.0000 0.47252  0.06917  0.92845  Biso   1.000  S
  S12      1.0000 0.02748  0.93083  0.42845  Biso   1.000  S
  S13      1.0000 0.18083  0.77748  0.32155  Biso   1.000  S
  S14      1.0000 0.31917  0.22252  0.82155  Biso   1.000  S
  S15      1.0000 0.02748  0.06917  0.07155  Biso   1.000  S
  S16      1.0000 0.47252  0.93083  0.57155  Biso   1.000  S
  S17      1.0000 0.18083  0.72252  0.82155  Biso   1.000  S
  S18      1.0000 0.31917  0.27748  0.32155  Biso   1.000  S
  S19      1.0000 0.52748  0.93083  0.07155  Biso   1.000  S
  S20      1.0000 0.97252  0.06917  0.57155  Biso   1.000  S
  S21      1.0000 0.31917  0.72252  0.17845  Biso   1.000  S
  S22      1.0000 0.18083  0.27748  0.67845  Biso   1.000  S
  S23      1.0000 0.97252  0.93083  0.92845  Biso   1.000  S
  S24      1.0000 0.52748  0.06917  0.42845  Biso   1.000  S
  S25      1.0000 0.68083  0.22252  0.32155  Biso   1.000  S
  S26      1.0000 0.81917  0.77748  0.82155  Biso   1.000  S
  S27      1.0000 0.02748  0.43083  0.57155  Biso   1.000  S
  S28      1.0000 0.47252  0.56917  0.07155  Biso   1.000  S
  S29      1.0000 0.81917  0.22252  0.67845  Biso   1.000  S
  S30      1.0000 0.68083  0.77748  0.17845  Biso   1.000  S
  S31      1.0000 0.47252  0.43083  0.42845  Biso   1.000  S
  S32      1.0000 0.02748  0.56917  0.92845  Biso   1.000  S
  O129     1.0000 0.81600  0.32763  0.18170  Biso   1.000  O
  O130     1.0000 0.68400  0.67237  0.68170  Biso   1.000  O
  O131     1.0000 0.92237  0.56600  0.43170  Biso   1.000  O
  O132     1.0000 0.57763  0.43400  0.93170  Biso   1.000  O
  O133     1.0000 0.68400  0.32763  0.81830  Biso   1.000  O
  O134     1.0000 0.81600  0.67237  0.31830  Biso   1.000  O
  O135     1.0000 0.57763  0.56600  0.56830  Biso   1.000  O
  O136     1.0000 0.92237  0.43400  0.06830  Biso   1.000  O
  O137     1.0000 0.31600  0.82763  0.68170  Biso   1.000  O
  O138     1.0000 0.18400  0.17237  0.18170  Biso   1.000  O
  O139     1.0000 0.42237  0.06600  0.93170  Biso   1.000  O
  O140     1.0000 0.07763  0.93400  0.43170  Biso   1.000  O
  O141     1.0000 0.18400  0.82763  0.31830  Biso   1.000  O
  O142     1.0000 0.31600  0.17237  0.81830  Biso   1.000  O
  O143     1.0000 0.07763  0.06600  0.06830  Biso   1.000  O
  O144     1.0000 0.42237  0.93400  0.56830  Biso   1.000  O
  O145     1.0000 0.18400  0.67237  0.81830  Biso   1.000  O
  O146     1.0000 0.31600  0.32763  0.31830  Biso   1.000  O
  O147     1.0000 0.57763  0.93400  0.06830  Biso   1.000  O
  O148     1.0000 0.92237  0.06600  0.56830  Biso   1.000  O
  O149     1.0000 0.31600  0.67237  0.18170  Biso   1.000  O
  O150     1.0000 0.18400  0.32763  0.68170  Biso   1.000  O
  O151     1.0000 0.92237  0.93400  0.93170  Biso   1.000  O
  O152     1.0000 0.57763  0.06600  0.43170  Biso   1.000  O
  O153     1.0000 0.68400  0.17237  0.31830  Biso   1.000  O
  O154     1.0000 0.81600  0.82763  0.81830  Biso   1.000  O
  O155     1.0000 0.07763  0.43400  0.56830  Biso   1.000  O
  O156     1.0000 0.42237  0.56600  0.06830  Biso   1.000  O
  O157     1.0000 0.81600  0.17237  0.68170  Biso   1.000  O
  O158     1.0000 0.68400  0.82763  0.18170  Biso   1.000  O
  O159     1.0000 0.42237  0.43400  0.43170  Biso   1.000  O
  O160     1.0000 0.07763  0.56600  0.93170  Biso   1.000  O
  C321     1.0000 0.88160  0.26490  0.16830  Biso   1.000  C
  C322     1.0000 0.61840  0.73510  0.66830  Biso   1.000  C
  C323     1.0000 0.98510  0.63160  0.41830  Biso   1.000  C
  C324     1.0000 0.51490  0.36840  0.91830  Biso   1.000  C
  C325     1.0000 0.61840  0.26490  0.83170  Biso   1.000  C
  C326     1.0000 0.88160  0.73510  0.33170  Biso   1.000  C
  C327     1.0000 0.51490  0.63160  0.58170  Biso   1.000  C
  C328     1.0000 0.98510  0.36840  0.08170  Biso   1.000  C
  C329     1.0000 0.38160  0.76490  0.66830  Biso   1.000  C
  C330     1.0000 0.11840  0.23510  0.16830  Biso   1.000  C
  C331     1.0000 0.48510  0.13160  0.91830  Biso   1.000  C
  C332     1.0000 0.01490  0.86840  0.41830  Biso   1.000  C
  C333     1.0000 0.11840  0.76490  0.33170  Biso   1.000  C
  C334     1.0000 0.38160  0.23510  0.83170  Biso   1.000  C
  C335     1.0000 0.01490  0.13160  0.08170  Biso   1.000  C
  C336     1.0000 0.48510  0.86840  0.58170  Biso   1.000  C
  C337     1.0000 0.11840  0.73510  0.83170  Biso   1.000  C
  C338     1.0000 0.38160  0.26490  0.33170  Biso   1.000  C
  C339     1.0000 0.51490  0.86840  0.08170  Biso   1.000  C
  C340     1.0000 0.98510  0.13160  0.58170  Biso   1.000  C
  C341     1.0000 0.38160  0.73510  0.16830  Biso   1.000  C
  C342     1.0000 0.11840  0.26490  0.66830  Biso   1.000  C
  C343     1.0000 0.98510  0.86840  0.91830  Biso   1.000  C
  C344     1.0000 0.51490  0.13160  0.41830  Biso   1.000  C
  C345     1.0000 0.61840  0.23510  0.33170  Biso   1.000  C
  C346     1.0000 0.88160  0.76490  0.83170  Biso   1.000  C
  C347     1.0000 0.01490  0.36840  0.58170  Biso   1.000  C
  C348     1.0000 0.48510  0.63160  0.08170  Biso   1.000  C
  C349     1.0000 0.88160  0.23510  0.66830  Biso   1.000  C
  C350     1.0000 0.61840  0.76490  0.16830  Biso   1.000  C
  C351     1.0000 0.48510  0.36840  0.41830  Biso   1.000  C
  C352     1.0000 0.01490  0.63160  0.91830  Biso   1.000  C
  F1       1.0000 0.88700  0.21810  0.17270  Biso   1.000  F
  F2       1.0000 0.61300  0.78190  0.67270  Biso   1.000  F
  F3       1.0000 0.03190  0.63700  0.42270  Biso   1.000  F
  F4       1.0000 0.46810  0.36300  0.92270  Biso   1.000  F
  F5       1.0000 0.61300  0.21810  0.82730  Biso   1.000  F
  F6       1.0000 0.88700  0.78190  0.32730  Biso   1.000  F
  F7       1.0000 0.46810  0.63700  0.57730  Biso   1.000  F
  F8       1.0000 0.03190  0.36300  0.07730  Biso   1.000  F
  F9       1.0000 0.38700  0.71810  0.67270  Biso   1.000  F
  F10      1.0000 0.11300  0.28190  0.17270  Biso   1.000  F
  F11      1.0000 0.53190  0.13700  0.92270  Biso   1.000  F
  F12      1.0000 0.96810  0.86300  0.42270  Biso   1.000  F
  F13      1.0000 0.11300  0.71810  0.32730  Biso   1.000  F
  F14      1.0000 0.38700  0.28190  0.82730  Biso   1.000  F
  F15      1.0000 0.96810  0.13700  0.07730  Biso   1.000  F
  F16      1.0000 0.53190  0.86300  0.57730  Biso   1.000  F
  F17      1.0000 0.11300  0.78190  0.82730  Biso   1.000  F
  F18      1.0000 0.38700  0.21810  0.32730  Biso   1.000  F
  F19      1.0000 0.46810  0.86300  0.07730  Biso   1.000  F
  F20      1.0000 0.03190  0.13700  0.57730  Biso   1.000  F
  F21      1.0000 0.38700  0.78190  0.17270  Biso   1.000  F
  F22      1.0000 0.11300  0.21810  0.67270  Biso   1.000  F
  F23      1.0000 0.03190  0.86300  0.92270  Biso   1.000  F
  F24      1.0000 0.46810  0.13700  0.42270  Biso   1.000  F
  F25      1.0000 0.61300  0.28190  0.32730  Biso   1.000  F
  F26      1.0000 0.88700  0.71810  0.82730  Biso   1.000  F
  F27      1.0000 0.96810  0.36300  0.57730  Biso   1.000  F
  F28      1.0000 0.53190  0.63700  0.07730  Biso   1.000  F
  F29      1.0000 0.88700  0.28190  0.67270  Biso   1.000  F
  F30      1.0000 0.61300  0.71810  0.17270  Biso   1.000  F
  F31      1.0000 0.53190  0.36300  0.42270  Biso   1.000  F
  F32      1.0000 0.96810  0.63700  0.92270  Biso   1.000  F
  F33      1.0000 0.90720  0.28450  0.22180  Biso   1.000  F
  F34      1.0000 0.59280  0.71550  0.72180  Biso   1.000  F
  F35      1.0000 0.96550  0.65720  0.47180  Biso   1.000  F
  F36      1.0000 0.53450  0.34280  0.97180  Biso   1.000  F
  F37      1.0000 0.59280  0.28450  0.77820  Biso   1.000  F
  F38      1.0000 0.90720  0.71550  0.27820  Biso   1.000  F
  F39      1.0000 0.53450  0.65720  0.52820  Biso   1.000  F
  F40      1.0000 0.96550  0.34280  0.02820  Biso   1.000  F
  F41      1.0000 0.40720  0.78450  0.72180  Biso   1.000  F
  F42      1.0000 0.09280  0.21550  0.22180  Biso   1.000  F
  F43      1.0000 0.46550  0.15720  0.97180  Biso   1.000  F
  F44      1.0000 0.03450  0.84280  0.47180  Biso   1.000  F
  F45      1.0000 0.09280  0.78450  0.27820  Biso   1.000  F
  F46      1.0000 0.40720  0.21550  0.77820  Biso   1.000  F
  F47      1.0000 0.03450  0.15720  0.02820  Biso   1.000  F
  F48      1.0000 0.46550  0.84280  0.52820  Biso   1.000  F
  F49      1.0000 0.09280  0.71550  0.77820  Biso   1.000  F
  F50      1.0000 0.40720  0.28450  0.27820  Biso   1.000  F
  F51      1.0000 0.53450  0.84280  0.02820  Biso   1.000  F
  F52      1.0000 0.96550  0.15720  0.52820  Biso   1.000  F
  F53      1.0000 0.40720  0.71550  0.22180  Biso   1.000  F
  F54      1.0000 0.09280  0.28450  0.72180  Biso   1.000  F
  F55      1.0000 0.96550  0.84280  0.97180  Biso   1.000  F
  F56      1.0000 0.53450  0.15720  0.47180  Biso   1.000  F
  F57      1.0000 0.59280  0.21550  0.27820  Biso   1.000  F
  F58      1.0000 0.90720  0.78450  0.77820  Biso   1.000  F
  F59      1.0000 0.03450  0.34280  0.52820  Biso   1.000  F
  F60      1.0000 0.46550  0.65720  0.02820  Biso   1.000  F
  F61      1.0000 0.90720  0.21550  0.72180  Biso   1.000  F
  F62      1.0000 0.59280  0.78450  0.22180  Biso   1.000  F
  F63      1.0000 0.46550  0.34280  0.47180  Biso   1.000  F
  F64      1.0000 0.03450  0.65720  0.97180  Biso   1.000  F
  F65      1.0000 0.89890  0.27910  0.10380  Biso   1.000  F
  F66      1.0000 0.60110  0.72090  0.60380  Biso   1.000  F
  F67      1.0000 0.97090  0.64890  0.35380  Biso   1.000  F
  F68      1.0000 0.52910  0.35110  0.85380  Biso   1.000  F
  F69      1.0000 0.60110  0.27910  0.89620  Biso   1.000  F
  F70      1.0000 0.89890  0.72090  0.39620  Biso   1.000  F
  F71      1.0000 0.52910  0.64890  0.64620  Biso   1.000  F
  F72      1.0000 0.97090  0.35110  0.14620  Biso   1.000  F
  F73      1.0000 0.39890  0.77910  0.60380  Biso   1.000  F
  F74      1.0000 0.10110  0.22090  0.10380  Biso   1.000  F
  F75      1.0000 0.47090  0.14890  0.85380  Biso   1.000  F
  F76      1.0000 0.02910  0.85110  0.35380  Biso   1.000  F
  F77      1.0000 0.10110  0.77910  0.39620  Biso   1.000  F
  F78      1.0000 0.39890  0.22090  0.89620  Biso   1.000  F
  F79      1.0000 0.02910  0.14890  0.14620  Biso   1.000  F
  F80      1.0000 0.47090  0.85110  0.64620  Biso   1.000  F
  F81      1.0000 0.10110  0.72090  0.89620  Biso   1.000  F
  F82      1.0000 0.39890  0.27910  0.39620  Biso   1.000  F
  F83      1.0000 0.52910  0.85110  0.14620  Biso   1.000  F
  F84      1.0000 0.97090  0.14890  0.64620  Biso   1.000  F
  F85      1.0000 0.39890  0.72090  0.10380  Biso   1.000  F
  F86      1.0000 0.10110  0.27910  0.60380  Biso   1.000  F
  F87      1.0000 0.97090  0.85110  0.85380  Biso   1.000  F
  F88      1.0000 0.52910  0.14890  0.35380  Biso   1.000  F
  F89      1.0000 0.60110  0.22090  0.39620  Biso   1.000  F
  F90      1.0000 0.89890  0.77910  0.89620  Biso   1.000  F
  F91      1.0000 0.02910  0.35110  0.64620  Biso   1.000  F
  F92      1.0000 0.47090  0.64890  0.14620  Biso   1.000  F
  F93      1.0000 0.89890  0.22090  0.60380  Biso   1.000  F
  F94      1.0000 0.60110  0.77910  0.10380  Biso   1.000  F
  F95      1.0000 0.47090  0.35110  0.35380  Biso   1.000  F
  F96      1.0000 0.02910  0.64890  0.85380  Biso   1.000  F
  S33      1.0000 0.82720  0.25080  0.17590  Biso   1.000  S
  S34      1.0000 0.67280  0.74920  0.67590  Biso   1.000  S
  S35      1.0000 0.99920  0.57720  0.42590  Biso   1.000  S
  S36      1.0000 0.50080  0.42280  0.92590  Biso   1.000  S
  S37      1.0000 0.67280  0.25080  0.82410  Biso   1.000  S
  S38      1.0000 0.82720  0.74920  0.32410  Biso   1.000  S
  S39      1.0000 0.50080  0.57720  0.57410  Biso   1.000  S
  S40      1.0000 0.99920  0.42280  0.07410  Biso   1.000  S
  S41      1.0000 0.32720  0.75080  0.67590  Biso   1.000  S
  S42      1.0000 0.17280  0.24920  0.17590  Biso   1.000  S
  S43      1.0000 0.49920  0.07720  0.92590  Biso   1.000  S
  S44      1.0000 0.00080  0.92280  0.42590  Biso   1.000  S
  S45      1.0000 0.17280  0.75080  0.32410  Biso   1.000  S
  S46      1.0000 0.32720  0.24920  0.82410  Biso   1.000  S
  S47      1.0000 0.00080  0.07720  0.07410  Biso   1.000  S
  S48      1.0000 0.49920  0.92280  0.57410  Biso   1.000  S
  S49      1.0000 0.17280  0.74920  0.82410  Biso   1.000  S
  S50      1.0000 0.32720  0.25080  0.32410  Biso   1.000  S
  S51      1.0000 0.50080  0.92280  0.07410  Biso   1.000  S
  S52      1.0000 0.99920  0.07720  0.57410  Biso   1.000  S
  S53      1.0000 0.32720  0.74920  0.17590  Biso   1.000  S
  S54      1.0000 0.17280  0.25080  0.67590  Biso   1.000  S
  S55      1.0000 0.99920  0.92280  0.92590  Biso   1.000  S
  S56      1.0000 0.50080  0.07720  0.42590  Biso   1.000  S
  S57      1.0000 0.67280  0.24920  0.32410  Biso   1.000  S
  S58      1.0000 0.82720  0.75080  0.82410  Biso   1.000  S
  S59      1.0000 0.00080  0.42280  0.57410  Biso   1.000  S
  S60      1.0000 0.49920  0.57720  0.07410  Biso   1.000  S
  S61      1.0000 0.82720  0.24920  0.67590  Biso   1.000  S
  S62      1.0000 0.67280  0.75080  0.17590  Biso   1.000  S
  S63      1.0000 0.49920  0.42280  0.42590  Biso   1.000  S
  S64      1.0000 0.00080  0.57720  0.92590  Biso   1.000  S
  O161     1.0000 0.84210  0.20240  0.17270  Biso   1.000  O
  O162     1.0000 0.65790  0.79760  0.67270  Biso   1.000  O
  O163     1.0000 0.04760  0.59210  0.42270  Biso   1.000  O
  O164     1.0000 0.45240  0.40790  0.92270  Biso   1.000  O
  O165     1.0000 0.65790  0.20240  0.82730  Biso   1.000  O
  O166     1.0000 0.84210  0.79760  0.32730  Biso   1.000  O
  O167     1.0000 0.45240  0.59210  0.57730  Biso   1.000  O
  O168     1.0000 0.04760  0.40790  0.07730  Biso   1.000  O
  O169     1.0000 0.34210  0.70240  0.67270  Biso   1.000  O
  O170     1.0000 0.15790  0.29760  0.17270  Biso   1.000  O
  O171     1.0000 0.54760  0.09210  0.92270  Biso   1.000  O
  O172     1.0000 0.95240  0.90790  0.42270  Biso   1.000  O
  O173     1.0000 0.15790  0.70240  0.32730  Biso   1.000  O
  O174     1.0000 0.34210  0.29760  0.82730  Biso   1.000  O
  O175     1.0000 0.95240  0.09210  0.07730  Biso   1.000  O
  O176     1.0000 0.54760  0.90790  0.57730  Biso   1.000  O
  O177     1.0000 0.15790  0.79760  0.82730  Biso   1.000  O
  O178     1.0000 0.34210  0.20240  0.32730  Biso   1.000  O
  O179     1.0000 0.45240  0.90790  0.07730  Biso   1.000  O
  O180     1.0000 0.04760  0.09210  0.57730  Biso   1.000  O
  O181     1.0000 0.34210  0.79760  0.17270  Biso   1.000  O
  O182     1.0000 0.15790  0.20240  0.67270  Biso   1.000  O
  O183     1.0000 0.04760  0.90790  0.92270  Biso   1.000  O
  O184     1.0000 0.45240  0.09210  0.42270  Biso   1.000  O
  O185     1.0000 0.65790  0.29760  0.32730  Biso   1.000  O
  O186     1.0000 0.84210  0.70240  0.82730  Biso   1.000  O
  O187     1.0000 0.95240  0.40790  0.57730  Biso   1.000  O
  O188     1.0000 0.54760  0.59210  0.07730  Biso   1.000  O
  O189     1.0000 0.84210  0.29760  0.67270  Biso   1.000  O
  O190     1.0000 0.65790  0.70240  0.17270  Biso   1.000  O
  O191     1.0000 0.54760  0.40790  0.42270  Biso   1.000  O
  O192     1.0000 0.95240  0.59210  0.92270  Biso   1.000  O
  C353     1.0000 0.88060  0.27780  0.17700  Biso   1.000  C
  C354     1.0000 0.61940  0.72220  0.67700  Biso   1.000  C
  C355     1.0000 0.97220  0.63060  0.42700  Biso   1.000  C
  C356     1.0000 0.52780  0.36940  0.92700  Biso   1.000  C
  C357     1.0000 0.61940  0.27780  0.82300  Biso   1.000  C
  C358     1.0000 0.88060  0.72220  0.32300  Biso   1.000  C
  C359     1.0000 0.52780  0.63060  0.57300  Biso   1.000  C
  C360     1.0000 0.97220  0.36940  0.07300  Biso   1.000  C
  C361     1.0000 0.38060  0.77780  0.67700  Biso   1.000  C
  C362     1.0000 0.11940  0.22220  0.17700  Biso   1.000  C
  C363     1.0000 0.47220  0.13060  0.92700  Biso   1.000  C
  C364     1.0000 0.02780  0.86940  0.42700  Biso   1.000  C
  C365     1.0000 0.11940  0.77780  0.32300  Biso   1.000  C
  C366     1.0000 0.38060  0.22220  0.82300  Biso   1.000  C
  C367     1.0000 0.02780  0.13060  0.07300  Biso   1.000  C
  C368     1.0000 0.47220  0.86940  0.57300  Biso   1.000  C
  C369     1.0000 0.11940  0.72220  0.82300  Biso   1.000  C
  C370     1.0000 0.38060  0.27780  0.32300  Biso   1.000  C
  C371     1.0000 0.52780  0.86940  0.07300  Biso   1.000  C
  C372     1.0000 0.97220  0.13060  0.57300  Biso   1.000  C
  C373     1.0000 0.38060  0.72220  0.17700  Biso   1.000  C
  C374     1.0000 0.11940  0.27780  0.67700  Biso   1.000  C
  C375     1.0000 0.97220  0.86940  0.92700  Biso   1.000  C
  C376     1.0000 0.52780  0.13060  0.42700  Biso   1.000  C
  C377     1.0000 0.61940  0.22220  0.32300  Biso   1.000  C
  C378     1.0000 0.88060  0.77780  0.82300  Biso   1.000  C
  C379     1.0000 0.02780  0.36940  0.57300  Biso   1.000  C
  C380     1.0000 0.47220  0.63060  0.07300  Biso   1.000  C
  C381     1.0000 0.88060  0.22220  0.67700  Biso   1.000  C
  C382     1.0000 0.61940  0.77780  0.17700  Biso   1.000  C
  C383     1.0000 0.47220  0.36940  0.42700  Biso   1.000  C
  C384     1.0000 0.02780  0.63060  0.92700  Biso   1.000  C
  F97      1.0000 0.87620  0.32520  0.15000  Biso   1.000  F
  F98      1.0000 0.62380  0.67480  0.65000  Biso   1.000  F
  F99      1.0000 0.92480  0.62620  0.40000  Biso   1.000  F
  F100     1.0000 0.57520  0.37380  0.90000  Biso   1.000  F
  F101     1.0000 0.62380  0.32520  0.85000  Biso   1.000  F
  F102     1.0000 0.87620  0.67480  0.35000  Biso   1.000  F
  F103     1.0000 0.57520  0.62620  0.60000  Biso   1.000  F
  F104     1.0000 0.92480  0.37380  0.10000  Biso   1.000  F
  F105     1.0000 0.37620  0.82520  0.65000  Biso   1.000  F
  F106     1.0000 0.12380  0.17480  0.15000  Biso   1.000  F
  F107     1.0000 0.42480  0.12620  0.90000  Biso   1.000  F
  F108     1.0000 0.07520  0.87380  0.40000  Biso   1.000  F
  F109     1.0000 0.12380  0.82520  0.35000  Biso   1.000  F
  F110     1.0000 0.37620  0.17480  0.85000  Biso   1.000  F
  F111     1.0000 0.07520  0.12620  0.10000  Biso   1.000  F
  F112     1.0000 0.42480  0.87380  0.60000  Biso   1.000  F
  F113     1.0000 0.12380  0.67480  0.85000  Biso   1.000  F
  F114     1.0000 0.37620  0.32520  0.35000  Biso   1.000  F
  F115     1.0000 0.57520  0.87380  0.10000  Biso   1.000  F
  F116     1.0000 0.92480  0.12620  0.60000  Biso   1.000  F
  F117     1.0000 0.37620  0.67480  0.15000  Biso   1.000  F
  F118     1.0000 0.12380  0.32520  0.65000  Biso   1.000  F
  F119     1.0000 0.92480  0.87380  0.90000  Biso   1.000  F
  F120     1.0000 0.57520  0.12620  0.40000  Biso   1.000  F
  F121     1.0000 0.62380  0.17480  0.35000  Biso   1.000  F
  F122     1.0000 0.87620  0.82520  0.85000  Biso   1.000  F
  F123     1.0000 0.07520  0.37380  0.60000  Biso   1.000  F
  F124     1.0000 0.42480  0.62620  0.10000  Biso   1.000  F
  F125     1.0000 0.87620  0.17480  0.65000  Biso   1.000  F
  F126     1.0000 0.62380  0.82520  0.15000  Biso   1.000  F
  F127     1.0000 0.42480  0.37380  0.40000  Biso   1.000  F
  F128     1.0000 0.07520  0.62620  0.90000  Biso   1.000  F
  F129     1.0000 0.88150  0.27900  0.25900  Biso   1.000  F
  F130     1.0000 0.61850  0.72100  0.75900  Biso   1.000  F
  F131     1.0000 0.97100  0.63150  0.50900  Biso   1.000  F
  F132     1.0000 0.52900  0.36850  0.00900  Biso   1.000  F
  F133     1.0000 0.61850  0.27900  0.74100  Biso   1.000  F
  F134     1.0000 0.88150  0.72100  0.24100  Biso   1.000  F
  F135     1.0000 0.52900  0.63150  0.49100  Biso   1.000  F
  F136     1.0000 0.97100  0.36850  0.99100  Biso   1.000  F
  F137     1.0000 0.38150  0.77900  0.75900  Biso   1.000  F
  F138     1.0000 0.11850  0.22100  0.25900  Biso   1.000  F
  F139     1.0000 0.47100  0.13150  0.00900  Biso   1.000  F
  F140     1.0000 0.02900  0.86850  0.50900  Biso   1.000  F
  F141     1.0000 0.11850  0.77900  0.24100  Biso   1.000  F
  F142     1.0000 0.38150  0.22100  0.74100  Biso   1.000  F
  F143     1.0000 0.02900  0.13150  0.99100  Biso   1.000  F
  F144     1.0000 0.47100  0.86850  0.49100  Biso   1.000  F
  F145     1.0000 0.11850  0.72100  0.74100  Biso   1.000  F
  F146     1.0000 0.38150  0.27900  0.24100  Biso   1.000  F
  F147     1.0000 0.52900  0.86850  0.99100  Biso   1.000  F
  F148     1.0000 0.97100  0.13150  0.49100  Biso   1.000  F
  F149     1.0000 0.38150  0.72100  0.25900  Biso   1.000  F
  F150     1.0000 0.11850  0.27900  0.75900  Biso   1.000  F
  F151     1.0000 0.97100  0.86850  0.00900  Biso   1.000  F
  F152     1.0000 0.52900  0.13150  0.50900  Biso   1.000  F
  F153     1.0000 0.61850  0.22100  0.24100  Biso   1.000  F
  F154     1.0000 0.88150  0.77900  0.74100  Biso   1.000  F
  F155     1.0000 0.02900  0.36850  0.49100  Biso   1.000  F
  F156     1.0000 0.47100  0.63150  0.99100  Biso   1.000  F
  F157     1.0000 0.88150  0.22100  0.75900  Biso   1.000  F
  F158     1.0000 0.61850  0.77900  0.25900  Biso   1.000  F
  F159     1.0000 0.47100  0.36850  0.50900  Biso   1.000  F
  F160     1.0000 0.02900  0.63150  0.00900  Biso   1.000  F
  F161     1.0000 0.89920  0.24130  0.13000  Biso   1.000  F
  F162     1.0000 0.60080  0.75870  0.63000  Biso   1.000  F
  F163     1.0000 0.00870  0.64920  0.38000  Biso   1.000  F
  F164     1.0000 0.49130  0.35080  0.88000  Biso   1.000  F
  F165     1.0000 0.60080  0.24130  0.87000  Biso   1.000  F
  F166     1.0000 0.89920  0.75870  0.37000  Biso   1.000  F
  F167     1.0000 0.49130  0.64920  0.62000  Biso   1.000  F
  F168     1.0000 0.00870  0.35080  0.12000  Biso   1.000  F
  F169     1.0000 0.39920  0.74130  0.63000  Biso   1.000  F
  F170     1.0000 0.10080  0.25870  0.13000  Biso   1.000  F
  F171     1.0000 0.50870  0.14920  0.88000  Biso   1.000  F
  F172     1.0000 0.99130  0.85080  0.38000  Biso   1.000  F
  F173     1.0000 0.10080  0.74130  0.37000  Biso   1.000  F
  F174     1.0000 0.39920  0.25870  0.87000  Biso   1.000  F
  F175     1.0000 0.99130  0.14920  0.12000  Biso   1.000  F
  F176     1.0000 0.50870  0.85080  0.62000  Biso   1.000  F
  F177     1.0000 0.10080  0.75870  0.87000  Biso   1.000  F
  F178     1.0000 0.39920  0.24130  0.37000  Biso   1.000  F
  F179     1.0000 0.49130  0.85080  0.12000  Biso   1.000  F
  F180     1.0000 0.00870  0.14920  0.62000  Biso   1.000  F
  F181     1.0000 0.39920  0.75870  0.13000  Biso   1.000  F
  F182     1.0000 0.10080  0.24130  0.63000  Biso   1.000  F
  F183     1.0000 0.00870  0.85080  0.88000  Biso   1.000  F
  F184     1.0000 0.49130  0.14920  0.38000  Biso   1.000  F
  F185     1.0000 0.60080  0.25870  0.37000  Biso   1.000  F
  F186     1.0000 0.89920  0.74130  0.87000  Biso   1.000  F
  F187     1.0000 0.99130  0.35080  0.62000  Biso   1.000  F
  F188     1.0000 0.50870  0.64920  0.12000  Biso   1.000  F
  F189     1.0000 0.89920  0.25870  0.63000  Biso   1.000  F
  F190     1.0000 0.60080  0.74130  0.13000  Biso   1.000  F
  F191     1.0000 0.50870  0.35080  0.38000  Biso   1.000  F
  F192     1.0000 0.99130  0.64920  0.88000  Biso   1.000  F
  O193     1.0000 0.19380  0.05620  0.12500  Biso   1.000  O
  O194     1.0000 0.30620  0.94380  0.62500  Biso   1.000  O
  O195     1.0000 0.19380  0.94380  0.37500  Biso   1.000  O
  O196     1.0000 0.30620  0.05620  0.87500  Biso   1.000  O
  O197     1.0000 0.69380  0.55620  0.62500  Biso   1.000  O
  O198     1.0000 0.80620  0.44380  0.12500  Biso   1.000  O
  O199     1.0000 0.69380  0.44380  0.87500  Biso   1.000  O
  O200     1.0000 0.80620  0.55620  0.37500  Biso   1.000  O
  O201     1.0000 0.80620  0.94380  0.87500  Biso   1.000  O
  O202     1.0000 0.69380  0.05620  0.37500  Biso   1.000  O
  O203     1.0000 0.30620  0.55620  0.12500  Biso   1.000  O
  O204     1.0000 0.19380  0.44380  0.62500  Biso   1.000  O
  O205     1.0000 0.69380  0.94380  0.12500  Biso   1.000  O
  O206     1.0000 0.80620  0.05620  0.62500  Biso   1.000  O
  O207     1.0000 0.19380  0.55620  0.87500  Biso   1.000  O
  O208     1.0000 0.30620  0.44380  0.37500  Biso   1.000  O
  C385     1.0000 0.23530  0.07710  0.16200  Biso   1.000  C
  C386     1.0000 0.26470  0.92290  0.66200  Biso   1.000  C
  C387     1.0000 0.17290  0.98530  0.41200  Biso   1.000  C
  C388     1.0000 0.32710  0.01470  0.91200  Biso   1.000  C
  C389     1.0000 0.26470  0.07710  0.83800  Biso   1.000  C
  C390     1.0000 0.23530  0.92290  0.33800  Biso   1.000  C
  C391     1.0000 0.32710  0.98530  0.58800  Biso   1.000  C
  C392     1.0000 0.17290  0.01470  0.08800  Biso   1.000  C
  C393     1.0000 0.73530  0.57710  0.66200  Biso   1.000  C
  C394     1.0000 0.76470  0.42290  0.16200  Biso   1.000  C
  C395     1.0000 0.67290  0.48530  0.91200  Biso   1.000  C
  C396     1.0000 0.82710  0.51470  0.41200  Biso   1.000  C
  C397     1.0000 0.76470  0.57710  0.33800  Biso   1.000  C
  C398     1.0000 0.73530  0.42290  0.83800  Biso   1.000  C
  C399     1.0000 0.82710  0.48530  0.08800  Biso   1.000  C
  C400     1.0000 0.67290  0.51470  0.58800  Biso   1.000  C
  C401     1.0000 0.76470  0.92290  0.83800  Biso   1.000  C
  C402     1.0000 0.73530  0.07710  0.33800  Biso   1.000  C
  C403     1.0000 0.32710  0.51470  0.08800  Biso   1.000  C
  C404     1.0000 0.17290  0.48530  0.58800  Biso   1.000  C
  C405     1.0000 0.73530  0.92290  0.16200  Biso   1.000  C
  C406     1.0000 0.76470  0.07710  0.66200  Biso   1.000  C
  C407     1.0000 0.17290  0.51470  0.91200  Biso   1.000  C
  C408     1.0000 0.32710  0.48530  0.41200  Biso   1.000  C
  C409     1.0000 0.26470  0.42290  0.33800  Biso   1.000  C
  C410     1.0000 0.23530  0.57710  0.83800  Biso   1.000  C
  C411     1.0000 0.82710  0.01470  0.58800  Biso   1.000  C
  C412     1.0000 0.67290  0.98530  0.08800  Biso   1.000  C
  C413     1.0000 0.23530  0.42290  0.66200  Biso   1.000  C
  C414     1.0000 0.26470  0.57710  0.16200  Biso   1.000  C
  C415     1.0000 0.67290  0.01470  0.41200  Biso   1.000  C
  C416     1.0000 0.82710  0.98530  0.91200  Biso   1.000  C
  C417     1.0000 0.23600  0.05100  0.22900  Biso   1.000  C
  C418     1.0000 0.26400  0.94900  0.72900  Biso   1.000  C
  C419     1.0000 0.19900  0.98600  0.47900  Biso   1.000  C
  C420     1.0000 0.30100  0.01400  0.97900  Biso   1.000  C
  C421     1.0000 0.26400  0.05100  0.77100  Biso   1.000  C
  C422     1.0000 0.23600  0.94900  0.27100  Biso   1.000  C
  C423     1.0000 0.30100  0.98600  0.52100  Biso   1.000  C
  C424     1.0000 0.19900  0.01400  0.02100  Biso   1.000  C
  C425     1.0000 0.73600  0.55100  0.72900  Biso   1.000  C
  C426     1.0000 0.76400  0.44900  0.22900  Biso   1.000  C
  C427     1.0000 0.69900  0.48600  0.97900  Biso   1.000  C
  C428     1.0000 0.80100  0.51400  0.47900  Biso   1.000  C
  C429     1.0000 0.76400  0.55100  0.27100  Biso   1.000  C
  C430     1.0000 0.73600  0.44900  0.77100  Biso   1.000  C
  C431     1.0000 0.80100  0.48600  0.02100  Biso   1.000  C
  C432     1.0000 0.69900  0.51400  0.52100  Biso   1.000  C
  C433     1.0000 0.76400  0.94900  0.77100  Biso   1.000  C
  C434     1.0000 0.73600  0.05100  0.27100  Biso   1.000  C
  C435     1.0000 0.30100  0.51400  0.02100  Biso   1.000  C
  C436     1.0000 0.19900  0.48600  0.52100  Biso   1.000  C
  C437     1.0000 0.73600  0.94900  0.22900  Biso   1.000  C
  C438     1.0000 0.76400  0.05100  0.72900  Biso   1.000  C
  C439     1.0000 0.19900  0.51400  0.97900  Biso   1.000  C
  C440     1.0000 0.30100  0.48600  0.47900  Biso   1.000  C
  C441     1.0000 0.26400  0.44900  0.27100  Biso   1.000  C
  C442     1.0000 0.23600  0.55100  0.77100  Biso   1.000  C
  C443     1.0000 0.80100  0.01400  0.52100  Biso   1.000  C
  C444     1.0000 0.69900  0.98600  0.02100  Biso   1.000  C
  C445     1.0000 0.23600  0.44900  0.72900  Biso   1.000  C
  C446     1.0000 0.26400  0.55100  0.22900  Biso   1.000  C
  C447     1.0000 0.69900  0.01400  0.47900  Biso   1.000  C
  C448     1.0000 0.80100  0.98600  0.97900  Biso   1.000  C
  C449     1.0000 0.19990  0.01700  0.22100  Biso   1.000  C
  C450     1.0000 0.30010  0.98300  0.72100  Biso   1.000  C
  C451     1.0000 0.23300  0.94990  0.47100  Biso   1.000  C
  C452     1.0000 0.26700  0.05010  0.97100  Biso   1.000  C
  C453     1.0000 0.30010  0.01700  0.77900  Biso   1.000  C
  C454     1.0000 0.19990  0.98300  0.27900  Biso   1.000  C
  C455     1.0000 0.26700  0.94990  0.52900  Biso   1.000  C
  C456     1.0000 0.23300  0.05010  0.02900  Biso   1.000  C
  C457     1.0000 0.69990  0.51700  0.72100  Biso   1.000  C
  C458     1.0000 0.80010  0.48300  0.22100  Biso   1.000  C
  C459     1.0000 0.73300  0.44990  0.97100  Biso   1.000  C
  C460     1.0000 0.76700  0.55010  0.47100  Biso   1.000  C
  C461     1.0000 0.80010  0.51700  0.27900  Biso   1.000  C
  C462     1.0000 0.69990  0.48300  0.77900  Biso   1.000  C
  C463     1.0000 0.76700  0.44990  0.02900  Biso   1.000  C
  C464     1.0000 0.73300  0.55010  0.52900  Biso   1.000  C
  C465     1.0000 0.80010  0.98300  0.77900  Biso   1.000  C
  C466     1.0000 0.69990  0.01700  0.27900  Biso   1.000  C
  C467     1.0000 0.26700  0.55010  0.02900  Biso   1.000  C
  C468     1.0000 0.23300  0.44990  0.52900  Biso   1.000  C
  C469     1.0000 0.69990  0.98300  0.22100  Biso   1.000  C
  C470     1.0000 0.80010  0.01700  0.72100  Biso   1.000  C
  C471     1.0000 0.23300  0.55010  0.97100  Biso   1.000  C
  C472     1.0000 0.26700  0.44990  0.47100  Biso   1.000  C
  C473     1.0000 0.30010  0.48300  0.27900  Biso   1.000  C
  C474     1.0000 0.19990  0.51700  0.77900  Biso   1.000  C
  C475     1.0000 0.76700  0.05010  0.52900  Biso   1.000  C
  C476     1.0000 0.73300  0.94990  0.02900  Biso   1.000  C
  C477     1.0000 0.19990  0.48300  0.72100  Biso   1.000  C
  C478     1.0000 0.30010  0.51700  0.22100  Biso   1.000  C
  C479     1.0000 0.73300  0.05010  0.47100  Biso   1.000  C
  C480     1.0000 0.76700  0.94990  0.97100  Biso   1.000  C
  C481     1.0000 0.18990  0.00630  0.14600  Biso   1.000  C
  C482     1.0000 0.31010  0.99370  0.64600  Biso   1.000  C
  C483     1.0000 0.24370  0.93990  0.39600  Biso   1.000  C
  C484     1.0000 0.25630  0.06010  0.89600  Biso   1.000  C
  C485     1.0000 0.31010  0.00630  0.85400  Biso   1.000  C
  C486     1.0000 0.18990  0.99370  0.35400  Biso   1.000  C
  C487     1.0000 0.25630  0.93990  0.60400  Biso   1.000  C
  C488     1.0000 0.24370  0.06010  0.10400  Biso   1.000  C
  C489     1.0000 0.68990  0.50630  0.64600  Biso   1.000  C
  C490     1.0000 0.81010  0.49370  0.14600  Biso   1.000  C
  C491     1.0000 0.74370  0.43990  0.89600  Biso   1.000  C
  C492     1.0000 0.75630  0.56010  0.39600  Biso   1.000  C
  C493     1.0000 0.81010  0.50630  0.35400  Biso   1.000  C
  C494     1.0000 0.68990  0.49370  0.85400  Biso   1.000  C
  C495     1.0000 0.75630  0.43990  0.10400  Biso   1.000  C
  C496     1.0000 0.74370  0.56010  0.60400  Biso   1.000  C
  C497     1.0000 0.81010  0.99370  0.85400  Biso   1.000  C
  C498     1.0000 0.68990  0.00630  0.35400  Biso   1.000  C
  C499     1.0000 0.25630  0.56010  0.10400  Biso   1.000  C
  C500     1.0000 0.24370  0.43990  0.60400  Biso   1.000  C
  C501     1.0000 0.68990  0.99370  0.14600  Biso   1.000  C
  C502     1.0000 0.81010  0.00630  0.64600  Biso   1.000  C
  C503     1.0000 0.24370  0.56010  0.89600  Biso   1.000  C
  C504     1.0000 0.25630  0.43990  0.39600  Biso   1.000  C
  C505     1.0000 0.31010  0.49370  0.35400  Biso   1.000  C
  C506     1.0000 0.18990  0.50630  0.85400  Biso   1.000  C
  C507     1.0000 0.75630  0.06010  0.60400  Biso   1.000  C
  C508     1.0000 0.74370  0.93990  0.10400  Biso   1.000  C
  C509     1.0000 0.18990  0.49370  0.64600  Biso   1.000  C
  C510     1.0000 0.31010  0.50630  0.14600  Biso   1.000  C
  C511     1.0000 0.74370  0.06010  0.39600  Biso   1.000  C
  C512     1.0000 0.75630  0.93990  0.89600  Biso   1.000  C
