data_image0
_cell_length_a       28.28
_cell_length_b       28.28
_cell_length_c       19.059
_cell_angle_alpha    90
_cell_angle_beta     90
_cell_angle_gamma    90

_symmetry_space_group_name_H-M    "P 1"
_symmetry_int_tables_number       1

loop_
  _symmetry_equiv_pos_as_xyz
  'x, y, z'

loop_
  _atom_site_label
  _atom_site_occupancy
  _atom_site_fract_x
  _atom_site_fract_y
  _atom_site_fract_z
  _atom_site_thermal_displace_type
  _atom_site_B_iso_or_equiv
  _atom_site_type_symbol
  Cu1      1.0000 0.75000  0.25000  0.75000  Biso   1.000  Cu
  Cu2      1.0000 0.25000  0.25000  0.75000  Biso   1.000  Cu
  Cu3      1.0000 0.75000  0.75000  0.75000  Biso   1.000  Cu
  Cu4      1.0000 0.75000  0.25000  0.25000  Biso   1.000  Cu
  Cu5      1.0000 0.00000  0.50000  0.50000  Biso   1.000  Cu
  Cu6      1.0000 0.00000  0.00000  0.50000  Biso   1.000  Cu
  Cu7      1.0000 0.50000  0.50000  0.50000  Biso   1.000  Cu
  Cu8      1.0000 0.00000  0.50000  0.00000  Biso   1.000  Cu
  Cu9      1.0000 0.25000  0.75000  0.25000  Biso   1.000  Cu
  Cu10     1.0000 0.75000  0.75000  0.25000  Biso   1.000  Cu
  Cu11     1.0000 0.25000  0.25000  0.25000  Biso   1.000  Cu
  Cu12     1.0000 0.25000  0.75000  0.75000  Biso   1.000  Cu
  Cu13     1.0000 0.50000  0.00000  0.00000  Biso   1.000  Cu
  Cu14     1.0000 0.50000  0.50000  0.00000  Biso   1.000  Cu
  Cu15     1.0000 0.00000  0.00000  0.00000  Biso   1.000  Cu
  Cu16     1.0000 0.50000  0.00000  0.50000  Biso   1.000  Cu
  N1       1.0000 0.71020  0.30110  0.70160  Biso   1.000  N
  N2       1.0000 0.28980  0.19890  0.70160  Biso   1.000  N
  N3       1.0000 0.71020  0.69890  0.79840  Biso   1.000  N
  N4       1.0000 0.78980  0.30110  0.29840  Biso   1.000  N
  N5       1.0000 0.94890  0.53980  0.54840  Biso   1.000  N
  N6       1.0000 0.05110  0.96020  0.54840  Biso   1.000  N
  N7       1.0000 0.55110  0.53980  0.45160  Biso   1.000  N
  N8       1.0000 0.94890  0.46020  0.95160  Biso   1.000  N
  N9       1.0000 0.21020  0.80110  0.20160  Biso   1.000  N
  N10      1.0000 0.78980  0.69890  0.20160  Biso   1.000  N
  N11      1.0000 0.21020  0.19890  0.29840  Biso   1.000  N
  N12      1.0000 0.28980  0.80110  0.79840  Biso   1.000  N
  N13      1.0000 0.44890  0.03980  0.04840  Biso   1.000  N
  N14      1.0000 0.55110  0.46020  0.04840  Biso   1.000  N
  N15      1.0000 0.05110  0.03980  0.95160  Biso   1.000  N
  N16      1.0000 0.44890  0.96020  0.45160  Biso   1.000  N
  N17      1.0000 0.28980  0.69890  0.29840  Biso   1.000  N
  N18      1.0000 0.71020  0.80110  0.29840  Biso   1.000  N
  N19      1.0000 0.28980  0.30110  0.20160  Biso   1.000  N
  N20      1.0000 0.21020  0.69890  0.70160  Biso   1.000  N
  N21      1.0000 0.55110  0.96020  0.95160  Biso   1.000  N
  N22      1.0000 0.44890  0.53980  0.95160  Biso   1.000  N
  N23      1.0000 0.94890  0.96020  0.04840  Biso   1.000  N
  N24      1.0000 0.55110  0.03980  0.54840  Biso   1.000  N
  N25      1.0000 0.78980  0.19890  0.79840  Biso   1.000  N
  N26      1.0000 0.21020  0.30110  0.79840  Biso   1.000  N
  N27      1.0000 0.78980  0.80110  0.70160  Biso   1.000  N
  N28      1.0000 0.71020  0.19890  0.20160  Biso   1.000  N
  N29      1.0000 0.05110  0.46020  0.45160  Biso   1.000  N
  N30      1.0000 0.94890  0.03980  0.45160  Biso   1.000  N
  N31      1.0000 0.44890  0.46020  0.54840  Biso   1.000  N
  N32      1.0000 0.05110  0.53980  0.04840  Biso   1.000  N
  C1       1.0000 0.72870  0.33650  0.65890  Biso   1.000  C
  C2       1.0000 0.27130  0.16350  0.65890  Biso   1.000  C
  C3       1.0000 0.72870  0.66350  0.84110  Biso   1.000  C
  C4       1.0000 0.77130  0.33650  0.34110  Biso   1.000  C
  C5       1.0000 0.91350  0.52130  0.59110  Biso   1.000  C
  C6       1.0000 0.08650  0.97870  0.59110  Biso   1.000  C
  C7       1.0000 0.58650  0.52130  0.40890  Biso   1.000  C
  C8       1.0000 0.91350  0.47870  0.90890  Biso   1.000  C
  C9       1.0000 0.22870  0.83650  0.15890  Biso   1.000  C
  C10      1.0000 0.77130  0.66350  0.15890  Biso   1.000  C
  C11      1.0000 0.22870  0.16350  0.34110  Biso   1.000  C
  C12      1.0000 0.27130  0.83650  0.84110  Biso   1.000  C
  C13      1.0000 0.41350  0.02130  0.09110  Biso   1.000  C
  C14      1.0000 0.58650  0.47870  0.09110  Biso   1.000  C
  C15      1.0000 0.08650  0.02130  0.90890  Biso   1.000  C
  C16      1.0000 0.41350  0.97870  0.40890  Biso   1.000  C
  C17      1.0000 0.27130  0.66350  0.34110  Biso   1.000  C
  C18      1.0000 0.72870  0.83650  0.34110  Biso   1.000  C
  C19      1.0000 0.27130  0.33650  0.15890  Biso   1.000  C
  C20      1.0000 0.22870  0.66350  0.65890  Biso   1.000  C
  C21      1.0000 0.58650  0.97870  0.90890  Biso   1.000  C
  C22      1.0000 0.41350  0.52130  0.90890  Biso   1.000  C
  C23      1.0000 0.91350  0.97870  0.09110  Biso   1.000  C
  C24      1.0000 0.58650  0.02130  0.59110  Biso   1.000  C
  C25      1.0000 0.77130  0.16350  0.84110  Biso   1.000  C
  C26      1.0000 0.22870  0.33650  0.84110  Biso   1.000  C
  C27      1.0000 0.77130  0.83650  0.65890  Biso   1.000  C
  C28      1.0000 0.72870  0.16350  0.15890  Biso   1.000  C
  C29      1.0000 0.08650  0.47870  0.40890  Biso   1.000  C
  C30      1.0000 0.91350  0.02130  0.40890  Biso   1.000  C
  C31      1.0000 0.41350  0.47870  0.59110  Biso   1.000  C
  C32      1.0000 0.08650  0.52130  0.09110  Biso   1.000  C
  H1       1.0000 0.76120  0.33860  0.65210  Biso   1.000  H
  H2       1.0000 0.23880  0.16140  0.65210  Biso   1.000  H
  H3       1.0000 0.76120  0.66140  0.84790  Biso   1.000  H
  H4       1.0000 0.73880  0.33860  0.34790  Biso   1.000  H
  H5       1.0000 0.91140  0.48880  0.59790  Biso   1.000  H
  H6       1.0000 0.08860  0.01120  0.59790  Biso   1.000  H
  H7       1.0000 0.58860  0.48880  0.40210  Biso   1.000  H
  H8       1.0000 0.91140  0.51120  0.90210  Biso   1.000  H
  H9       1.0000 0.26120  0.83860  0.15210  Biso   1.000  H
  H10      1.0000 0.73880  0.66140  0.15210  Biso   1.000  H
  H11      1.0000 0.26120  0.16140  0.34790  Biso   1.000  H
  H12      1.0000 0.23880  0.83860  0.84790  Biso   1.000  H
  H13      1.0000 0.41140  0.98880  0.09790  Biso   1.000  H
  H14      1.0000 0.58860  0.51120  0.09790  Biso   1.000  H
  H15      1.0000 0.08860  0.98880  0.90210  Biso   1.000  H
  H16      1.0000 0.41140  0.01120  0.40210  Biso   1.000  H
  H17      1.0000 0.23880  0.66140  0.34790  Biso   1.000  H
  H18      1.0000 0.76120  0.83860  0.34790  Biso   1.000  H
  H19      1.0000 0.23880  0.33860  0.15210  Biso   1.000  H
  H20      1.0000 0.26120  0.66140  0.65210  Biso   1.000  H
  H21      1.0000 0.58860  0.01120  0.90210  Biso   1.000  H
  H22      1.0000 0.41140  0.48880  0.90210  Biso   1.000  H
  H23      1.0000 0.91140  0.01120  0.09790  Biso   1.000  H
  H24      1.0000 0.58860  0.98880  0.59790  Biso   1.000  H
  H25      1.0000 0.73880  0.16140  0.84790  Biso   1.000  H
  H26      1.0000 0.26120  0.33860  0.84790  Biso   1.000  H
  H27      1.0000 0.73880  0.83860  0.65210  Biso   1.000  H
  H28      1.0000 0.76120  0.16140  0.15210  Biso   1.000  H
  H29      1.0000 0.08860  0.51120  0.40210  Biso   1.000  H
  H30      1.0000 0.91140  0.98880  0.40210  Biso   1.000  H
  H31      1.0000 0.41140  0.51120  0.59790  Biso   1.000  H
  H32      1.0000 0.08860  0.48880  0.09790  Biso   1.000  H
  C33      1.0000 0.69860  0.36860  0.62640  Biso   1.000  C
  C34      1.0000 0.30140  0.13140  0.62640  Biso   1.000  C
  C35      1.0000 0.69860  0.63140  0.87360  Biso   1.000  C
  C36      1.0000 0.80140  0.36860  0.37360  Biso   1.000  C
  C37      1.0000 0.88140  0.55140  0.62360  Biso   1.000  C
  C38      1.0000 0.11860  0.94860  0.62360  Biso   1.000  C
  C39      1.0000 0.61860  0.55140  0.37640  Biso   1.000  C
  C40      1.0000 0.88140  0.44860  0.87640  Biso   1.000  C
  C41      1.0000 0.19860  0.86860  0.12640  Biso   1.000  C
  C42      1.0000 0.80140  0.63140  0.12640  Biso   1.000  C
  C43      1.0000 0.19860  0.13140  0.37360  Biso   1.000  C
  C44      1.0000 0.30140  0.86860  0.87360  Biso   1.000  C
  C45      1.0000 0.38140  0.05140  0.12360  Biso   1.000  C
  C46      1.0000 0.61860  0.44860  0.12360  Biso   1.000  C
  C47      1.0000 0.11860  0.05140  0.87640  Biso   1.000  C
  C48      1.0000 0.38140  0.94860  0.37640  Biso   1.000  C
  C49      1.0000 0.30140  0.63140  0.37360  Biso   1.000  C
  C50      1.0000 0.69860  0.86860  0.37360  Biso   1.000  C
  C51      1.0000 0.30140  0.36860  0.12640  Biso   1.000  C
  C52      1.0000 0.19860  0.63140  0.62640  Biso   1.000  C
  C53      1.0000 0.61860  0.94860  0.87640  Biso   1.000  C
  C54      1.0000 0.38140  0.55140  0.87640  Biso   1.000  C
  C55      1.0000 0.88140  0.94860  0.12360  Biso   1.000  C
  C56      1.0000 0.61860  0.05140  0.62360  Biso   1.000  C
  C57      1.0000 0.80140  0.13140  0.87360  Biso   1.000  C
  C58      1.0000 0.19860  0.36860  0.87360  Biso   1.000  C
  C59      1.0000 0.80140  0.86860  0.62640  Biso   1.000  C
  C60      1.0000 0.69860  0.13140  0.12640  Biso   1.000  C
  C61      1.0000 0.11860  0.44860  0.37640  Biso   1.000  C
  C62      1.0000 0.88140  0.05140  0.37640  Biso   1.000  C
  C63      1.0000 0.38140  0.44860  0.62360  Biso   1.000  C
  C64      1.0000 0.11860  0.55140  0.12360  Biso   1.000  C
  H33      1.0000 0.71100  0.39220  0.59780  Biso   1.000  H
  H34      1.0000 0.28900  0.10780  0.59780  Biso   1.000  H
  H35      1.0000 0.71100  0.60780  0.90220  Biso   1.000  H
  H36      1.0000 0.78900  0.39220  0.40220  Biso   1.000  H
  H37      1.0000 0.85780  0.53900  0.65220  Biso   1.000  H
  H38      1.0000 0.14220  0.96100  0.65220  Biso   1.000  H
  H39      1.0000 0.64220  0.53900  0.34780  Biso   1.000  H
  H40      1.0000 0.85780  0.46100  0.84780  Biso   1.000  H
  H41      1.0000 0.21100  0.89220  0.09780  Biso   1.000  H
  H42      1.0000 0.78900  0.60780  0.09780  Biso   1.000  H
  H43      1.0000 0.21100  0.10780  0.40220  Biso   1.000  H
  H44      1.0000 0.28900  0.89220  0.90220  Biso   1.000  H
  H45      1.0000 0.35780  0.03900  0.15220  Biso   1.000  H
  H46      1.0000 0.64220  0.46100  0.15220  Biso   1.000  H
  H47      1.0000 0.14220  0.03900  0.84780  Biso   1.000  H
  H48      1.0000 0.35780  0.96100  0.34780  Biso   1.000  H
  H49      1.0000 0.28900  0.60780  0.40220  Biso   1.000  H
  H50      1.0000 0.71100  0.89220  0.40220  Biso   1.000  H
  H51      1.0000 0.28900  0.39220  0.09780  Biso   1.000  H
  H52      1.0000 0.21100  0.60780  0.59780  Biso   1.000  H
  H53      1.0000 0.64220  0.96100  0.84780  Biso   1.000  H
  H54      1.0000 0.35780  0.53900  0.84780  Biso   1.000  H
  H55      1.0000 0.85780  0.96100  0.15220  Biso   1.000  H
  H56      1.0000 0.64220  0.03900  0.65220  Biso   1.000  H
  H57      1.0000 0.78900  0.10780  0.90220  Biso   1.000  H
  H58      1.0000 0.21100  0.39220  0.90220  Biso   1.000  H
  H59      1.0000 0.78900  0.89220  0.59780  Biso   1.000  H
  H60      1.0000 0.71100  0.10780  0.09780  Biso   1.000  H
  H61      1.0000 0.14220  0.46100  0.34780  Biso   1.000  H
  H62      1.0000 0.85780  0.03900  0.34780  Biso   1.000  H
  H63      1.0000 0.35780  0.46100  0.65220  Biso   1.000  H
  H64      1.0000 0.14220  0.53900  0.15220  Biso   1.000  H
  C65      1.0000 0.65000  0.36530  0.63650  Biso   1.000  C
  C66      1.0000 0.35000  0.13470  0.63650  Biso   1.000  C
  C67      1.0000 0.65000  0.63470  0.86350  Biso   1.000  C
  C68      1.0000 0.85000  0.36530  0.36350  Biso   1.000  C
  C69      1.0000 0.88470  0.60000  0.61350  Biso   1.000  C
  C70      1.0000 0.11530  0.90000  0.61350  Biso   1.000  C
  C71      1.0000 0.61530  0.60000  0.38650  Biso   1.000  C
  C72      1.0000 0.88470  0.40000  0.88650  Biso   1.000  C
  C73      1.0000 0.15000  0.86530  0.13650  Biso   1.000  C
  C74      1.0000 0.85000  0.63470  0.13650  Biso   1.000  C
  C75      1.0000 0.15000  0.13470  0.36350  Biso   1.000  C
  C76      1.0000 0.35000  0.86530  0.86350  Biso   1.000  C
  C77      1.0000 0.38470  0.10000  0.11350  Biso   1.000  C
  C78      1.0000 0.61530  0.40000  0.11350  Biso   1.000  C
  C79      1.0000 0.11530  0.10000  0.88650  Biso   1.000  C
  C80      1.0000 0.38470  0.90000  0.38650  Biso   1.000  C
  C81      1.0000 0.35000  0.63470  0.36350  Biso   1.000  C
  C82      1.0000 0.65000  0.86530  0.36350  Biso   1.000  C
  C83      1.0000 0.35000  0.36530  0.13650  Biso   1.000  C
  C84      1.0000 0.15000  0.63470  0.63650  Biso   1.000  C
  C85      1.0000 0.61530  0.90000  0.88650  Biso   1.000  C
  C86      1.0000 0.38470  0.60000  0.88650  Biso   1.000  C
  C87      1.0000 0.88470  0.90000  0.11350  Biso   1.000  C
  C88      1.0000 0.61530  0.10000  0.61350  Biso   1.000  C
  C89      1.0000 0.85000  0.13470  0.86350  Biso   1.000  C
  C90      1.0000 0.15000  0.36530  0.86350  Biso   1.000  C
  C91      1.0000 0.85000  0.86530  0.63650  Biso   1.000  C
  C92      1.0000 0.65000  0.13470  0.13650  Biso   1.000  C
  C93      1.0000 0.11530  0.40000  0.38650  Biso   1.000  C
  C94      1.0000 0.88470  0.10000  0.38650  Biso   1.000  C
  C95      1.0000 0.38470  0.40000  0.61350  Biso   1.000  C
  C96      1.0000 0.11530  0.60000  0.11350  Biso   1.000  C
  C97      1.0000 0.63160  0.33000  0.67920  Biso   1.000  C
  C98      1.0000 0.36840  0.17000  0.67920  Biso   1.000  C
  C99      1.0000 0.63160  0.67000  0.82080  Biso   1.000  C
  C100     1.0000 0.86840  0.33000  0.32080  Biso   1.000  C
  C101     1.0000 0.92000  0.61840  0.57080  Biso   1.000  C
  C102     1.0000 0.08000  0.88160  0.57080  Biso   1.000  C
  C103     1.0000 0.58000  0.61840  0.42920  Biso   1.000  C
  C104     1.0000 0.92000  0.38160  0.92920  Biso   1.000  C
  C105     1.0000 0.13160  0.83000  0.17920  Biso   1.000  C
  C106     1.0000 0.86840  0.67000  0.17920  Biso   1.000  C
  C107     1.0000 0.13160  0.17000  0.32080  Biso   1.000  C
  C108     1.0000 0.36840  0.83000  0.82080  Biso   1.000  C
  C109     1.0000 0.42000  0.11840  0.07080  Biso   1.000  C
  C110     1.0000 0.58000  0.38160  0.07080  Biso   1.000  C
  C111     1.0000 0.08000  0.11840  0.92920  Biso   1.000  C
  C112     1.0000 0.42000  0.88160  0.42920  Biso   1.000  C
  C113     1.0000 0.36840  0.67000  0.32080  Biso   1.000  C
  C114     1.0000 0.63160  0.83000  0.32080  Biso   1.000  C
  C115     1.0000 0.36840  0.33000  0.17920  Biso   1.000  C
  C116     1.0000 0.13160  0.67000  0.67920  Biso   1.000  C
  C117     1.0000 0.58000  0.88160  0.92920  Biso   1.000  C
  C118     1.0000 0.42000  0.61840  0.92920  Biso   1.000  C
  C119     1.0000 0.92000  0.88160  0.07080  Biso   1.000  C
  C120     1.0000 0.58000  0.11840  0.57080  Biso   1.000  C
  C121     1.0000 0.86840  0.17000  0.82080  Biso   1.000  C
  C122     1.0000 0.13160  0.33000  0.82080  Biso   1.000  C
  C123     1.0000 0.86840  0.83000  0.67920  Biso   1.000  C
  C124     1.0000 0.63160  0.17000  0.17920  Biso   1.000  C
  C125     1.0000 0.08000  0.38160  0.42920  Biso   1.000  C
  C126     1.0000 0.92000  0.11840  0.42920  Biso   1.000  C
  C127     1.0000 0.42000  0.38160  0.57080  Biso   1.000  C
  C128     1.0000 0.08000  0.61840  0.07080  Biso   1.000  C
  H65      1.0000 0.59910  0.32790  0.68600  Biso   1.000  H
  H66      1.0000 0.40090  0.17210  0.68600  Biso   1.000  H
  H67      1.0000 0.59910  0.67210  0.81400  Biso   1.000  H
  H68      1.0000 0.90090  0.32790  0.31400  Biso   1.000  H
  H69      1.0000 0.92210  0.65090  0.56400  Biso   1.000  H
  H70      1.0000 0.07790  0.84910  0.56400  Biso   1.000  H
  H71      1.0000 0.57790  0.65090  0.43600  Biso   1.000  H
  H72      1.0000 0.92210  0.34910  0.93600  Biso   1.000  H
  H73      1.0000 0.09910  0.82790  0.18600  Biso   1.000  H
  H74      1.0000 0.90090  0.67210  0.18600  Biso   1.000  H
  H75      1.0000 0.09910  0.17210  0.31400  Biso   1.000  H
  H76      1.0000 0.40090  0.82790  0.81400  Biso   1.000  H
  H77      1.0000 0.42210  0.15090  0.06400  Biso   1.000  H
  H78      1.0000 0.57790  0.34910  0.06400  Biso   1.000  H
  H79      1.0000 0.07790  0.15090  0.93600  Biso   1.000  H
  H80      1.0000 0.42210  0.84910  0.43600  Biso   1.000  H
  H81      1.0000 0.40090  0.67210  0.31400  Biso   1.000  H
  H82      1.0000 0.59910  0.82790  0.31400  Biso   1.000  H
  H83      1.0000 0.40090  0.32790  0.18600  Biso   1.000  H
  H84      1.0000 0.09910  0.67210  0.68600  Biso   1.000  H
  H85      1.0000 0.57790  0.84910  0.93600  Biso   1.000  H
  H86      1.0000 0.42210  0.65090  0.93600  Biso   1.000  H
  H87      1.0000 0.92210  0.84910  0.06400  Biso   1.000  H
  H88      1.0000 0.57790  0.15090  0.56400  Biso   1.000  H
  H89      1.0000 0.90090  0.17210  0.81400  Biso   1.000  H
  H90      1.0000 0.09910  0.32790  0.81400  Biso   1.000  H
  H91      1.0000 0.90090  0.82790  0.68600  Biso   1.000  H
  H92      1.0000 0.59910  0.17210  0.18600  Biso   1.000  H
  H93      1.0000 0.07790  0.34910  0.43600  Biso   1.000  H
  H94      1.0000 0.92210  0.15090  0.43600  Biso   1.000  H
  H95      1.0000 0.42210  0.34910  0.56400  Biso   1.000  H
  H96      1.0000 0.07790  0.65090  0.06400  Biso   1.000  H
  C129     1.0000 0.66160  0.29790  0.71170  Biso   1.000  C
  C130     1.0000 0.33840  0.20210  0.71170  Biso   1.000  C
  C131     1.0000 0.66160  0.70210  0.78830  Biso   1.000  C
  C132     1.0000 0.83840  0.29790  0.28830  Biso   1.000  C
  C133     1.0000 0.95210  0.58840  0.53830  Biso   1.000  C
  C134     1.0000 0.04790  0.91160  0.53830  Biso   1.000  C
  C135     1.0000 0.54790  0.58840  0.46170  Biso   1.000  C
  C136     1.0000 0.95210  0.41160  0.96170  Biso   1.000  C
  C137     1.0000 0.16160  0.79790  0.21170  Biso   1.000  C
  C138     1.0000 0.83840  0.70210  0.21170  Biso   1.000  C
  C139     1.0000 0.16160  0.20210  0.28830  Biso   1.000  C
  C140     1.0000 0.33840  0.79790  0.78830  Biso   1.000  C
  C141     1.0000 0.45210  0.08840  0.03830  Biso   1.000  C
  C142     1.0000 0.54790  0.41160  0.03830  Biso   1.000  C
  C143     1.0000 0.04790  0.08840  0.96170  Biso   1.000  C
  C144     1.0000 0.45210  0.91160  0.46170  Biso   1.000  C
  C145     1.0000 0.33840  0.70210  0.28830  Biso   1.000  C
  C146     1.0000 0.66160  0.79790  0.28830  Biso   1.000  C
  C147     1.0000 0.33840  0.29790  0.21170  Biso   1.000  C
  C148     1.0000 0.16160  0.70210  0.71170  Biso   1.000  C
  C149     1.0000 0.54790  0.91160  0.96170  Biso   1.000  C
  C150     1.0000 0.45210  0.58840  0.96170  Biso   1.000  C
  C151     1.0000 0.95210  0.91160  0.03830  Biso   1.000  C
  C152     1.0000 0.54790  0.08840  0.53830  Biso   1.000  C
  C153     1.0000 0.83840  0.20210  0.78830  Biso   1.000  C
  C154     1.0000 0.16160  0.29790  0.78830  Biso   1.000  C
  C155     1.0000 0.83840  0.79790  0.71170  Biso   1.000  C
  C156     1.0000 0.66160  0.20210  0.21170  Biso   1.000  C
  C157     1.0000 0.04790  0.41160  0.46170  Biso   1.000  C
  C158     1.0000 0.95210  0.08840  0.46170  Biso   1.000  C
  C159     1.0000 0.45210  0.41160  0.53830  Biso   1.000  C
  C160     1.0000 0.04790  0.58840  0.03830  Biso   1.000  C
  H97      1.0000 0.64930  0.27430  0.74030  Biso   1.000  H
  H98      1.0000 0.35070  0.22570  0.74030  Biso   1.000  H
  H99      1.0000 0.64930  0.72570  0.75970  Biso   1.000  H
  H100     1.0000 0.85070  0.27430  0.25970  Biso   1.000  H
  H101     1.0000 0.97570  0.60070  0.50970  Biso   1.000  H
  H102     1.0000 0.02430  0.89930  0.50970  Biso   1.000  H
  H103     1.0000 0.52430  0.60070  0.49030  Biso   1.000  H
  H104     1.0000 0.97570  0.39930  0.99030  Biso   1.000  H
  H105     1.0000 0.14930  0.77430  0.24030  Biso   1.000  H
  H106     1.0000 0.85070  0.72570  0.24030  Biso   1.000  H
  H107     1.0000 0.14930  0.22570  0.25970  Biso   1.000  H
  H108     1.0000 0.35070  0.77430  0.75970  Biso   1.000  H
  H109     1.0000 0.47570  0.10070  0.00970  Biso   1.000  H
  H110     1.0000 0.52430  0.39930  0.00970  Biso   1.000  H
  H111     1.0000 0.02430  0.10070  0.99030  Biso   1.000  H
  H112     1.0000 0.47570  0.89930  0.49030  Biso   1.000  H
  H113     1.0000 0.35070  0.72570  0.25970  Biso   1.000  H
  H114     1.0000 0.64930  0.77430  0.25970  Biso   1.000  H
  H115     1.0000 0.35070  0.27430  0.24030  Biso   1.000  H
  H116     1.0000 0.14930  0.72570  0.74030  Biso   1.000  H
  H117     1.0000 0.52430  0.89930  0.99030  Biso   1.000  H
  H118     1.0000 0.47570  0.60070  0.99030  Biso   1.000  H
  H119     1.0000 0.97570  0.89930  0.00970  Biso   1.000  H
  H120     1.0000 0.52430  0.10070  0.50970  Biso   1.000  H
  H121     1.0000 0.85070  0.22570  0.75970  Biso   1.000  H
  H122     1.0000 0.14930  0.27430  0.75970  Biso   1.000  H
  H123     1.0000 0.85070  0.77430  0.74030  Biso   1.000  H
  H124     1.0000 0.64930  0.22570  0.24030  Biso   1.000  H
  H125     1.0000 0.02430  0.39930  0.49030  Biso   1.000  H
  H126     1.0000 0.97570  0.10070  0.49030  Biso   1.000  H
  H127     1.0000 0.47570  0.39930  0.50970  Biso   1.000  H
  H128     1.0000 0.02430  0.60070  0.00970  Biso   1.000  H
  N33      1.0000 0.54910  0.45660  0.54130  Biso   1.000  N
  N34      1.0000 0.45090  0.04340  0.54130  Biso   1.000  N
  N35      1.0000 0.54910  0.54340  0.95870  Biso   1.000  N
  N36      1.0000 0.95090  0.45660  0.45870  Biso   1.000  N
  N37      1.0000 0.79340  0.70090  0.70870  Biso   1.000  N
  N38      1.0000 0.20660  0.79910  0.70870  Biso   1.000  N
  N39      1.0000 0.70660  0.70090  0.29130  Biso   1.000  N
  N40      1.0000 0.79340  0.29910  0.79130  Biso   1.000  N
  N41      1.0000 0.04910  0.95660  0.04130  Biso   1.000  N
  N42      1.0000 0.95090  0.54340  0.04130  Biso   1.000  N
  N43      1.0000 0.04910  0.04340  0.45870  Biso   1.000  N
  N44      1.0000 0.45090  0.95660  0.95870  Biso   1.000  N
  N45      1.0000 0.29340  0.20090  0.20870  Biso   1.000  N
  N46      1.0000 0.70660  0.29910  0.20870  Biso   1.000  N
  N47      1.0000 0.20660  0.20090  0.79130  Biso   1.000  N
  N48      1.0000 0.29340  0.79910  0.29130  Biso   1.000  N
  N49      1.0000 0.45090  0.54340  0.45870  Biso   1.000  N
  N50      1.0000 0.54910  0.95660  0.45870  Biso   1.000  N
  N51      1.0000 0.45090  0.45660  0.04130  Biso   1.000  N
  N52      1.0000 0.04910  0.54340  0.54130  Biso   1.000  N
  N53      1.0000 0.70660  0.79910  0.79130  Biso   1.000  N
  N54      1.0000 0.29340  0.70090  0.79130  Biso   1.000  N
  N55      1.0000 0.79340  0.79910  0.20870  Biso   1.000  N
  N56      1.0000 0.70660  0.20090  0.70870  Biso   1.000  N
  N57      1.0000 0.95090  0.04340  0.95870  Biso   1.000  N
  N58      1.0000 0.04910  0.45660  0.95870  Biso   1.000  N
  N59      1.0000 0.95090  0.95660  0.54130  Biso   1.000  N
  N60      1.0000 0.54910  0.04340  0.04130  Biso   1.000  N
  N61      1.0000 0.20660  0.29910  0.29130  Biso   1.000  N
  N62      1.0000 0.79340  0.20090  0.29130  Biso   1.000  N
  N63      1.0000 0.29340  0.29910  0.70870  Biso   1.000  N
  N64      1.0000 0.20660  0.70090  0.20870  Biso   1.000  N
  C161     1.0000 0.58310  0.43340  0.50160  Biso   1.000  C
  C162     1.0000 0.41690  0.06660  0.50160  Biso   1.000  C
  C163     1.0000 0.58310  0.56660  0.99840  Biso   1.000  C
  C164     1.0000 0.91690  0.43340  0.49840  Biso   1.000  C
  C165     1.0000 0.81660  0.66690  0.74840  Biso   1.000  C
  C166     1.0000 0.18340  0.83310  0.74840  Biso   1.000  C
  C167     1.0000 0.68340  0.66690  0.25160  Biso   1.000  C
  C168     1.0000 0.81660  0.33310  0.75160  Biso   1.000  C
  C169     1.0000 0.08310  0.93340  0.00160  Biso   1.000  C
  C170     1.0000 0.91690  0.56660  0.00160  Biso   1.000  C
  C171     1.0000 0.08310  0.06660  0.49840  Biso   1.000  C
  C172     1.0000 0.41690  0.93340  0.99840  Biso   1.000  C
  C173     1.0000 0.31660  0.16690  0.24840  Biso   1.000  C
  C174     1.0000 0.68340  0.33310  0.24840  Biso   1.000  C
  C175     1.0000 0.18340  0.16690  0.75160  Biso   1.000  C
  C176     1.0000 0.31660  0.83310  0.25160  Biso   1.000  C
  C177     1.0000 0.41690  0.56660  0.49840  Biso   1.000  C
  C178     1.0000 0.58310  0.93340  0.49840  Biso   1.000  C
  C179     1.0000 0.41690  0.43340  0.00160  Biso   1.000  C
  C180     1.0000 0.08310  0.56660  0.50160  Biso   1.000  C
  C181     1.0000 0.68340  0.83310  0.75160  Biso   1.000  C
  C182     1.0000 0.31660  0.66690  0.75160  Biso   1.000  C
  C183     1.0000 0.81660  0.83310  0.24840  Biso   1.000  C
  C184     1.0000 0.68340  0.16690  0.74840  Biso   1.000  C
  C185     1.0000 0.91690  0.06660  0.99840  Biso   1.000  C
  C186     1.0000 0.08310  0.43340  0.99840  Biso   1.000  C
  C187     1.0000 0.91690  0.93340  0.50160  Biso   1.000  C
  C188     1.0000 0.58310  0.06660  0.00160  Biso   1.000  C
  C189     1.0000 0.18340  0.33310  0.25160  Biso   1.000  C
  C190     1.0000 0.81660  0.16690  0.25160  Biso   1.000  C
  C191     1.0000 0.31660  0.33310  0.74840  Biso   1.000  C
  C192     1.0000 0.18340  0.66690  0.24840  Biso   1.000  C
  H129     1.0000 0.58390  0.43730  0.45310  Biso   1.000  H
  H130     1.0000 0.41610  0.06270  0.45310  Biso   1.000  H
  H131     1.0000 0.58390  0.56270  0.04690  Biso   1.000  H
  H132     1.0000 0.91610  0.43730  0.54690  Biso   1.000  H
  H133     1.0000 0.81270  0.66610  0.79690  Biso   1.000  H
  H134     1.0000 0.18730  0.83390  0.79690  Biso   1.000  H
  H135     1.0000 0.68730  0.66610  0.20310  Biso   1.000  H
  H136     1.0000 0.81270  0.33390  0.70310  Biso   1.000  H
  H137     1.0000 0.08390  0.93730  0.95310  Biso   1.000  H
  H138     1.0000 0.91610  0.56270  0.95310  Biso   1.000  H
  H139     1.0000 0.08390  0.06270  0.54690  Biso   1.000  H
  H140     1.0000 0.41610  0.93730  0.04690  Biso   1.000  H
  H141     1.0000 0.31270  0.16610  0.29690  Biso   1.000  H
  H142     1.0000 0.68730  0.33390  0.29690  Biso   1.000  H
  H143     1.0000 0.18730  0.16610  0.70310  Biso   1.000  H
  H144     1.0000 0.31270  0.83390  0.20310  Biso   1.000  H
  H145     1.0000 0.41610  0.56270  0.54690  Biso   1.000  H
  H146     1.0000 0.58390  0.93730  0.54690  Biso   1.000  H
  H147     1.0000 0.41610  0.43730  0.95310  Biso   1.000  H
  H148     1.0000 0.08390  0.56270  0.45310  Biso   1.000  H
  H149     1.0000 0.68730  0.83390  0.70310  Biso   1.000  H
  H150     1.0000 0.31270  0.66610  0.70310  Biso   1.000  H
  H151     1.0000 0.81270  0.83390  0.29690  Biso   1.000  H
  H152     1.0000 0.68730  0.16610  0.79690  Biso   1.000  H
  H153     1.0000 0.91610  0.06270  0.04690  Biso   1.000  H
  H154     1.0000 0.08390  0.43730  0.04690  Biso   1.000  H
  H155     1.0000 0.91610  0.93730  0.45310  Biso   1.000  H
  H156     1.0000 0.58390  0.06270  0.95310  Biso   1.000  H
  H157     1.0000 0.18730  0.33390  0.20310  Biso   1.000  H
  H158     1.0000 0.81270  0.16610  0.20310  Biso   1.000  H
  H159     1.0000 0.31270  0.33390  0.79690  Biso   1.000  H
  H160     1.0000 0.18730  0.66610  0.29690  Biso   1.000  H
  C193     1.0000 0.61600  0.40430  0.53420  Biso   1.000  C
  C194     1.0000 0.38400  0.09570  0.53420  Biso   1.000  C
  C195     1.0000 0.61600  0.59570  0.96580  Biso   1.000  C
  C196     1.0000 0.88400  0.40430  0.46580  Biso   1.000  C
  C197     1.0000 0.84570  0.63400  0.71580  Biso   1.000  C
  C198     1.0000 0.15430  0.86600  0.71580  Biso   1.000  C
  C199     1.0000 0.65430  0.63400  0.28420  Biso   1.000  C
  C200     1.0000 0.84570  0.36600  0.78420  Biso   1.000  C
  C201     1.0000 0.11600  0.90430  0.03420  Biso   1.000  C
  C202     1.0000 0.88400  0.59570  0.03420  Biso   1.000  C
  C203     1.0000 0.11600  0.09570  0.46580  Biso   1.000  C
  C204     1.0000 0.38400  0.90430  0.96580  Biso   1.000  C
  C205     1.0000 0.34570  0.13400  0.21580  Biso   1.000  C
  C206     1.0000 0.65430  0.36600  0.21580  Biso   1.000  C
  C207     1.0000 0.15430  0.13400  0.78420  Biso   1.000  C
  C208     1.0000 0.34570  0.86600  0.28420  Biso   1.000  C
  C209     1.0000 0.38400  0.59570  0.46580  Biso   1.000  C
  C210     1.0000 0.61600  0.90430  0.46580  Biso   1.000  C
  C211     1.0000 0.38400  0.40430  0.03420  Biso   1.000  C
  C212     1.0000 0.11600  0.59570  0.53420  Biso   1.000  C
  C213     1.0000 0.65430  0.86600  0.78420  Biso   1.000  C
  C214     1.0000 0.34570  0.63400  0.78420  Biso   1.000  C
  C215     1.0000 0.84570  0.86600  0.21580  Biso   1.000  C
  C216     1.0000 0.65430  0.13400  0.71580  Biso   1.000  C
  C217     1.0000 0.88400  0.09570  0.96580  Biso   1.000  C
  C218     1.0000 0.11600  0.40430  0.96580  Biso   1.000  C
  C219     1.0000 0.88400  0.90430  0.53420  Biso   1.000  C
  C220     1.0000 0.61600  0.09570  0.03420  Biso   1.000  C
  C221     1.0000 0.15430  0.36600  0.28420  Biso   1.000  C
  C222     1.0000 0.84570  0.13400  0.28420  Biso   1.000  C
  C223     1.0000 0.34570  0.36600  0.71580  Biso   1.000  C
  C224     1.0000 0.15430  0.63400  0.21580  Biso   1.000  C
  H161     1.0000 0.63880  0.38870  0.50760  Biso   1.000  H
  H162     1.0000 0.36120  0.11130  0.50760  Biso   1.000  H
  H163     1.0000 0.63880  0.61130  0.99240  Biso   1.000  H
  H164     1.0000 0.86120  0.38870  0.49240  Biso   1.000  H
  H165     1.0000 0.86130  0.61120  0.74240  Biso   1.000  H
  H166     1.0000 0.13870  0.88880  0.74240  Biso   1.000  H
  H167     1.0000 0.63870  0.61120  0.25760  Biso   1.000  H
  H168     1.0000 0.86130  0.38880  0.75760  Biso   1.000  H
  H169     1.0000 0.13880  0.88870  0.00760  Biso   1.000  H
  H170     1.0000 0.86120  0.61130  0.00760  Biso   1.000  H
  H171     1.0000 0.13880  0.11130  0.49240  Biso   1.000  H
  H172     1.0000 0.36120  0.88870  0.99240  Biso   1.000  H
  H173     1.0000 0.36130  0.11120  0.24240  Biso   1.000  H
  H174     1.0000 0.63870  0.38880  0.24240  Biso   1.000  H
  H175     1.0000 0.13870  0.11120  0.75760  Biso   1.000  H
  H176     1.0000 0.36130  0.88880  0.25760  Biso   1.000  H
  H177     1.0000 0.36120  0.61130  0.49240  Biso   1.000  H
  H178     1.0000 0.63880  0.88870  0.49240  Biso   1.000  H
  H179     1.0000 0.36120  0.38870  0.00760  Biso   1.000  H
  H180     1.0000 0.13880  0.61130  0.50760  Biso   1.000  H
  H181     1.0000 0.63870  0.88880  0.75760  Biso   1.000  H
  H182     1.0000 0.36130  0.61120  0.75760  Biso   1.000  H
  H183     1.0000 0.86130  0.88880  0.24240  Biso   1.000  H
  H184     1.0000 0.63870  0.11120  0.74240  Biso   1.000  H
  H185     1.0000 0.86120  0.11130  0.99240  Biso   1.000  H
  H186     1.0000 0.13880  0.38870  0.99240  Biso   1.000  H
  H187     1.0000 0.86120  0.88870  0.50760  Biso   1.000  H
  H188     1.0000 0.63880  0.11130  0.00760  Biso   1.000  H
  H189     1.0000 0.13870  0.38880  0.25760  Biso   1.000  H
  H190     1.0000 0.86130  0.11120  0.25760  Biso   1.000  H
  H191     1.0000 0.36130  0.38880  0.74240  Biso   1.000  H
  H192     1.0000 0.13870  0.61120  0.24240  Biso   1.000  H
  C225     1.0000 0.61490  0.39830  0.60660  Biso   1.000  C
  C226     1.0000 0.38510  0.10170  0.60660  Biso   1.000  C
  C227     1.0000 0.61490  0.60170  0.89340  Biso   1.000  C
  C228     1.0000 0.88510  0.39830  0.39340  Biso   1.000  C
  C229     1.0000 0.85170  0.63510  0.64340  Biso   1.000  C
  C230     1.0000 0.14830  0.86490  0.64340  Biso   1.000  C
  C231     1.0000 0.64830  0.63510  0.35660  Biso   1.000  C
  C232     1.0000 0.85170  0.36490  0.85660  Biso   1.000  C
  C233     1.0000 0.11490  0.89830  0.10660  Biso   1.000  C
  C234     1.0000 0.88510  0.60170  0.10660  Biso   1.000  C
  C235     1.0000 0.11490  0.10170  0.39340  Biso   1.000  C
  C236     1.0000 0.38510  0.89830  0.89340  Biso   1.000  C
  C237     1.0000 0.35170  0.13510  0.14340  Biso   1.000  C
  C238     1.0000 0.64830  0.36490  0.14340  Biso   1.000  C
  C239     1.0000 0.14830  0.13510  0.85660  Biso   1.000  C
  C240     1.0000 0.35170  0.86490  0.35660  Biso   1.000  C
  C241     1.0000 0.38510  0.60170  0.39340  Biso   1.000  C
  C242     1.0000 0.61490  0.89830  0.39340  Biso   1.000  C
  C243     1.0000 0.38510  0.39830  0.10660  Biso   1.000  C
  C244     1.0000 0.11490  0.60170  0.60660  Biso   1.000  C
  C245     1.0000 0.64830  0.86490  0.85660  Biso   1.000  C
  C246     1.0000 0.35170  0.63510  0.85660  Biso   1.000  C
  C247     1.0000 0.85170  0.86490  0.14340  Biso   1.000  C
  C248     1.0000 0.64830  0.13510  0.64340  Biso   1.000  C
  C249     1.0000 0.88510  0.10170  0.89340  Biso   1.000  C
  C250     1.0000 0.11490  0.39830  0.89340  Biso   1.000  C
  C251     1.0000 0.88510  0.89830  0.60660  Biso   1.000  C
  C252     1.0000 0.61490  0.10170  0.10660  Biso   1.000  C
  C253     1.0000 0.14830  0.36490  0.35660  Biso   1.000  C
  C254     1.0000 0.85170  0.13510  0.35660  Biso   1.000  C
  C255     1.0000 0.35170  0.36490  0.64340  Biso   1.000  C
  C256     1.0000 0.14830  0.63510  0.14340  Biso   1.000  C
  C257     1.0000 0.58080  0.42160  0.64630  Biso   1.000  C
  C258     1.0000 0.41920  0.07840  0.64630  Biso   1.000  C
  C259     1.0000 0.58080  0.57840  0.85370  Biso   1.000  C
  C260     1.0000 0.91920  0.42160  0.35370  Biso   1.000  C
  C261     1.0000 0.82840  0.66920  0.60370  Biso   1.000  C
  C262     1.0000 0.17160  0.83080  0.60370  Biso   1.000  C
  C263     1.0000 0.67160  0.66920  0.39630  Biso   1.000  C
  C264     1.0000 0.82840  0.33080  0.89630  Biso   1.000  C
  C265     1.0000 0.08080  0.92160  0.14630  Biso   1.000  C
  C266     1.0000 0.91920  0.57840  0.14630  Biso   1.000  C
  C267     1.0000 0.08080  0.07840  0.35370  Biso   1.000  C
  C268     1.0000 0.41920  0.92160  0.85370  Biso   1.000  C
  C269     1.0000 0.32840  0.16920  0.10370  Biso   1.000  C
  C270     1.0000 0.67160  0.33080  0.10370  Biso   1.000  C
  C271     1.0000 0.17160  0.16920  0.89630  Biso   1.000  C
  C272     1.0000 0.32840  0.83080  0.39630  Biso   1.000  C
  C273     1.0000 0.41920  0.57840  0.35370  Biso   1.000  C
  C274     1.0000 0.58080  0.92160  0.35370  Biso   1.000  C
  C275     1.0000 0.41920  0.42160  0.14630  Biso   1.000  C
  C276     1.0000 0.08080  0.57840  0.64630  Biso   1.000  C
  C277     1.0000 0.67160  0.83080  0.89630  Biso   1.000  C
  C278     1.0000 0.32840  0.66920  0.89630  Biso   1.000  C
  C279     1.0000 0.82840  0.83080  0.10370  Biso   1.000  C
  C280     1.0000 0.67160  0.16920  0.60370  Biso   1.000  C
  C281     1.0000 0.91920  0.07840  0.85370  Biso   1.000  C
  C282     1.0000 0.08080  0.42160  0.85370  Biso   1.000  C
  C283     1.0000 0.91920  0.92160  0.64630  Biso   1.000  C
  C284     1.0000 0.58080  0.07840  0.14630  Biso   1.000  C
  C285     1.0000 0.17160  0.33080  0.39630  Biso   1.000  C
  C286     1.0000 0.82840  0.16920  0.39630  Biso   1.000  C
  C287     1.0000 0.32840  0.33080  0.60370  Biso   1.000  C
  C288     1.0000 0.17160  0.66920  0.10370  Biso   1.000  C
  H193     1.0000 0.58010  0.41760  0.69470  Biso   1.000  H
  H194     1.0000 0.41990  0.08240  0.69470  Biso   1.000  H
  H195     1.0000 0.58010  0.58240  0.80530  Biso   1.000  H
  H196     1.0000 0.91990  0.41760  0.30530  Biso   1.000  H
  H197     1.0000 0.83240  0.66990  0.55530  Biso   1.000  H
  H198     1.0000 0.16760  0.83010  0.55530  Biso   1.000  H
  H199     1.0000 0.66760  0.66990  0.44470  Biso   1.000  H
  H200     1.0000 0.83240  0.33010  0.94470  Biso   1.000  H
  H201     1.0000 0.08010  0.91760  0.19470  Biso   1.000  H
  H202     1.0000 0.91990  0.58240  0.19470  Biso   1.000  H
  H203     1.0000 0.08010  0.08240  0.30530  Biso   1.000  H
  H204     1.0000 0.41990  0.91760  0.80530  Biso   1.000  H
  H205     1.0000 0.33240  0.16990  0.05530  Biso   1.000  H
  H206     1.0000 0.66760  0.33010  0.05530  Biso   1.000  H
  H207     1.0000 0.16760  0.16990  0.94470  Biso   1.000  H
  H208     1.0000 0.33240  0.83010  0.44470  Biso   1.000  H
  H209     1.0000 0.41990  0.58240  0.30530  Biso   1.000  H
  H210     1.0000 0.58010  0.91760  0.30530  Biso   1.000  H
  H211     1.0000 0.41990  0.41760  0.19470  Biso   1.000  H
  H212     1.0000 0.08010  0.58240  0.69470  Biso   1.000  H
  H213     1.0000 0.66760  0.83010  0.94470  Biso   1.000  H
  H214     1.0000 0.33240  0.66990  0.94470  Biso   1.000  H
  H215     1.0000 0.83240  0.83010  0.05530  Biso   1.000  H
  H216     1.0000 0.66760  0.16990  0.55530  Biso   1.000  H
  H217     1.0000 0.91990  0.08240  0.80530  Biso   1.000  H
  H218     1.0000 0.08010  0.41760  0.80530  Biso   1.000  H
  H219     1.0000 0.91990  0.91760  0.69470  Biso   1.000  H
  H220     1.0000 0.58010  0.08240  0.19470  Biso   1.000  H
  H221     1.0000 0.16760  0.33010  0.44470  Biso   1.000  H
  H222     1.0000 0.83240  0.16990  0.44470  Biso   1.000  H
  H223     1.0000 0.33240  0.33010  0.55530  Biso   1.000  H
  H224     1.0000 0.16760  0.66990  0.05530  Biso   1.000  H
  C289     1.0000 0.54790  0.45070  0.61370  Biso   1.000  C
  C290     1.0000 0.45210  0.04930  0.61370  Biso   1.000  C
  C291     1.0000 0.54790  0.54930  0.88630  Biso   1.000  C
  C292     1.0000 0.95210  0.45070  0.38630  Biso   1.000  C
  C293     1.0000 0.79930  0.70210  0.63630  Biso   1.000  C
  C294     1.0000 0.20070  0.79790  0.63630  Biso   1.000  C
  C295     1.0000 0.70070  0.70210  0.36370  Biso   1.000  C
  C296     1.0000 0.79930  0.29790  0.86370  Biso   1.000  C
  C297     1.0000 0.04790  0.95070  0.11370  Biso   1.000  C
  C298     1.0000 0.95210  0.54930  0.11370  Biso   1.000  C
  C299     1.0000 0.04790  0.04930  0.38630  Biso   1.000  C
  C300     1.0000 0.45210  0.95070  0.88630  Biso   1.000  C
  C301     1.0000 0.29930  0.20210  0.13630  Biso   1.000  C
  C302     1.0000 0.70070  0.29790  0.13630  Biso   1.000  C
  C303     1.0000 0.20070  0.20210  0.86370  Biso   1.000  C
  C304     1.0000 0.29930  0.79790  0.36370  Biso   1.000  C
  C305     1.0000 0.45210  0.54930  0.38630  Biso   1.000  C
  C306     1.0000 0.54790  0.95070  0.38630  Biso   1.000  C
  C307     1.0000 0.45210  0.45070  0.11370  Biso   1.000  C
  C308     1.0000 0.04790  0.54930  0.61370  Biso   1.000  C
  C309     1.0000 0.70070  0.79790  0.86370  Biso   1.000  C
  C310     1.0000 0.29930  0.70210  0.86370  Biso   1.000  C
  C311     1.0000 0.79930  0.79790  0.13630  Biso   1.000  C
  C312     1.0000 0.70070  0.20210  0.63630  Biso   1.000  C
  C313     1.0000 0.95210  0.04930  0.88630  Biso   1.000  C
  C314     1.0000 0.04790  0.45070  0.88630  Biso   1.000  C
  C315     1.0000 0.95210  0.95070  0.61370  Biso   1.000  C
  C316     1.0000 0.54790  0.04930  0.11370  Biso   1.000  C
  C317     1.0000 0.20070  0.29790  0.36370  Biso   1.000  C
  C318     1.0000 0.79930  0.20210  0.36370  Biso   1.000  C
  C319     1.0000 0.29930  0.29790  0.63630  Biso   1.000  C
  C320     1.0000 0.20070  0.70210  0.13630  Biso   1.000  C
  H225     1.0000 0.52510  0.46620  0.64020  Biso   1.000  H
  H226     1.0000 0.47490  0.03380  0.64020  Biso   1.000  H
  H227     1.0000 0.52510  0.53380  0.85980  Biso   1.000  H
  H228     1.0000 0.97490  0.46620  0.35980  Biso   1.000  H
  H229     1.0000 0.78380  0.72490  0.60980  Biso   1.000  H
  H230     1.0000 0.21620  0.77510  0.60980  Biso   1.000  H
  H231     1.0000 0.71620  0.72490  0.39020  Biso   1.000  H
  H232     1.0000 0.78380  0.27510  0.89020  Biso   1.000  H
  H233     1.0000 0.02510  0.96620  0.14020  Biso   1.000  H
  H234     1.0000 0.97490  0.53380  0.14020  Biso   1.000  H
  H235     1.0000 0.02510  0.03380  0.35980  Biso   1.000  H
  H236     1.0000 0.47490  0.96620  0.85980  Biso   1.000  H
  H237     1.0000 0.28380  0.22490  0.10980  Biso   1.000  H
  H238     1.0000 0.71620  0.27510  0.10980  Biso   1.000  H
  H239     1.0000 0.21620  0.22490  0.89020  Biso   1.000  H
  H240     1.0000 0.28380  0.77510  0.39020  Biso   1.000  H
  H241     1.0000 0.47490  0.53380  0.35980  Biso   1.000  H
  H242     1.0000 0.52510  0.96620  0.35980  Biso   1.000  H
  H243     1.0000 0.47490  0.46620  0.14020  Biso   1.000  H
  H244     1.0000 0.02510  0.53380  0.64020  Biso   1.000  H
  H245     1.0000 0.71620  0.77510  0.89020  Biso   1.000  H
  H246     1.0000 0.28380  0.72490  0.89020  Biso   1.000  H
  H247     1.0000 0.78380  0.77510  0.10980  Biso   1.000  H
  H248     1.0000 0.71620  0.22490  0.60980  Biso   1.000  H
  H249     1.0000 0.97490  0.03380  0.85980  Biso   1.000  H
  H250     1.0000 0.02510  0.46620  0.85980  Biso   1.000  H
  H251     1.0000 0.97490  0.96620  0.64020  Biso   1.000  H
  H252     1.0000 0.52510  0.03380  0.14020  Biso   1.000  H
  H253     1.0000 0.21620  0.27510  0.39020  Biso   1.000  H
  H254     1.0000 0.78380  0.22490  0.39020  Biso   1.000  H
  H255     1.0000 0.28380  0.27510  0.60980  Biso   1.000  H
  H256     1.0000 0.21620  0.72490  0.10980  Biso   1.000  H
  S1       1.0000 0.83900  0.26000  0.60030  Biso   1.000  S
  S2       1.0000 0.16100  0.24000  0.60030  Biso   1.000  S
  S3       1.0000 0.83900  0.74000  0.89970  Biso   1.000  S
  S4       1.0000 0.66100  0.26000  0.39970  Biso   1.000  S
  S5       1.0000 0.99000  0.41100  0.64970  Biso   1.000  S
  S6       1.0000 0.01000  0.08900  0.64970  Biso   1.000  S
  S7       1.0000 0.51000  0.41100  0.35030  Biso   1.000  S
  S8       1.0000 0.99000  0.58900  0.85030  Biso   1.000  S
  S9       1.0000 0.33900  0.76000  0.10030  Biso   1.000  S
  S10      1.0000 0.66100  0.74000  0.10030  Biso   1.000  S
  S11      1.0000 0.33900  0.24000  0.39970  Biso   1.000  S
  S12      1.0000 0.16100  0.76000  0.89970  Biso   1.000  S
  S13      1.0000 0.49000  0.91100  0.14970  Biso   1.000  S
  S14      1.0000 0.51000  0.58900  0.14970  Biso   1.000  S
  S15      1.0000 0.01000  0.91100  0.85030  Biso   1.000  S
  S16      1.0000 0.49000  0.08900  0.35030  Biso   1.000  S
  S17      1.0000 0.16100  0.74000  0.39970  Biso   1.000  S
  S18      1.0000 0.83900  0.76000  0.39970  Biso   1.000  S
  S19      1.0000 0.16100  0.26000  0.10030  Biso   1.000  S
  S20      1.0000 0.33900  0.74000  0.60030  Biso   1.000  S
  S21      1.0000 0.51000  0.08900  0.85030  Biso   1.000  S
  S22      1.0000 0.49000  0.41100  0.85030  Biso   1.000  S
  S23      1.0000 0.99000  0.08900  0.14970  Biso   1.000  S
  S24      1.0000 0.51000  0.91100  0.64970  Biso   1.000  S
  S25      1.0000 0.66100  0.24000  0.89970  Biso   1.000  S
  S26      1.0000 0.33900  0.26000  0.89970  Biso   1.000  S
  S27      1.0000 0.66100  0.76000  0.60030  Biso   1.000  S
  S28      1.0000 0.83900  0.24000  0.10030  Biso   1.000  S
  S29      1.0000 0.01000  0.58900  0.35030  Biso   1.000  S
  S30      1.0000 0.99000  0.91100  0.35030  Biso   1.000  S
  S31      1.0000 0.49000  0.58900  0.64970  Biso   1.000  S
  S32      1.0000 0.01000  0.41100  0.14970  Biso   1.000  S
  O1       1.0000 0.79970  0.24960  0.64880  Biso   1.000  O
  O2       1.0000 0.20030  0.25040  0.64880  Biso   1.000  O
  O3       1.0000 0.79970  0.75040  0.85120  Biso   1.000  O
  O4       1.0000 0.70030  0.24960  0.35120  Biso   1.000  O
  O5       1.0000 0.00040  0.45030  0.60120  Biso   1.000  O
  O6       1.0000 0.99960  0.04970  0.60120  Biso   1.000  O
  O7       1.0000 0.49960  0.45030  0.39880  Biso   1.000  O
  O8       1.0000 0.00040  0.54970  0.89880  Biso   1.000  O
  O9       1.0000 0.29970  0.74960  0.14880  Biso   1.000  O
  O10      1.0000 0.70030  0.75040  0.14880  Biso   1.000  O
  O11      1.0000 0.29970  0.25040  0.35120  Biso   1.000  O
  O12      1.0000 0.20030  0.74960  0.85120  Biso   1.000  O
  O13      1.0000 0.50040  0.95030  0.10120  Biso   1.000  O
  O14      1.0000 0.49960  0.54970  0.10120  Biso   1.000  O
  O15      1.0000 0.99960  0.95030  0.89880  Biso   1.000  O
  O16      1.0000 0.50040  0.04970  0.39880  Biso   1.000  O
  O17      1.0000 0.20030  0.75040  0.35120  Biso   1.000  O
  O18      1.0000 0.79970  0.74960  0.35120  Biso   1.000  O
  O19      1.0000 0.20030  0.24960  0.14880  Biso   1.000  O
  O20      1.0000 0.29970  0.75040  0.64880  Biso   1.000  O
  O21      1.0000 0.49960  0.04970  0.89880  Biso   1.000  O
  O22      1.0000 0.50040  0.45030  0.89880  Biso   1.000  O
  O23      1.0000 0.00040  0.04970  0.10120  Biso   1.000  O
  O24      1.0000 0.49960  0.95030  0.60120  Biso   1.000  O
  O25      1.0000 0.70030  0.25040  0.85120  Biso   1.000  O
  O26      1.0000 0.29970  0.24960  0.85120  Biso   1.000  O
  O27      1.0000 0.70030  0.74960  0.64880  Biso   1.000  O
  O28      1.0000 0.79970  0.25040  0.14880  Biso   1.000  O
  O29      1.0000 0.99960  0.54970  0.39880  Biso   1.000  O
  O30      1.0000 0.00040  0.95030  0.39880  Biso   1.000  O
  O31      1.0000 0.50040  0.54970  0.60120  Biso   1.000  O
  O32      1.0000 0.99960  0.45030  0.10120  Biso   1.000  O
  O33      1.0000 0.88780  0.24480  0.62210  Biso   1.000  O
  O34      1.0000 0.11220  0.25520  0.62210  Biso   1.000  O
  O35      1.0000 0.88780  0.75520  0.87790  Biso   1.000  O
  O36      1.0000 0.61220  0.24480  0.37790  Biso   1.000  O
  O37      1.0000 0.00520  0.36220  0.62790  Biso   1.000  O
  O38      1.0000 0.99480  0.13780  0.62790  Biso   1.000  O
  O39      1.0000 0.49480  0.36220  0.37210  Biso   1.000  O
  O40      1.0000 0.00520  0.63780  0.87210  Biso   1.000  O
  O41      1.0000 0.38780  0.74480  0.12210  Biso   1.000  O
  O42      1.0000 0.61220  0.75520  0.12210  Biso   1.000  O
  O43      1.0000 0.38780  0.25520  0.37790  Biso   1.000  O
  O44      1.0000 0.11220  0.74480  0.87790  Biso   1.000  O
  O45      1.0000 0.50520  0.86220  0.12790  Biso   1.000  O
  O46      1.0000 0.49480  0.63780  0.12790  Biso   1.000  O
  O47      1.0000 0.99480  0.86220  0.87210  Biso   1.000  O
  O48      1.0000 0.50520  0.13780  0.37210  Biso   1.000  O
  O49      1.0000 0.11220  0.75520  0.37790  Biso   1.000  O
  O50      1.0000 0.88780  0.74480  0.37790  Biso   1.000  O
  O51      1.0000 0.11220  0.24480  0.12210  Biso   1.000  O
  O52      1.0000 0.38780  0.75520  0.62210  Biso   1.000  O
  O53      1.0000 0.49480  0.13780  0.87210  Biso   1.000  O
  O54      1.0000 0.50520  0.36220  0.87210  Biso   1.000  O
  O55      1.0000 0.00520  0.13780  0.12790  Biso   1.000  O
  O56      1.0000 0.49480  0.86220  0.62790  Biso   1.000  O
  O57      1.0000 0.61220  0.25520  0.87790  Biso   1.000  O
  O58      1.0000 0.38780  0.24480  0.87790  Biso   1.000  O
  O59      1.0000 0.61220  0.74480  0.62210  Biso   1.000  O
  O60      1.0000 0.88780  0.25520  0.12210  Biso   1.000  O
  O61      1.0000 0.99480  0.63780  0.37210  Biso   1.000  O
  O62      1.0000 0.00520  0.86220  0.37210  Biso   1.000  O
  O63      1.0000 0.50520  0.63780  0.62790  Biso   1.000  O
  O64      1.0000 0.99480  0.36220  0.12790  Biso   1.000  O
  O65      1.0000 0.83600  0.30570  0.56080  Biso   1.000  O
  O66      1.0000 0.16400  0.19430  0.56080  Biso   1.000  O
  O67      1.0000 0.83600  0.69430  0.93920  Biso   1.000  O
  O68      1.0000 0.66400  0.30570  0.43920  Biso   1.000  O
  O69      1.0000 0.94430  0.41400  0.68920  Biso   1.000  O
  O70      1.0000 0.05570  0.08600  0.68920  Biso   1.000  O
  O71      1.0000 0.55570  0.41400  0.31080  Biso   1.000  O
  O72      1.0000 0.94430  0.58600  0.81080  Biso   1.000  O
  O73      1.0000 0.33600  0.80570  0.06080  Biso   1.000  O
  O74      1.0000 0.66400  0.69430  0.06080  Biso   1.000  O
  O75      1.0000 0.33600  0.19430  0.43920  Biso   1.000  O
  O76      1.0000 0.16400  0.80570  0.93920  Biso   1.000  O
  O77      1.0000 0.44430  0.91400  0.18920  Biso   1.000  O
  O78      1.0000 0.55570  0.58600  0.18920  Biso   1.000  O
  O79      1.0000 0.05570  0.91400  0.81080  Biso   1.000  O
  O80      1.0000 0.44430  0.08600  0.31080  Biso   1.000  O
  O81      1.0000 0.16400  0.69430  0.43920  Biso   1.000  O
  O82      1.0000 0.83600  0.80570  0.43920  Biso   1.000  O
  O83      1.0000 0.16400  0.30570  0.06080  Biso   1.000  O
  O84      1.0000 0.33600  0.69430  0.56080  Biso   1.000  O
  O85      1.0000 0.55570  0.08600  0.81080  Biso   1.000  O
  O86      1.0000 0.44430  0.41400  0.81080  Biso   1.000  O
  O87      1.0000 0.94430  0.08600  0.18920  Biso   1.000  O
  O88      1.0000 0.55570  0.91400  0.68920  Biso   1.000  O
  O89      1.0000 0.66400  0.19430  0.93920  Biso   1.000  O
  O90      1.0000 0.33600  0.30570  0.93920  Biso   1.000  O
  O91      1.0000 0.66400  0.80570  0.56080  Biso   1.000  O
  O92      1.0000 0.83600  0.19430  0.06080  Biso   1.000  O
  O93      1.0000 0.05570  0.58600  0.31080  Biso   1.000  O
  O94      1.0000 0.94430  0.91400  0.31080  Biso   1.000  O
  O95      1.0000 0.44430  0.58600  0.68920  Biso   1.000  O
  O96      1.0000 0.05570  0.41400  0.18920  Biso   1.000  O
  C321     1.0000 0.84170  0.21770  0.53760  Biso   1.000  C
  C322     1.0000 0.15830  0.28230  0.53760  Biso   1.000  C
  C323     1.0000 0.84170  0.78230  0.96240  Biso   1.000  C
  C324     1.0000 0.65830  0.21770  0.46240  Biso   1.000  C
  C325     1.0000 0.03230  0.40830  0.71240  Biso   1.000  C
  C326     1.0000 0.96770  0.09170  0.71240  Biso   1.000  C
  C327     1.0000 0.46770  0.40830  0.28760  Biso   1.000  C
  C328     1.0000 0.03230  0.59170  0.78760  Biso   1.000  C
  C329     1.0000 0.34170  0.71770  0.03760  Biso   1.000  C
  C330     1.0000 0.65830  0.78230  0.03760  Biso   1.000  C
  C331     1.0000 0.34170  0.28230  0.46240  Biso   1.000  C
  C332     1.0000 0.15830  0.71770  0.96240  Biso   1.000  C
  C333     1.0000 0.53230  0.90830  0.21240  Biso   1.000  C
  C334     1.0000 0.46770  0.59170  0.21240  Biso   1.000  C
  C335     1.0000 0.96770  0.90830  0.78760  Biso   1.000  C
  C336     1.0000 0.53230  0.09170  0.28760  Biso   1.000  C
  C337     1.0000 0.15830  0.78230  0.46240  Biso   1.000  C
  C338     1.0000 0.84170  0.71770  0.46240  Biso   1.000  C
  C339     1.0000 0.15830  0.21770  0.03760  Biso   1.000  C
  C340     1.0000 0.34170  0.78230  0.53760  Biso   1.000  C
  C341     1.0000 0.46770  0.09170  0.78760  Biso   1.000  C
  C342     1.0000 0.53230  0.40830  0.78760  Biso   1.000  C
  C343     1.0000 0.03230  0.09170  0.21240  Biso   1.000  C
  C344     1.0000 0.46770  0.90830  0.71240  Biso   1.000  C
  C345     1.0000 0.65830  0.28230  0.96240  Biso   1.000  C
  C346     1.0000 0.34170  0.21770  0.96240  Biso   1.000  C
  C347     1.0000 0.65830  0.71770  0.53760  Biso   1.000  C
  C348     1.0000 0.84170  0.28230  0.03760  Biso   1.000  C
  C349     1.0000 0.96770  0.59170  0.28760  Biso   1.000  C
  C350     1.0000 0.03230  0.90830  0.28760  Biso   1.000  C
  C351     1.0000 0.53230  0.59170  0.71240  Biso   1.000  C
  C352     1.0000 0.96770  0.40830  0.21240  Biso   1.000  C
  F1       1.0000 0.84460  0.17150  0.55900  Biso   1.000  F
  F2       1.0000 0.15540  0.32850  0.55900  Biso   1.000  F
  F3       1.0000 0.84460  0.82850  0.94100  Biso   1.000  F
  F4       1.0000 0.65540  0.17150  0.44100  Biso   1.000  F
  F5       1.0000 0.07850  0.40540  0.69100  Biso   1.000  F
  F6       1.0000 0.92150  0.09460  0.69100  Biso   1.000  F
  F7       1.0000 0.42150  0.40540  0.30900  Biso   1.000  F
  F8       1.0000 0.07850  0.59460  0.80900  Biso   1.000  F
  F9       1.0000 0.34460  0.67150  0.05900  Biso   1.000  F
  F10      1.0000 0.65540  0.82850  0.05900  Biso   1.000  F
  F11      1.0000 0.34460  0.32850  0.44100  Biso   1.000  F
  F12      1.0000 0.15540  0.67150  0.94100  Biso   1.000  F
  F13      1.0000 0.57850  0.90540  0.19100  Biso   1.000  F
  F14      1.0000 0.42150  0.59460  0.19100  Biso   1.000  F
  F15      1.0000 0.92150  0.90540  0.80900  Biso   1.000  F
  F16      1.0000 0.57850  0.09460  0.30900  Biso   1.000  F
  F17      1.0000 0.15540  0.82850  0.44100  Biso   1.000  F
  F18      1.0000 0.84460  0.67150  0.44100  Biso   1.000  F
  F19      1.0000 0.15540  0.17150  0.05900  Biso   1.000  F
  F20      1.0000 0.34460  0.82850  0.55900  Biso   1.000  F
  F21      1.0000 0.42150  0.09460  0.80900  Biso   1.000  F
  F22      1.0000 0.57850  0.40540  0.80900  Biso   1.000  F
  F23      1.0000 0.07850  0.09460  0.19100  Biso   1.000  F
  F24      1.0000 0.42150  0.90540  0.69100  Biso   1.000  F
  F25      1.0000 0.65540  0.32850  0.94100  Biso   1.000  F
  F26      1.0000 0.34460  0.17150  0.94100  Biso   1.000  F
  F27      1.0000 0.65540  0.67150  0.55900  Biso   1.000  F
  F28      1.0000 0.84460  0.32850  0.05900  Biso   1.000  F
  F29      1.0000 0.92150  0.59460  0.30900  Biso   1.000  F
  F30      1.0000 0.07850  0.90540  0.30900  Biso   1.000  F
  F31      1.0000 0.57850  0.59460  0.69100  Biso   1.000  F
  F32      1.0000 0.92150  0.40540  0.19100  Biso   1.000  F
  F33      1.0000 0.87880  0.22010  0.49140  Biso   1.000  F
  F34      1.0000 0.12120  0.27990  0.49140  Biso   1.000  F
  F35      1.0000 0.87880  0.77990  0.00860  Biso   1.000  F
  F36      1.0000 0.62120  0.22010  0.50860  Biso   1.000  F
  F37      1.0000 0.02990  0.37120  0.75860  Biso   1.000  F
  F38      1.0000 0.97010  0.12880  0.75860  Biso   1.000  F
  F39      1.0000 0.47010  0.37120  0.24140  Biso   1.000  F
  F40      1.0000 0.02990  0.62880  0.74140  Biso   1.000  F
  F41      1.0000 0.37880  0.72010  0.99140  Biso   1.000  F
  F42      1.0000 0.62120  0.77990  0.99140  Biso   1.000  F
  F43      1.0000 0.37880  0.27990  0.50860  Biso   1.000  F
  F44      1.0000 0.12120  0.72010  0.00860  Biso   1.000  F
  F45      1.0000 0.52990  0.87120  0.25860  Biso   1.000  F
  F46      1.0000 0.47010  0.62880  0.25860  Biso   1.000  F
  F47      1.0000 0.97010  0.87120  0.74140  Biso   1.000  F
  F48      1.0000 0.52990  0.12880  0.24140  Biso   1.000  F
  F49      1.0000 0.12120  0.77990  0.50860  Biso   1.000  F
  F50      1.0000 0.87880  0.72010  0.50860  Biso   1.000  F
  F51      1.0000 0.12120  0.22010  0.99140  Biso   1.000  F
  F52      1.0000 0.37880  0.77990  0.49140  Biso   1.000  F
  F53      1.0000 0.47010  0.12880  0.74140  Biso   1.000  F
  F54      1.0000 0.52990  0.37120  0.74140  Biso   1.000  F
  F55      1.0000 0.02990  0.12880  0.25860  Biso   1.000  F
  F56      1.0000 0.47010  0.87120  0.75860  Biso   1.000  F
  F57      1.0000 0.62120  0.27990  0.00860  Biso   1.000  F
  F58      1.0000 0.37880  0.22010  0.00860  Biso   1.000  F
  F59      1.0000 0.62120  0.72010  0.49140  Biso   1.000  F
  F60      1.0000 0.87880  0.27990  0.99140  Biso   1.000  F
  F61      1.0000 0.97010  0.62880  0.24140  Biso   1.000  F
  F62      1.0000 0.02990  0.87120  0.24140  Biso   1.000  F
  F63      1.0000 0.52990  0.62880  0.75860  Biso   1.000  F
  F64      1.0000 0.97010  0.37120  0.25860  Biso   1.000  F
  F65      1.0000 0.80290  0.21620  0.49360  Biso   1.000  F
  F66      1.0000 0.19710  0.28380  0.49360  Biso   1.000  F
  F67      1.0000 0.80290  0.78380  0.00640  Biso   1.000  F
  F68      1.0000 0.69710  0.21620  0.50640  Biso   1.000  F
  F69      1.0000 0.03380  0.44710  0.75640  Biso   1.000  F
  F70      1.0000 0.96620  0.05290  0.75640  Biso   1.000  F
  F71      1.0000 0.46620  0.44710  0.24360  Biso   1.000  F
  F72      1.0000 0.03380  0.55290  0.74360  Biso   1.000  F
  F73      1.0000 0.30290  0.71620  0.99360  Biso   1.000  F
  F74      1.0000 0.69710  0.78380  0.99360  Biso   1.000  F
  F75      1.0000 0.30290  0.28380  0.50640  Biso   1.000  F
  F76      1.0000 0.19710  0.71620  0.00640  Biso   1.000  F
  F77      1.0000 0.53380  0.94710  0.25640  Biso   1.000  F
  F78      1.0000 0.46620  0.55290  0.25640  Biso   1.000  F
  F79      1.0000 0.96620  0.94710  0.74360  Biso   1.000  F
  F80      1.0000 0.53380  0.05290  0.24360  Biso   1.000  F
  F81      1.0000 0.19710  0.78380  0.50640  Biso   1.000  F
  F82      1.0000 0.80290  0.71620  0.50640  Biso   1.000  F
  F83      1.0000 0.19710  0.21620  0.99360  Biso   1.000  F
  F84      1.0000 0.30290  0.78380  0.49360  Biso   1.000  F
  F85      1.0000 0.46620  0.05290  0.74360  Biso   1.000  F
  F86      1.0000 0.53380  0.44710  0.74360  Biso   1.000  F
  F87      1.0000 0.03380  0.05290  0.25640  Biso   1.000  F
  F88      1.0000 0.46620  0.94710  0.75640  Biso   1.000  F
  F89      1.0000 0.69710  0.28380  0.00640  Biso   1.000  F
  F90      1.0000 0.30290  0.21620  0.00640  Biso   1.000  F
  F91      1.0000 0.69710  0.71620  0.49360  Biso   1.000  F
  F92      1.0000 0.80290  0.28380  0.99360  Biso   1.000  F
  F93      1.0000 0.96620  0.55290  0.24360  Biso   1.000  F
  F94      1.0000 0.03380  0.94710  0.24360  Biso   1.000  F
  F95      1.0000 0.53380  0.55290  0.75640  Biso   1.000  F
  F96      1.0000 0.96620  0.44710  0.25640  Biso   1.000  F
  C353     1.0000 0.69480  0.33730  0.74250  Biso   1.000  C
  C354     1.0000 0.30520  0.16270  0.74250  Biso   1.000  C
  C355     1.0000 0.69480  0.66270  0.75750  Biso   1.000  C
  C356     1.0000 0.80520  0.33730  0.25750  Biso   1.000  C
  C357     1.0000 0.91270  0.55520  0.50750  Biso   1.000  C
  C358     1.0000 0.08730  0.94480  0.50750  Biso   1.000  C
  C359     1.0000 0.58730  0.55520  0.49250  Biso   1.000  C
  C360     1.0000 0.91270  0.44480  0.99250  Biso   1.000  C
  C361     1.0000 0.19480  0.83730  0.24250  Biso   1.000  C
  C362     1.0000 0.80520  0.66270  0.24250  Biso   1.000  C
  C363     1.0000 0.19480  0.16270  0.25750  Biso   1.000  C
  C364     1.0000 0.30520  0.83730  0.75750  Biso   1.000  C
  C365     1.0000 0.41270  0.05520  0.00750  Biso   1.000  C
  C366     1.0000 0.58730  0.44480  0.00750  Biso   1.000  C
  C367     1.0000 0.08730  0.05520  0.99250  Biso   1.000  C
  C368     1.0000 0.41270  0.94480  0.49250  Biso   1.000  C
  C369     1.0000 0.30520  0.66270  0.25750  Biso   1.000  C
  C370     1.0000 0.69480  0.83730  0.25750  Biso   1.000  C
  C371     1.0000 0.30520  0.33730  0.24250  Biso   1.000  C
  C372     1.0000 0.19480  0.66270  0.74250  Biso   1.000  C
  C373     1.0000 0.58730  0.94480  0.99250  Biso   1.000  C
  C374     1.0000 0.41270  0.55520  0.99250  Biso   1.000  C
  C375     1.0000 0.91270  0.94480  0.00750  Biso   1.000  C
  C376     1.0000 0.58730  0.05520  0.50750  Biso   1.000  C
  C377     1.0000 0.80520  0.16270  0.75750  Biso   1.000  C
  C378     1.0000 0.19480  0.33730  0.75750  Biso   1.000  C
  C379     1.0000 0.80520  0.83730  0.74250  Biso   1.000  C
  C380     1.0000 0.69480  0.16270  0.24250  Biso   1.000  C
  C381     1.0000 0.08730  0.44480  0.49250  Biso   1.000  C
  C382     1.0000 0.91270  0.05520  0.49250  Biso   1.000  C
  C383     1.0000 0.41270  0.44480  0.50750  Biso   1.000  C
  C384     1.0000 0.08730  0.55520  0.00750  Biso   1.000  C
  H257     1.0000 0.70370  0.34020  0.78930  Biso   1.000  H
  H258     1.0000 0.29630  0.15980  0.78930  Biso   1.000  H
  H259     1.0000 0.70370  0.65980  0.71070  Biso   1.000  H
  H260     1.0000 0.79630  0.34020  0.21070  Biso   1.000  H
  H261     1.0000 0.90980  0.54630  0.46070  Biso   1.000  H
  H262     1.0000 0.09020  0.95370  0.46070  Biso   1.000  H
  H263     1.0000 0.59020  0.54630  0.53930  Biso   1.000  H
  H264     1.0000 0.90980  0.45370  0.03930  Biso   1.000  H
  H265     1.0000 0.20370  0.84020  0.28930  Biso   1.000  H
  H266     1.0000 0.79630  0.65980  0.28930  Biso   1.000  H
  H267     1.0000 0.20370  0.15980  0.21070  Biso   1.000  H
  H268     1.0000 0.29630  0.84020  0.71070  Biso   1.000  H
  H269     1.0000 0.40980  0.04630  0.96070  Biso   1.000  H
  H270     1.0000 0.59020  0.45370  0.96070  Biso   1.000  H
  H271     1.0000 0.09020  0.04630  0.03930  Biso   1.000  H
  H272     1.0000 0.40980  0.95370  0.53930  Biso   1.000  H
  H273     1.0000 0.29630  0.65980  0.21070  Biso   1.000  H
  H274     1.0000 0.70370  0.84020  0.21070  Biso   1.000  H
  H275     1.0000 0.29630  0.34020  0.28930  Biso   1.000  H
  H276     1.0000 0.20370  0.65980  0.78930  Biso   1.000  H
  H277     1.0000 0.59020  0.95370  0.03930  Biso   1.000  H
  H278     1.0000 0.40980  0.54630  0.03930  Biso   1.000  H
  H279     1.0000 0.90980  0.95370  0.96070  Biso   1.000  H
  H280     1.0000 0.59020  0.04630  0.46070  Biso   1.000  H
  H281     1.0000 0.79630  0.15980  0.71070  Biso   1.000  H
  H282     1.0000 0.20370  0.34020  0.71070  Biso   1.000  H
  H283     1.0000 0.79630  0.84020  0.78930  Biso   1.000  H
  H284     1.0000 0.70370  0.15980  0.28930  Biso   1.000  H
  H285     1.0000 0.09020  0.45370  0.53930  Biso   1.000  H
  H286     1.0000 0.90980  0.04630  0.53930  Biso   1.000  H
  H287     1.0000 0.40980  0.45370  0.46070  Biso   1.000  H
  H288     1.0000 0.09020  0.54630  0.96070  Biso   1.000  H
  C385     1.0000 0.66370  0.37070  0.70920  Biso   1.000  C
  C386     1.0000 0.33630  0.12930  0.70920  Biso   1.000  C
  C387     1.0000 0.66370  0.62930  0.79080  Biso   1.000  C
  C388     1.0000 0.83630  0.37070  0.29080  Biso   1.000  C
  C389     1.0000 0.87930  0.58630  0.54080  Biso   1.000  C
  C390     1.0000 0.12070  0.91370  0.54080  Biso   1.000  C
  C391     1.0000 0.62070  0.58630  0.45920  Biso   1.000  C
  C392     1.0000 0.87930  0.41370  0.95920  Biso   1.000  C
  C393     1.0000 0.16370  0.87070  0.20920  Biso   1.000  C
  C394     1.0000 0.83630  0.62930  0.20920  Biso   1.000  C
  C395     1.0000 0.16370  0.12930  0.29080  Biso   1.000  C
  C396     1.0000 0.33630  0.87070  0.79080  Biso   1.000  C
  C397     1.0000 0.37930  0.08630  0.04080  Biso   1.000  C
  C398     1.0000 0.62070  0.41370  0.04080  Biso   1.000  C
  C399     1.0000 0.12070  0.08630  0.95920  Biso   1.000  C
  C400     1.0000 0.37930  0.91370  0.45920  Biso   1.000  C
  C401     1.0000 0.33630  0.62930  0.29080  Biso   1.000  C
  C402     1.0000 0.66370  0.87070  0.29080  Biso   1.000  C
  C403     1.0000 0.33630  0.37070  0.20920  Biso   1.000  C
  C404     1.0000 0.16370  0.62930  0.70920  Biso   1.000  C
  C405     1.0000 0.62070  0.91370  0.95920  Biso   1.000  C
  C406     1.0000 0.37930  0.58630  0.95920  Biso   1.000  C
  C407     1.0000 0.87930  0.91370  0.04080  Biso   1.000  C
  C408     1.0000 0.62070  0.08630  0.54080  Biso   1.000  C
  C409     1.0000 0.83630  0.12930  0.79080  Biso   1.000  C
  C410     1.0000 0.16370  0.37070  0.79080  Biso   1.000  C
  C411     1.0000 0.83630  0.87070  0.70920  Biso   1.000  C
  C412     1.0000 0.66370  0.12930  0.20920  Biso   1.000  C
  C413     1.0000 0.12070  0.41370  0.45920  Biso   1.000  C
  C414     1.0000 0.87930  0.08630  0.45920  Biso   1.000  C
  C415     1.0000 0.37930  0.41370  0.54080  Biso   1.000  C
  C416     1.0000 0.12070  0.58630  0.04080  Biso   1.000  C
  H289     1.0000 0.65230  0.39630  0.73480  Biso   1.000  H
  H290     1.0000 0.34770  0.10370  0.73480  Biso   1.000  H
  H291     1.0000 0.65230  0.60370  0.76520  Biso   1.000  H
  H292     1.0000 0.84770  0.39630  0.26520  Biso   1.000  H
  H293     1.0000 0.85370  0.59770  0.51520  Biso   1.000  H
  H294     1.0000 0.14630  0.90230  0.51520  Biso   1.000  H
  H295     1.0000 0.64630  0.59770  0.48480  Biso   1.000  H
  H296     1.0000 0.85370  0.40230  0.98480  Biso   1.000  H
  H297     1.0000 0.15230  0.89630  0.23480  Biso   1.000  H
  H298     1.0000 0.84770  0.60370  0.23480  Biso   1.000  H
  H299     1.0000 0.15230  0.10370  0.26520  Biso   1.000  H
  H300     1.0000 0.34770  0.89630  0.76520  Biso   1.000  H
  H301     1.0000 0.35370  0.09770  0.01520  Biso   1.000  H
  H302     1.0000 0.64630  0.40230  0.01520  Biso   1.000  H
  H303     1.0000 0.14630  0.09770  0.98480  Biso   1.000  H
  H304     1.0000 0.35370  0.90230  0.48480  Biso   1.000  H
  H305     1.0000 0.34770  0.60370  0.26520  Biso   1.000  H
  H306     1.0000 0.65230  0.89630  0.26520  Biso   1.000  H
  H307     1.0000 0.34770  0.39630  0.23480  Biso   1.000  H
  H308     1.0000 0.15230  0.60370  0.73480  Biso   1.000  H
  H309     1.0000 0.64630  0.90230  0.98480  Biso   1.000  H
  H310     1.0000 0.35370  0.59770  0.98480  Biso   1.000  H
  H311     1.0000 0.85370  0.90230  0.01520  Biso   1.000  H
  H312     1.0000 0.64630  0.09770  0.51520  Biso   1.000  H
  H313     1.0000 0.84770  0.10370  0.76520  Biso   1.000  H
  H314     1.0000 0.15230  0.39630  0.76520  Biso   1.000  H
  H315     1.0000 0.84770  0.89630  0.73480  Biso   1.000  H
  H316     1.0000 0.65230  0.10370  0.23480  Biso   1.000  H
  H317     1.0000 0.14630  0.40230  0.48480  Biso   1.000  H
  H318     1.0000 0.85370  0.09770  0.48480  Biso   1.000  H
  H319     1.0000 0.35370  0.40230  0.51520  Biso   1.000  H
  H320     1.0000 0.14630  0.59770  0.01520  Biso   1.000  H
  C417     1.0000 0.66770  0.32610  0.59780  Biso   1.000  C
  C418     1.0000 0.33230  0.17390  0.59780  Biso   1.000  C
  C419     1.0000 0.66770  0.67390  0.90220  Biso   1.000  C
  C420     1.0000 0.83230  0.32610  0.40220  Biso   1.000  C
  C421     1.0000 0.92390  0.58230  0.65220  Biso   1.000  C
  C422     1.0000 0.07610  0.91770  0.65220  Biso   1.000  C
  C423     1.0000 0.57610  0.58230  0.34780  Biso   1.000  C
  C424     1.0000 0.92390  0.41770  0.84780  Biso   1.000  C
  C425     1.0000 0.16770  0.82610  0.09780  Biso   1.000  C
  C426     1.0000 0.83230  0.67390  0.09780  Biso   1.000  C
  C427     1.0000 0.16770  0.17390  0.40220  Biso   1.000  C
  C428     1.0000 0.33230  0.82610  0.90220  Biso   1.000  C
  C429     1.0000 0.42390  0.08230  0.15220  Biso   1.000  C
  C430     1.0000 0.57610  0.41770  0.15220  Biso   1.000  C
  C431     1.0000 0.07610  0.08230  0.84780  Biso   1.000  C
  C432     1.0000 0.42390  0.91770  0.34780  Biso   1.000  C
  C433     1.0000 0.33230  0.67390  0.40220  Biso   1.000  C
  C434     1.0000 0.66770  0.82610  0.40220  Biso   1.000  C
  C435     1.0000 0.33230  0.32610  0.09780  Biso   1.000  C
  C436     1.0000 0.16770  0.67390  0.59780  Biso   1.000  C
  C437     1.0000 0.57610  0.91770  0.84780  Biso   1.000  C
  C438     1.0000 0.42390  0.58230  0.84780  Biso   1.000  C
  C439     1.0000 0.92390  0.91770  0.15220  Biso   1.000  C
  C440     1.0000 0.57610  0.08230  0.65220  Biso   1.000  C
  C441     1.0000 0.83230  0.17390  0.90220  Biso   1.000  C
  C442     1.0000 0.16770  0.32610  0.90220  Biso   1.000  C
  C443     1.0000 0.83230  0.82610  0.59780  Biso   1.000  C
  C444     1.0000 0.66770  0.17390  0.09780  Biso   1.000  C
  C445     1.0000 0.07610  0.41770  0.34780  Biso   1.000  C
  C446     1.0000 0.92390  0.08230  0.34780  Biso   1.000  C
  C447     1.0000 0.42390  0.41770  0.65220  Biso   1.000  C
  C448     1.0000 0.07610  0.58230  0.15220  Biso   1.000  C
  H321     1.0000 0.65910  0.32130  0.55120  Biso   1.000  H
  H322     1.0000 0.34090  0.17870  0.55120  Biso   1.000  H
  H323     1.0000 0.65910  0.67870  0.94880  Biso   1.000  H
  H324     1.0000 0.84090  0.32130  0.44880  Biso   1.000  H
  H325     1.0000 0.92870  0.59090  0.69880  Biso   1.000  H
  H326     1.0000 0.07130  0.90910  0.69880  Biso   1.000  H
  H327     1.0000 0.57130  0.59090  0.30120  Biso   1.000  H
  H328     1.0000 0.92870  0.40910  0.80120  Biso   1.000  H
  H329     1.0000 0.15910  0.82130  0.05120  Biso   1.000  H
  H330     1.0000 0.84090  0.67870  0.05120  Biso   1.000  H
  H331     1.0000 0.15910  0.17870  0.44880  Biso   1.000  H
  H332     1.0000 0.34090  0.82130  0.94880  Biso   1.000  H
  H333     1.0000 0.42870  0.09090  0.19880  Biso   1.000  H
  H334     1.0000 0.57130  0.40910  0.19880  Biso   1.000  H
  H335     1.0000 0.07130  0.09090  0.80120  Biso   1.000  H
  H336     1.0000 0.42870  0.90910  0.30120  Biso   1.000  H
  H337     1.0000 0.34090  0.67870  0.44880  Biso   1.000  H
  H338     1.0000 0.65910  0.82130  0.44880  Biso   1.000  H
  H339     1.0000 0.34090  0.32130  0.05120  Biso   1.000  H
  H340     1.0000 0.15910  0.67870  0.55120  Biso   1.000  H
  H341     1.0000 0.57130  0.90910  0.80120  Biso   1.000  H
  H342     1.0000 0.42870  0.59090  0.80120  Biso   1.000  H
  H343     1.0000 0.92870  0.90910  0.19880  Biso   1.000  H
  H344     1.0000 0.57130  0.09090  0.69880  Biso   1.000  H
  H345     1.0000 0.84090  0.17870  0.94880  Biso   1.000  H
  H346     1.0000 0.15910  0.32130  0.94880  Biso   1.000  H
  H347     1.0000 0.84090  0.82130  0.55120  Biso   1.000  H
  H348     1.0000 0.65910  0.17870  0.05120  Biso   1.000  H
  H349     1.0000 0.07130  0.40910  0.30120  Biso   1.000  H
  H350     1.0000 0.92870  0.09090  0.30120  Biso   1.000  H
  H351     1.0000 0.42870  0.40910  0.69880  Biso   1.000  H
  H352     1.0000 0.07130  0.59090  0.19880  Biso   1.000  H
  C449     1.0000 0.69910  0.29440  0.63310  Biso   1.000  C
  C450     1.0000 0.30090  0.20560  0.63310  Biso   1.000  C
  C451     1.0000 0.69910  0.70560  0.86690  Biso   1.000  C
  C452     1.0000 0.80090  0.29440  0.36690  Biso   1.000  C
  C453     1.0000 0.95560  0.55090  0.61690  Biso   1.000  C
  C454     1.0000 0.04440  0.94910  0.61690  Biso   1.000  C
  C455     1.0000 0.54440  0.55090  0.38310  Biso   1.000  C
  C456     1.0000 0.95560  0.44910  0.88310  Biso   1.000  C
  C457     1.0000 0.19910  0.79440  0.13310  Biso   1.000  C
  C458     1.0000 0.80090  0.70560  0.13310  Biso   1.000  C
  C459     1.0000 0.19910  0.20560  0.36690  Biso   1.000  C
  C460     1.0000 0.30090  0.79440  0.86690  Biso   1.000  C
  C461     1.0000 0.45560  0.05090  0.11690  Biso   1.000  C
  C462     1.0000 0.54440  0.44910  0.11690  Biso   1.000  C
  C463     1.0000 0.04440  0.05090  0.88310  Biso   1.000  C
  C464     1.0000 0.45560  0.94910  0.38310  Biso   1.000  C
  C465     1.0000 0.30090  0.70560  0.36690  Biso   1.000  C
  C466     1.0000 0.69910  0.79440  0.36690  Biso   1.000  C
  C467     1.0000 0.30090  0.29440  0.13310  Biso   1.000  C
  C468     1.0000 0.19910  0.70560  0.63310  Biso   1.000  C
  C469     1.0000 0.54440  0.94910  0.88310  Biso   1.000  C
  C470     1.0000 0.45560  0.55090  0.88310  Biso   1.000  C
  C471     1.0000 0.95560  0.94910  0.11690  Biso   1.000  C
  C472     1.0000 0.54440  0.05090  0.61690  Biso   1.000  C
  C473     1.0000 0.80090  0.20560  0.86690  Biso   1.000  C
  C474     1.0000 0.19910  0.29440  0.86690  Biso   1.000  C
  C475     1.0000 0.80090  0.79440  0.63310  Biso   1.000  C
  C476     1.0000 0.69910  0.20560  0.13310  Biso   1.000  C
  C477     1.0000 0.04440  0.44910  0.38310  Biso   1.000  C
  C478     1.0000 0.95560  0.05090  0.38310  Biso   1.000  C
  C479     1.0000 0.45560  0.44910  0.61690  Biso   1.000  C
  C480     1.0000 0.04440  0.55090  0.11690  Biso   1.000  C
  H353     1.0000 0.71190  0.26890  0.60890  Biso   1.000  H
  H354     1.0000 0.28810  0.23110  0.60890  Biso   1.000  H
  H355     1.0000 0.71190  0.73110  0.89110  Biso   1.000  H
  H356     1.0000 0.78810  0.26890  0.39110  Biso   1.000  H
  H357     1.0000 0.98110  0.53810  0.64110  Biso   1.000  H
  H358     1.0000 0.01890  0.96190  0.64110  Biso   1.000  H
  H359     1.0000 0.51890  0.53810  0.35890  Biso   1.000  H
  H360     1.0000 0.98110  0.46190  0.85890  Biso   1.000  H
  H361     1.0000 0.21190  0.76890  0.10890  Biso   1.000  H
  H362     1.0000 0.78810  0.73110  0.10890  Biso   1.000  H
  H363     1.0000 0.21190  0.23110  0.39110  Biso   1.000  H
  H364     1.0000 0.28810  0.76890  0.89110  Biso   1.000  H
  H365     1.0000 0.48110  0.03810  0.14110  Biso   1.000  H
  H366     1.0000 0.51890  0.46190  0.14110  Biso   1.000  H
  H367     1.0000 0.01890  0.03810  0.85890  Biso   1.000  H
  H368     1.0000 0.48110  0.96190  0.35890  Biso   1.000  H
  H369     1.0000 0.28810  0.73110  0.39110  Biso   1.000  H
  H370     1.0000 0.71190  0.76890  0.39110  Biso   1.000  H
  H371     1.0000 0.28810  0.26890  0.10890  Biso   1.000  H
  H372     1.0000 0.21190  0.73110  0.60890  Biso   1.000  H
  H373     1.0000 0.51890  0.96190  0.85890  Biso   1.000  H
  H374     1.0000 0.48110  0.53810  0.85890  Biso   1.000  H
  H375     1.0000 0.98110  0.96190  0.14110  Biso   1.000  H
  H376     1.0000 0.51890  0.03810  0.64110  Biso   1.000  H
  H377     1.0000 0.78810  0.23110  0.89110  Biso   1.000  H
  H378     1.0000 0.21190  0.26890  0.89110  Biso   1.000  H
  H379     1.0000 0.78810  0.76890  0.60890  Biso   1.000  H
  H380     1.0000 0.71190  0.23110  0.10890  Biso   1.000  H
  H381     1.0000 0.01890  0.46190  0.35890  Biso   1.000  H
  H382     1.0000 0.98110  0.03810  0.35890  Biso   1.000  H
  H383     1.0000 0.48110  0.46190  0.64110  Biso   1.000  H
  H384     1.0000 0.01890  0.53810  0.14110  Biso   1.000  H
  C481     1.0000 0.58000  0.38210  0.55950  Biso   1.000  C
  C482     1.0000 0.42000  0.11790  0.55950  Biso   1.000  C
  C483     1.0000 0.58000  0.61790  0.94050  Biso   1.000  C
  C484     1.0000 0.92000  0.38210  0.44050  Biso   1.000  C
  C485     1.0000 0.86790  0.67000  0.69050  Biso   1.000  C
  C486     1.0000 0.13210  0.83000  0.69050  Biso   1.000  C
  C487     1.0000 0.63210  0.67000  0.30950  Biso   1.000  C
  C488     1.0000 0.86790  0.33000  0.80950  Biso   1.000  C
  C489     1.0000 0.08000  0.88210  0.05950  Biso   1.000  C
  C490     1.0000 0.92000  0.61790  0.05950  Biso   1.000  C
  C491     1.0000 0.08000  0.11790  0.44050  Biso   1.000  C
  C492     1.0000 0.42000  0.88210  0.94050  Biso   1.000  C
  C493     1.0000 0.36790  0.17000  0.19050  Biso   1.000  C
  C494     1.0000 0.63210  0.33000  0.19050  Biso   1.000  C
  C495     1.0000 0.13210  0.17000  0.80950  Biso   1.000  C
  C496     1.0000 0.36790  0.83000  0.30950  Biso   1.000  C
  C497     1.0000 0.42000  0.61790  0.44050  Biso   1.000  C
  C498     1.0000 0.58000  0.88210  0.44050  Biso   1.000  C
  C499     1.0000 0.42000  0.38210  0.05950  Biso   1.000  C
  C500     1.0000 0.08000  0.61790  0.55950  Biso   1.000  C
  C501     1.0000 0.63210  0.83000  0.80950  Biso   1.000  C
  C502     1.0000 0.36790  0.67000  0.80950  Biso   1.000  C
  C503     1.0000 0.86790  0.83000  0.19050  Biso   1.000  C
  C504     1.0000 0.63210  0.17000  0.69050  Biso   1.000  C
  C505     1.0000 0.92000  0.11790  0.94050  Biso   1.000  C
  C506     1.0000 0.08000  0.38210  0.94050  Biso   1.000  C
  C507     1.0000 0.92000  0.88210  0.55950  Biso   1.000  C
  C508     1.0000 0.58000  0.11790  0.05950  Biso   1.000  C
  C509     1.0000 0.13210  0.33000  0.30950  Biso   1.000  C
  C510     1.0000 0.86790  0.17000  0.30950  Biso   1.000  C
  C511     1.0000 0.36790  0.33000  0.69050  Biso   1.000  C
  C512     1.0000 0.13210  0.67000  0.19050  Biso   1.000  C
  H385     1.0000 0.57930  0.34990  0.55010  Biso   1.000  H
  H386     1.0000 0.42070  0.15010  0.55010  Biso   1.000  H
  H387     1.0000 0.57930  0.65010  0.94990  Biso   1.000  H
  H388     1.0000 0.92070  0.34990  0.44990  Biso   1.000  H
  H389     1.0000 0.90010  0.67070  0.69990  Biso   1.000  H
  H390     1.0000 0.09990  0.82930  0.69990  Biso   1.000  H
  H391     1.0000 0.59990  0.67070  0.30010  Biso   1.000  H
  H392     1.0000 0.90010  0.32930  0.80010  Biso   1.000  H
  H393     1.0000 0.07930  0.84990  0.05010  Biso   1.000  H
  H394     1.0000 0.92070  0.65010  0.05010  Biso   1.000  H
  H395     1.0000 0.07930  0.15010  0.44990  Biso   1.000  H
  H396     1.0000 0.42070  0.84990  0.94990  Biso   1.000  H
  H397     1.0000 0.40010  0.17070  0.19990  Biso   1.000  H
  H398     1.0000 0.59990  0.32930  0.19990  Biso   1.000  H
  H399     1.0000 0.09990  0.17070  0.80010  Biso   1.000  H
  H400     1.0000 0.40010  0.82930  0.30010  Biso   1.000  H
  H401     1.0000 0.42070  0.65010  0.44990  Biso   1.000  H
  H402     1.0000 0.57930  0.84990  0.44990  Biso   1.000  H
  H403     1.0000 0.42070  0.34990  0.05010  Biso   1.000  H
  H404     1.0000 0.07930  0.65010  0.55010  Biso   1.000  H
  H405     1.0000 0.59990  0.82930  0.80010  Biso   1.000  H
  H406     1.0000 0.40010  0.67070  0.80010  Biso   1.000  H
  H407     1.0000 0.90010  0.82930  0.19990  Biso   1.000  H
  H408     1.0000 0.59990  0.17070  0.69990  Biso   1.000  H
  H409     1.0000 0.92070  0.15010  0.94990  Biso   1.000  H
  H410     1.0000 0.07930  0.34990  0.94990  Biso   1.000  H
  H411     1.0000 0.92070  0.84990  0.55010  Biso   1.000  H
  H412     1.0000 0.57930  0.15010  0.05010  Biso   1.000  H
  H413     1.0000 0.09990  0.32930  0.30010  Biso   1.000  H
  H414     1.0000 0.90010  0.17070  0.30010  Biso   1.000  H
  H415     1.0000 0.40010  0.32930  0.69990  Biso   1.000  H
  H416     1.0000 0.09990  0.67070  0.19990  Biso   1.000  H
  C513     1.0000 0.54580  0.41080  0.52520  Biso   1.000  C
  C514     1.0000 0.45420  0.08920  0.52520  Biso   1.000  C
  C515     1.0000 0.54580  0.58920  0.97480  Biso   1.000  C
  C516     1.0000 0.95420  0.41080  0.47480  Biso   1.000  C
  C517     1.0000 0.83920  0.70420  0.72480  Biso   1.000  C
  C518     1.0000 0.16080  0.79580  0.72480  Biso   1.000  C
  C519     1.0000 0.66080  0.70420  0.27520  Biso   1.000  C
  C520     1.0000 0.83920  0.29580  0.77520  Biso   1.000  C
  C521     1.0000 0.04580  0.91080  0.02520  Biso   1.000  C
  C522     1.0000 0.95420  0.58920  0.02520  Biso   1.000  C
  C523     1.0000 0.04580  0.08920  0.47480  Biso   1.000  C
  C524     1.0000 0.45420  0.91080  0.97480  Biso   1.000  C
  C525     1.0000 0.33920  0.20420  0.22480  Biso   1.000  C
  C526     1.0000 0.66080  0.29580  0.22480  Biso   1.000  C
  C527     1.0000 0.16080  0.20420  0.77520  Biso   1.000  C
  C528     1.0000 0.33920  0.79580  0.27520  Biso   1.000  C
  C529     1.0000 0.45420  0.58920  0.47480  Biso   1.000  C
  C530     1.0000 0.54580  0.91080  0.47480  Biso   1.000  C
  C531     1.0000 0.45420  0.41080  0.02520  Biso   1.000  C
  C532     1.0000 0.04580  0.58920  0.52520  Biso   1.000  C
  C533     1.0000 0.66080  0.79580  0.77520  Biso   1.000  C
  C534     1.0000 0.33920  0.70420  0.77520  Biso   1.000  C
  C535     1.0000 0.83920  0.79580  0.22480  Biso   1.000  C
  C536     1.0000 0.66080  0.20420  0.72480  Biso   1.000  C
  C537     1.0000 0.95420  0.08920  0.97480  Biso   1.000  C
  C538     1.0000 0.04580  0.41080  0.97480  Biso   1.000  C
  C539     1.0000 0.95420  0.91080  0.52520  Biso   1.000  C
  C540     1.0000 0.54580  0.08920  0.02520  Biso   1.000  C
  C541     1.0000 0.16080  0.29580  0.27520  Biso   1.000  C
  C542     1.0000 0.83920  0.20420  0.27520  Biso   1.000  C
  C543     1.0000 0.33920  0.29580  0.72480  Biso   1.000  C
  C544     1.0000 0.16080  0.70420  0.22480  Biso   1.000  C
  H417     1.0000 0.52330  0.39880  0.49450  Biso   1.000  H
  H418     1.0000 0.47670  0.10120  0.49450  Biso   1.000  H
  H419     1.0000 0.52330  0.60120  0.00550  Biso   1.000  H
  H420     1.0000 0.97670  0.39880  0.50550  Biso   1.000  H
  H421     1.0000 0.85120  0.72670  0.75550  Biso   1.000  H
  H422     1.0000 0.14880  0.77330  0.75550  Biso   1.000  H
  H423     1.0000 0.64880  0.72670  0.24450  Biso   1.000  H
  H424     1.0000 0.85120  0.27330  0.74450  Biso   1.000  H
  H425     1.0000 0.02330  0.89880  0.99450  Biso   1.000  H
  H426     1.0000 0.97670  0.60120  0.99450  Biso   1.000  H
  H427     1.0000 0.02330  0.10120  0.50550  Biso   1.000  H
  H428     1.0000 0.47670  0.89880  0.00550  Biso   1.000  H
  H429     1.0000 0.35120  0.22670  0.25550  Biso   1.000  H
  H430     1.0000 0.64880  0.27330  0.25550  Biso   1.000  H
  H431     1.0000 0.14880  0.22670  0.74450  Biso   1.000  H
  H432     1.0000 0.35120  0.77330  0.24450  Biso   1.000  H
  H433     1.0000 0.47670  0.60120  0.50550  Biso   1.000  H
  H434     1.0000 0.52330  0.89880  0.50550  Biso   1.000  H
  H435     1.0000 0.47670  0.39880  0.99450  Biso   1.000  H
  H436     1.0000 0.02330  0.60120  0.49450  Biso   1.000  H
  H437     1.0000 0.64880  0.77330  0.74450  Biso   1.000  H
  H438     1.0000 0.35120  0.72670  0.74450  Biso   1.000  H
  H439     1.0000 0.85120  0.77330  0.25550  Biso   1.000  H
  H440     1.0000 0.64880  0.22670  0.75550  Biso   1.000  H
  H441     1.0000 0.97670  0.10120  0.00550  Biso   1.000  H
  H442     1.0000 0.02330  0.39880  0.00550  Biso   1.000  H
  H443     1.0000 0.97670  0.89880  0.49450  Biso   1.000  H
  H444     1.0000 0.52330  0.10120  0.99450  Biso   1.000  H
  H445     1.0000 0.14880  0.27330  0.24450  Biso   1.000  H
  H446     1.0000 0.85120  0.22670  0.24450  Biso   1.000  H
  H447     1.0000 0.35120  0.27330  0.75550  Biso   1.000  H
  H448     1.0000 0.14880  0.72670  0.25550  Biso   1.000  H
  C545     1.0000 0.58050  0.47750  0.58540  Biso   1.000  C
  C546     1.0000 0.41950  0.02250  0.58540  Biso   1.000  C
  C547     1.0000 0.58050  0.52250  0.91460  Biso   1.000  C
  C548     1.0000 0.91950  0.47750  0.41460  Biso   1.000  C
  C549     1.0000 0.77250  0.66950  0.66460  Biso   1.000  C
  C550     1.0000 0.22750  0.83050  0.66460  Biso   1.000  C
  C551     1.0000 0.72750  0.66950  0.33540  Biso   1.000  C
  C552     1.0000 0.77250  0.33050  0.83540  Biso   1.000  C
  C553     1.0000 0.08050  0.97750  0.08540  Biso   1.000  C
  C554     1.0000 0.91950  0.52250  0.08540  Biso   1.000  C
  C555     1.0000 0.08050  0.02250  0.41460  Biso   1.000  C
  C556     1.0000 0.41950  0.97750  0.91460  Biso   1.000  C
  C557     1.0000 0.27250  0.16950  0.16460  Biso   1.000  C
  C558     1.0000 0.72750  0.33050  0.16460  Biso   1.000  C
  C559     1.0000 0.22750  0.16950  0.83540  Biso   1.000  C
  C560     1.0000 0.27250  0.83050  0.33540  Biso   1.000  C
  C561     1.0000 0.41950  0.52250  0.41460  Biso   1.000  C
  C562     1.0000 0.58050  0.97750  0.41460  Biso   1.000  C
  C563     1.0000 0.41950  0.47750  0.08540  Biso   1.000  C
  C564     1.0000 0.08050  0.52250  0.58540  Biso   1.000  C
  C565     1.0000 0.72750  0.83050  0.83540  Biso   1.000  C
  C566     1.0000 0.27250  0.66950  0.83540  Biso   1.000  C
  C567     1.0000 0.77250  0.83050  0.16460  Biso   1.000  C
  C568     1.0000 0.72750  0.16950  0.66460  Biso   1.000  C
  C569     1.0000 0.91950  0.02250  0.91460  Biso   1.000  C
  C570     1.0000 0.08050  0.47750  0.91460  Biso   1.000  C
  C571     1.0000 0.91950  0.97750  0.58540  Biso   1.000  C
  C572     1.0000 0.58050  0.02250  0.08540  Biso   1.000  C
  C573     1.0000 0.22750  0.33050  0.33540  Biso   1.000  C
  C574     1.0000 0.77250  0.16950  0.33540  Biso   1.000  C
  C575     1.0000 0.27250  0.33050  0.66460  Biso   1.000  C
  C576     1.0000 0.22750  0.66950  0.16460  Biso   1.000  C
  H449     1.0000 0.57990  0.50990  0.59330  Biso   1.000  H
  H450     1.0000 0.42010  0.99010  0.59330  Biso   1.000  H
  H451     1.0000 0.57990  0.49010  0.90670  Biso   1.000  H
  H452     1.0000 0.92010  0.50990  0.40670  Biso   1.000  H
  H453     1.0000 0.74010  0.67010  0.65670  Biso   1.000  H
  H454     1.0000 0.25990  0.82990  0.65670  Biso   1.000  H
  H455     1.0000 0.75990  0.67010  0.34330  Biso   1.000  H
  H456     1.0000 0.74010  0.32990  0.84330  Biso   1.000  H
  H457     1.0000 0.07990  0.00990  0.09330  Biso   1.000  H
  H458     1.0000 0.92010  0.49010  0.09330  Biso   1.000  H
  H459     1.0000 0.07990  0.99010  0.40670  Biso   1.000  H
  H460     1.0000 0.42010  0.00990  0.90670  Biso   1.000  H
  H461     1.0000 0.24010  0.17010  0.15670  Biso   1.000  H
  H462     1.0000 0.75990  0.32990  0.15670  Biso   1.000  H
  H463     1.0000 0.25990  0.17010  0.84330  Biso   1.000  H
  H464     1.0000 0.24010  0.82990  0.34330  Biso   1.000  H
  H465     1.0000 0.42010  0.49010  0.40670  Biso   1.000  H
  H466     1.0000 0.57990  0.00990  0.40670  Biso   1.000  H
  H467     1.0000 0.42010  0.50990  0.09330  Biso   1.000  H
  H468     1.0000 0.07990  0.49010  0.59330  Biso   1.000  H
  H469     1.0000 0.75990  0.82990  0.84330  Biso   1.000  H
  H470     1.0000 0.24010  0.67010  0.84330  Biso   1.000  H
  H471     1.0000 0.74010  0.82990  0.15670  Biso   1.000  H
  H472     1.0000 0.75990  0.17010  0.65670  Biso   1.000  H
  H473     1.0000 0.92010  0.99010  0.90670  Biso   1.000  H
  H474     1.0000 0.07990  0.50990  0.90670  Biso   1.000  H
  H475     1.0000 0.92010  0.00990  0.59330  Biso   1.000  H
  H476     1.0000 0.57990  0.99010  0.09330  Biso   1.000  H
  H477     1.0000 0.25990  0.32990  0.34330  Biso   1.000  H
  H478     1.0000 0.74010  0.17010  0.34330  Biso   1.000  H
  H479     1.0000 0.24010  0.32990  0.65670  Biso   1.000  H
  H480     1.0000 0.25990  0.67010  0.15670  Biso   1.000  H
  C577     1.0000 0.61470  0.44800  0.61940  Biso   1.000  C
  C578     1.0000 0.38530  0.05200  0.61940  Biso   1.000  C
  C579     1.0000 0.61470  0.55200  0.88060  Biso   1.000  C
  C580     1.0000 0.88530  0.44800  0.38060  Biso   1.000  C
  C581     1.0000 0.80200  0.63530  0.63060  Biso   1.000  C
  C582     1.0000 0.19800  0.86470  0.63060  Biso   1.000  C
  C583     1.0000 0.69800  0.63530  0.36940  Biso   1.000  C
  C584     1.0000 0.80200  0.36470  0.86940  Biso   1.000  C
  C585     1.0000 0.11470  0.94800  0.11940  Biso   1.000  C
  C586     1.0000 0.88530  0.55200  0.11940  Biso   1.000  C
  C587     1.0000 0.11470  0.05200  0.38060  Biso   1.000  C
  C588     1.0000 0.38530  0.94800  0.88060  Biso   1.000  C
  C589     1.0000 0.30200  0.13530  0.13060  Biso   1.000  C
  C590     1.0000 0.69800  0.36470  0.13060  Biso   1.000  C
  C591     1.0000 0.19800  0.13530  0.86940  Biso   1.000  C
  C592     1.0000 0.30200  0.86470  0.36940  Biso   1.000  C
  C593     1.0000 0.38530  0.55200  0.38060  Biso   1.000  C
  C594     1.0000 0.61470  0.94800  0.38060  Biso   1.000  C
  C595     1.0000 0.38530  0.44800  0.11940  Biso   1.000  C
  C596     1.0000 0.11470  0.55200  0.61940  Biso   1.000  C
  C597     1.0000 0.69800  0.86470  0.86940  Biso   1.000  C
  C598     1.0000 0.30200  0.63530  0.86940  Biso   1.000  C
  C599     1.0000 0.80200  0.86470  0.13060  Biso   1.000  C
  C600     1.0000 0.69800  0.13530  0.63060  Biso   1.000  C
  C601     1.0000 0.88530  0.05200  0.88060  Biso   1.000  C
  C602     1.0000 0.11470  0.44800  0.88060  Biso   1.000  C
  C603     1.0000 0.88530  0.94800  0.61940  Biso   1.000  C
  C604     1.0000 0.61470  0.05200  0.11940  Biso   1.000  C
  C605     1.0000 0.19800  0.36470  0.36940  Biso   1.000  C
  C606     1.0000 0.80200  0.13530  0.36940  Biso   1.000  C
  C607     1.0000 0.30200  0.36470  0.63060  Biso   1.000  C
  C608     1.0000 0.19800  0.63530  0.13060  Biso   1.000  C
  H481     1.0000 0.63670  0.46120  0.64980  Biso   1.000  H
  H482     1.0000 0.36330  0.03880  0.64980  Biso   1.000  H
  H483     1.0000 0.63670  0.53880  0.85020  Biso   1.000  H
  H484     1.0000 0.86330  0.46120  0.35020  Biso   1.000  H
  H485     1.0000 0.78880  0.61330  0.60020  Biso   1.000  H
  H486     1.0000 0.21120  0.88670  0.60020  Biso   1.000  H
  H487     1.0000 0.71120  0.61330  0.39980  Biso   1.000  H
  H488     1.0000 0.78880  0.38670  0.89980  Biso   1.000  H
  H489     1.0000 0.13670  0.96120  0.14980  Biso   1.000  H
  H490     1.0000 0.86330  0.53880  0.14980  Biso   1.000  H
  H491     1.0000 0.13670  0.03880  0.35020  Biso   1.000  H
  H492     1.0000 0.36330  0.96120  0.85020  Biso   1.000  H
  H493     1.0000 0.28880  0.11330  0.10020  Biso   1.000  H
  H494     1.0000 0.71120  0.38670  0.10020  Biso   1.000  H
  H495     1.0000 0.21120  0.11330  0.89980  Biso   1.000  H
  H496     1.0000 0.28880  0.88670  0.39980  Biso   1.000  H
  H497     1.0000 0.36330  0.53880  0.35020  Biso   1.000  H
  H498     1.0000 0.63670  0.96120  0.35020  Biso   1.000  H
  H499     1.0000 0.36330  0.46120  0.14980  Biso   1.000  H
  H500     1.0000 0.13670  0.53880  0.64980  Biso   1.000  H
  H501     1.0000 0.71120  0.88670  0.89980  Biso   1.000  H
  H502     1.0000 0.28880  0.61330  0.89980  Biso   1.000  H
  H503     1.0000 0.78880  0.88670  0.10020  Biso   1.000  H
  H504     1.0000 0.71120  0.11330  0.60020  Biso   1.000  H
  H505     1.0000 0.86330  0.03880  0.85020  Biso   1.000  H
  H506     1.0000 0.13670  0.46120  0.85020  Biso   1.000  H
  H507     1.0000 0.86330  0.96120  0.64980  Biso   1.000  H
  H508     1.0000 0.63670  0.03880  0.14980  Biso   1.000  H
  H509     1.0000 0.21120  0.38670  0.39980  Biso   1.000  H
  H510     1.0000 0.78880  0.11330  0.39980  Biso   1.000  H
  H511     1.0000 0.28880  0.38670  0.60020  Biso   1.000  H
  H512     1.0000 0.21120  0.61330  0.10020  Biso   1.000  H
