data_image0
_cell_length_a       16.993
_cell_length_b       42.006
_cell_length_c       42.426
_cell_angle_alpha    90
_cell_angle_beta     90
_cell_angle_gamma    90

_symmetry_space_group_name_H-M    "P 1"
_symmetry_int_tables_number       1

loop_
  _symmetry_equiv_pos_as_xyz
  'x, y, z'

loop_
  _atom_site_label
  _atom_site_occupancy
  _atom_site_fract_x
  _atom_site_fract_y
  _atom_site_fract_z
  _atom_site_thermal_displace_type
  _atom_site_B_iso_or_equiv
  _atom_site_type_symbol
  Fe1      1.0000 0.49546  0.00165  0.23613  Biso   1.000  Fe
  Fe2      1.0000 0.75454  0.24835  0.23613  Biso   1.000  Fe
  Fe3      1.0000 0.49546  0.24835  0.01387  Biso   1.000  Fe
  Fe4      1.0000 0.75454  0.00165  0.01387  Biso   1.000  Fe
  Fe5      1.0000 0.49546  0.50165  0.73613  Biso   1.000  Fe
  Fe6      1.0000 0.75454  0.74835  0.73613  Biso   1.000  Fe
  Fe7      1.0000 0.49546  0.74835  0.51387  Biso   1.000  Fe
  Fe8      1.0000 0.75454  0.50165  0.51387  Biso   1.000  Fe
  Fe9      1.0000 0.99546  0.00165  0.73613  Biso   1.000  Fe
  Fe10     1.0000 0.25454  0.24835  0.73613  Biso   1.000  Fe
  Fe11     1.0000 0.99546  0.24835  0.51387  Biso   1.000  Fe
  Fe12     1.0000 0.25454  0.00165  0.51387  Biso   1.000  Fe
  Fe13     1.0000 0.99546  0.50165  0.23613  Biso   1.000  Fe
  Fe14     1.0000 0.25454  0.74835  0.23613  Biso   1.000  Fe
  Fe15     1.0000 0.99546  0.74835  0.01387  Biso   1.000  Fe
  Fe16     1.0000 0.25454  0.50165  0.01387  Biso   1.000  Fe
  Fe17     1.0000 0.50454  0.99835  0.76387  Biso   1.000  Fe
  Fe18     1.0000 0.74546  0.25165  0.76387  Biso   1.000  Fe
  Fe19     1.0000 0.50454  0.25165  0.48613  Biso   1.000  Fe
  Fe20     1.0000 0.74546  0.99835  0.48613  Biso   1.000  Fe
  Fe21     1.0000 0.50454  0.49835  0.26387  Biso   1.000  Fe
  Fe22     1.0000 0.74546  0.75165  0.26387  Biso   1.000  Fe
  Fe23     1.0000 0.50454  0.75165  0.98613  Biso   1.000  Fe
  Fe24     1.0000 0.74546  0.49835  0.98613  Biso   1.000  Fe
  Fe25     1.0000 0.00454  0.99835  0.26387  Biso   1.000  Fe
  Fe26     1.0000 0.24546  0.25165  0.26387  Biso   1.000  Fe
  Fe27     1.0000 0.00454  0.25165  0.98613  Biso   1.000  Fe
  Fe28     1.0000 0.24546  0.99835  0.98613  Biso   1.000  Fe
  Fe29     1.0000 0.00454  0.49835  0.76387  Biso   1.000  Fe
  Fe30     1.0000 0.24546  0.75165  0.76387  Biso   1.000  Fe
  Fe31     1.0000 0.00454  0.75165  0.48613  Biso   1.000  Fe
  Fe32     1.0000 0.24546  0.49835  0.48613  Biso   1.000  Fe
  N1       1.0000 0.44660  0.04918  0.24433  Biso   1.000  N
  N2       1.0000 0.80340  0.20082  0.24433  Biso   1.000  N
  N3       1.0000 0.44660  0.20082  0.00567  Biso   1.000  N
  N4       1.0000 0.80340  0.04918  0.00567  Biso   1.000  N
  N5       1.0000 0.44660  0.54918  0.74433  Biso   1.000  N
  N6       1.0000 0.80340  0.70082  0.74433  Biso   1.000  N
  N7       1.0000 0.44660  0.70082  0.50567  Biso   1.000  N
  N8       1.0000 0.80340  0.54918  0.50567  Biso   1.000  N
  N9       1.0000 0.94660  0.04918  0.74433  Biso   1.000  N
  N10      1.0000 0.30340  0.20082  0.74433  Biso   1.000  N
  N11      1.0000 0.94660  0.20082  0.50567  Biso   1.000  N
  N12      1.0000 0.30340  0.04918  0.50567  Biso   1.000  N
  N13      1.0000 0.94660  0.54918  0.24433  Biso   1.000  N
  N14      1.0000 0.30340  0.70082  0.24433  Biso   1.000  N
  N15      1.0000 0.94660  0.70082  0.00567  Biso   1.000  N
  N16      1.0000 0.30340  0.54918  0.00567  Biso   1.000  N
  N17      1.0000 0.55340  0.95082  0.75567  Biso   1.000  N
  N18      1.0000 0.69660  0.29918  0.75567  Biso   1.000  N
  N19      1.0000 0.55340  0.29918  0.49433  Biso   1.000  N
  N20      1.0000 0.69660  0.95082  0.49433  Biso   1.000  N
  N21      1.0000 0.55340  0.45082  0.25567  Biso   1.000  N
  N22      1.0000 0.69660  0.79918  0.25567  Biso   1.000  N
  N23      1.0000 0.55340  0.79918  0.99433  Biso   1.000  N
  N24      1.0000 0.69660  0.45082  0.99433  Biso   1.000  N
  N25      1.0000 0.05340  0.95082  0.25567  Biso   1.000  N
  N26      1.0000 0.19660  0.29918  0.25567  Biso   1.000  N
  N27      1.0000 0.05340  0.29918  0.99433  Biso   1.000  N
  N28      1.0000 0.19660  0.95082  0.99433  Biso   1.000  N
  N29      1.0000 0.05340  0.45082  0.75567  Biso   1.000  N
  N30      1.0000 0.19660  0.79918  0.75567  Biso   1.000  N
  N31      1.0000 0.05340  0.79918  0.49433  Biso   1.000  N
  N32      1.0000 0.19660  0.45082  0.49433  Biso   1.000  N
  C1       1.0000 0.46220  0.07332  0.22478  Biso   1.000  C
  C2       1.0000 0.78780  0.17668  0.22478  Biso   1.000  C
  C3       1.0000 0.46220  0.17668  0.02522  Biso   1.000  C
  C4       1.0000 0.78780  0.07332  0.02522  Biso   1.000  C
  C5       1.0000 0.46220  0.57332  0.72478  Biso   1.000  C
  C6       1.0000 0.78780  0.67668  0.72478  Biso   1.000  C
  C7       1.0000 0.46220  0.67668  0.52522  Biso   1.000  C
  C8       1.0000 0.78780  0.57332  0.52522  Biso   1.000  C
  C9       1.0000 0.96220  0.07332  0.72478  Biso   1.000  C
  C10      1.0000 0.28780  0.17668  0.72478  Biso   1.000  C
  C11      1.0000 0.96220  0.17668  0.52522  Biso   1.000  C
  C12      1.0000 0.28780  0.07332  0.52522  Biso   1.000  C
  C13      1.0000 0.96220  0.57332  0.22478  Biso   1.000  C
  C14      1.0000 0.28780  0.67668  0.22478  Biso   1.000  C
  C15      1.0000 0.96220  0.67668  0.02522  Biso   1.000  C
  C16      1.0000 0.28780  0.57332  0.02522  Biso   1.000  C
  C17      1.0000 0.53780  0.92668  0.77522  Biso   1.000  C
  C18      1.0000 0.71220  0.32332  0.77522  Biso   1.000  C
  C19      1.0000 0.53780  0.32332  0.47478  Biso   1.000  C
  C20      1.0000 0.71220  0.92668  0.47478  Biso   1.000  C
  C21      1.0000 0.53780  0.42668  0.27522  Biso   1.000  C
  C22      1.0000 0.71220  0.82332  0.27522  Biso   1.000  C
  C23      1.0000 0.53780  0.82332  0.97478  Biso   1.000  C
  C24      1.0000 0.71220  0.42668  0.97478  Biso   1.000  C
  C25      1.0000 0.03780  0.92668  0.27522  Biso   1.000  C
  C26      1.0000 0.21220  0.32332  0.27522  Biso   1.000  C
  C27      1.0000 0.03780  0.32332  0.97478  Biso   1.000  C
  C28      1.0000 0.21220  0.92668  0.97478  Biso   1.000  C
  C29      1.0000 0.03780  0.42668  0.77522  Biso   1.000  C
  C30      1.0000 0.21220  0.82332  0.77522  Biso   1.000  C
  C31      1.0000 0.03780  0.82332  0.47478  Biso   1.000  C
  C32      1.0000 0.21220  0.42668  0.47478  Biso   1.000  C
  H1       1.0000 0.49320  0.06920  0.20660  Biso   1.000  H
  H2       1.0000 0.75680  0.18080  0.20660  Biso   1.000  H
  H3       1.0000 0.49320  0.18080  0.04340  Biso   1.000  H
  H4       1.0000 0.75680  0.06920  0.04340  Biso   1.000  H
  H5       1.0000 0.49320  0.56920  0.70660  Biso   1.000  H
  H6       1.0000 0.75680  0.68080  0.70660  Biso   1.000  H
  H7       1.0000 0.49320  0.68080  0.54340  Biso   1.000  H
  H8       1.0000 0.75680  0.56920  0.54340  Biso   1.000  H
  H9       1.0000 0.99320  0.06920  0.70660  Biso   1.000  H
  H10      1.0000 0.25680  0.18080  0.70660  Biso   1.000  H
  H11      1.0000 0.99320  0.18080  0.54340  Biso   1.000  H
  H12      1.0000 0.25680  0.06920  0.54340  Biso   1.000  H
  H13      1.0000 0.99320  0.56920  0.20660  Biso   1.000  H
  H14      1.0000 0.25680  0.68080  0.20660  Biso   1.000  H
  H15      1.0000 0.99320  0.68080  0.04340  Biso   1.000  H
  H16      1.0000 0.25680  0.56920  0.04340  Biso   1.000  H
  H17      1.0000 0.50680  0.93080  0.79340  Biso   1.000  H
  H18      1.0000 0.74320  0.31920  0.79340  Biso   1.000  H
  H19      1.0000 0.50680  0.31920  0.45660  Biso   1.000  H
  H20      1.0000 0.74320  0.93080  0.45660  Biso   1.000  H
  H21      1.0000 0.50680  0.43080  0.29340  Biso   1.000  H
  H22      1.0000 0.74320  0.81920  0.29340  Biso   1.000  H
  H23      1.0000 0.50680  0.81920  0.95660  Biso   1.000  H
  H24      1.0000 0.74320  0.43080  0.95660  Biso   1.000  H
  H25      1.0000 0.00680  0.93080  0.29340  Biso   1.000  H
  H26      1.0000 0.24320  0.31920  0.29340  Biso   1.000  H
  H27      1.0000 0.00680  0.31920  0.95660  Biso   1.000  H
  H28      1.0000 0.24320  0.93080  0.95660  Biso   1.000  H
  H29      1.0000 0.00680  0.43080  0.79340  Biso   1.000  H
  H30      1.0000 0.24320  0.81920  0.79340  Biso   1.000  H
  H31      1.0000 0.00680  0.81920  0.45660  Biso   1.000  H
  H32      1.0000 0.24320  0.43080  0.45660  Biso   1.000  H
  C33      1.0000 0.43560  0.10360  0.22963  Biso   1.000  C
  C34      1.0000 0.81440  0.14640  0.22963  Biso   1.000  C
  C35      1.0000 0.43560  0.14640  0.02037  Biso   1.000  C
  C36      1.0000 0.81440  0.10360  0.02037  Biso   1.000  C
  C37      1.0000 0.43560  0.60360  0.72963  Biso   1.000  C
  C38      1.0000 0.81440  0.64640  0.72963  Biso   1.000  C
  C39      1.0000 0.43560  0.64640  0.52037  Biso   1.000  C
  C40      1.0000 0.81440  0.60360  0.52037  Biso   1.000  C
  C41      1.0000 0.93560  0.10360  0.72963  Biso   1.000  C
  C42      1.0000 0.31440  0.14640  0.72963  Biso   1.000  C
  C43      1.0000 0.93560  0.14640  0.52037  Biso   1.000  C
  C44      1.0000 0.31440  0.10360  0.52037  Biso   1.000  C
  C45      1.0000 0.93560  0.60360  0.22963  Biso   1.000  C
  C46      1.0000 0.31440  0.64640  0.22963  Biso   1.000  C
  C47      1.0000 0.93560  0.64640  0.02037  Biso   1.000  C
  C48      1.0000 0.31440  0.60360  0.02037  Biso   1.000  C
  C49      1.0000 0.56440  0.89640  0.77037  Biso   1.000  C
  C50      1.0000 0.68560  0.35360  0.77037  Biso   1.000  C
  C51      1.0000 0.56440  0.35360  0.47963  Biso   1.000  C
  C52      1.0000 0.68560  0.89640  0.47963  Biso   1.000  C
  C53      1.0000 0.56440  0.39640  0.27037  Biso   1.000  C
  C54      1.0000 0.68560  0.85360  0.27037  Biso   1.000  C
  C55      1.0000 0.56440  0.85360  0.97963  Biso   1.000  C
  C56      1.0000 0.68560  0.39640  0.97963  Biso   1.000  C
  C57      1.0000 0.06440  0.89640  0.27037  Biso   1.000  C
  C58      1.0000 0.18560  0.35360  0.27037  Biso   1.000  C
  C59      1.0000 0.06440  0.35360  0.97963  Biso   1.000  C
  C60      1.0000 0.18560  0.89640  0.97963  Biso   1.000  C
  C61      1.0000 0.06440  0.39640  0.77037  Biso   1.000  C
  C62      1.0000 0.18560  0.85360  0.77037  Biso   1.000  C
  C63      1.0000 0.06440  0.85360  0.47963  Biso   1.000  C
  C64      1.0000 0.18560  0.39640  0.47963  Biso   1.000  C
  H33      1.0000 0.45100  0.12010  0.21570  Biso   1.000  H
  H34      1.0000 0.79900  0.12990  0.21570  Biso   1.000  H
  H35      1.0000 0.45100  0.12990  0.03430  Biso   1.000  H
  H36      1.0000 0.79900  0.12010  0.03430  Biso   1.000  H
  H37      1.0000 0.45100  0.62010  0.71570  Biso   1.000  H
  H38      1.0000 0.79900  0.62990  0.71570  Biso   1.000  H
  H39      1.0000 0.45100  0.62990  0.53430  Biso   1.000  H
  H40      1.0000 0.79900  0.62010  0.53430  Biso   1.000  H
  H41      1.0000 0.95100  0.12010  0.71570  Biso   1.000  H
  H42      1.0000 0.29900  0.12990  0.71570  Biso   1.000  H
  H43      1.0000 0.95100  0.12990  0.53430  Biso   1.000  H
  H44      1.0000 0.29900  0.12010  0.53430  Biso   1.000  H
  H45      1.0000 0.95100  0.62010  0.21570  Biso   1.000  H
  H46      1.0000 0.29900  0.62990  0.21570  Biso   1.000  H
  H47      1.0000 0.95100  0.62990  0.03430  Biso   1.000  H
  H48      1.0000 0.29900  0.62010  0.03430  Biso   1.000  H
  H49      1.0000 0.54900  0.87990  0.78430  Biso   1.000  H
  H50      1.0000 0.70100  0.37010  0.78430  Biso   1.000  H
  H51      1.0000 0.54900  0.37010  0.46570  Biso   1.000  H
  H52      1.0000 0.70100  0.87990  0.46570  Biso   1.000  H
  H53      1.0000 0.54900  0.37990  0.28430  Biso   1.000  H
  H54      1.0000 0.70100  0.87010  0.28430  Biso   1.000  H
  H55      1.0000 0.54900  0.87010  0.96570  Biso   1.000  H
  H56      1.0000 0.70100  0.37990  0.96570  Biso   1.000  H
  H57      1.0000 0.04900  0.87990  0.28430  Biso   1.000  H
  H58      1.0000 0.20100  0.37010  0.28430  Biso   1.000  H
  H59      1.0000 0.04900  0.37010  0.96570  Biso   1.000  H
  H60      1.0000 0.20100  0.87990  0.96570  Biso   1.000  H
  H61      1.0000 0.04900  0.37990  0.78430  Biso   1.000  H
  H62      1.0000 0.20100  0.87010  0.78430  Biso   1.000  H
  H63      1.0000 0.04900  0.87010  0.46570  Biso   1.000  H
  H64      1.0000 0.20100  0.37990  0.46570  Biso   1.000  H
  C65      1.0000 0.38620  0.11039  0.25497  Biso   1.000  C
  C66      1.0000 0.86380  0.13961  0.25497  Biso   1.000  C
  C67      1.0000 0.38620  0.13961  0.99503  Biso   1.000  C
  C68      1.0000 0.86380  0.11039  0.99503  Biso   1.000  C
  C69      1.0000 0.38620  0.61039  0.75497  Biso   1.000  C
  C70      1.0000 0.86380  0.63961  0.75497  Biso   1.000  C
  C71      1.0000 0.38620  0.63961  0.49503  Biso   1.000  C
  C72      1.0000 0.86380  0.61039  0.49503  Biso   1.000  C
  C73      1.0000 0.88620  0.11039  0.75497  Biso   1.000  C
  C74      1.0000 0.36380  0.13961  0.75497  Biso   1.000  C
  C75      1.0000 0.88620  0.13961  0.49503  Biso   1.000  C
  C76      1.0000 0.36380  0.11039  0.49503  Biso   1.000  C
  C77      1.0000 0.88620  0.61039  0.25497  Biso   1.000  C
  C78      1.0000 0.36380  0.63961  0.25497  Biso   1.000  C
  C79      1.0000 0.88620  0.63961  0.99503  Biso   1.000  C
  C80      1.0000 0.36380  0.61039  0.99503  Biso   1.000  C
  C81      1.0000 0.61380  0.88961  0.74503  Biso   1.000  C
  C82      1.0000 0.63620  0.36039  0.74503  Biso   1.000  C
  C83      1.0000 0.61380  0.36039  0.50497  Biso   1.000  C
  C84      1.0000 0.63620  0.88961  0.50497  Biso   1.000  C
  C85      1.0000 0.61380  0.38961  0.24503  Biso   1.000  C
  C86      1.0000 0.63620  0.86039  0.24503  Biso   1.000  C
  C87      1.0000 0.61380  0.86039  0.00497  Biso   1.000  C
  C88      1.0000 0.63620  0.38961  0.00497  Biso   1.000  C
  C89      1.0000 0.11380  0.88961  0.24503  Biso   1.000  C
  C90      1.0000 0.13620  0.36039  0.24503  Biso   1.000  C
  C91      1.0000 0.11380  0.36039  0.00497  Biso   1.000  C
  C92      1.0000 0.13620  0.88961  0.00497  Biso   1.000  C
  C93      1.0000 0.11380  0.38961  0.74503  Biso   1.000  C
  C94      1.0000 0.13620  0.86039  0.74503  Biso   1.000  C
  C95      1.0000 0.11380  0.86039  0.50497  Biso   1.000  C
  C96      1.0000 0.13620  0.38961  0.50497  Biso   1.000  C
  C97      1.0000 0.36660  0.08534  0.27451  Biso   1.000  C
  C98      1.0000 0.88340  0.16466  0.27451  Biso   1.000  C
  C99      1.0000 0.36660  0.16466  0.97549  Biso   1.000  C
  C100     1.0000 0.88340  0.08534  0.97549  Biso   1.000  C
  C101     1.0000 0.36660  0.58534  0.77451  Biso   1.000  C
  C102     1.0000 0.88340  0.66466  0.77451  Biso   1.000  C
  C103     1.0000 0.36660  0.66466  0.47549  Biso   1.000  C
  C104     1.0000 0.88340  0.58534  0.47549  Biso   1.000  C
  C105     1.0000 0.86660  0.08534  0.77451  Biso   1.000  C
  C106     1.0000 0.38340  0.16466  0.77451  Biso   1.000  C
  C107     1.0000 0.86660  0.16466  0.47549  Biso   1.000  C
  C108     1.0000 0.38340  0.08534  0.47549  Biso   1.000  C
  C109     1.0000 0.86660  0.58534  0.27451  Biso   1.000  C
  C110     1.0000 0.38340  0.66466  0.27451  Biso   1.000  C
  C111     1.0000 0.86660  0.66466  0.97549  Biso   1.000  C
  C112     1.0000 0.38340  0.58534  0.97549  Biso   1.000  C
  C113     1.0000 0.63340  0.91466  0.72549  Biso   1.000  C
  C114     1.0000 0.61660  0.33534  0.72549  Biso   1.000  C
  C115     1.0000 0.63340  0.33534  0.52451  Biso   1.000  C
  C116     1.0000 0.61660  0.91466  0.52451  Biso   1.000  C
  C117     1.0000 0.63340  0.41466  0.22549  Biso   1.000  C
  C118     1.0000 0.61660  0.83534  0.22549  Biso   1.000  C
  C119     1.0000 0.63340  0.83534  0.02451  Biso   1.000  C
  C120     1.0000 0.61660  0.41466  0.02451  Biso   1.000  C
  C121     1.0000 0.13340  0.91466  0.22549  Biso   1.000  C
  C122     1.0000 0.11660  0.33534  0.22549  Biso   1.000  C
  C123     1.0000 0.13340  0.33534  0.02451  Biso   1.000  C
  C124     1.0000 0.11660  0.91466  0.02451  Biso   1.000  C
  C125     1.0000 0.13340  0.41466  0.72549  Biso   1.000  C
  C126     1.0000 0.11660  0.83534  0.72549  Biso   1.000  C
  C127     1.0000 0.13340  0.83534  0.52451  Biso   1.000  C
  C128     1.0000 0.11660  0.41466  0.52451  Biso   1.000  C
  H65      1.0000 0.33180  0.08850  0.29180  Biso   1.000  H
  H66      1.0000 0.91820  0.16150  0.29180  Biso   1.000  H
  H67      1.0000 0.33180  0.16150  0.95820  Biso   1.000  H
  H68      1.0000 0.91820  0.08850  0.95820  Biso   1.000  H
  H69      1.0000 0.33180  0.58850  0.79180  Biso   1.000  H
  H70      1.0000 0.91820  0.66150  0.79180  Biso   1.000  H
  H71      1.0000 0.33180  0.66150  0.45820  Biso   1.000  H
  H72      1.0000 0.91820  0.58850  0.45820  Biso   1.000  H
  H73      1.0000 0.83180  0.08850  0.79180  Biso   1.000  H
  H74      1.0000 0.41820  0.16150  0.79180  Biso   1.000  H
  H75      1.0000 0.83180  0.16150  0.45820  Biso   1.000  H
  H76      1.0000 0.41820  0.08850  0.45820  Biso   1.000  H
  H77      1.0000 0.83180  0.58850  0.29180  Biso   1.000  H
  H78      1.0000 0.41820  0.66150  0.29180  Biso   1.000  H
  H79      1.0000 0.83180  0.66150  0.95820  Biso   1.000  H
  H80      1.0000 0.41820  0.58850  0.95820  Biso   1.000  H
  H81      1.0000 0.66820  0.91150  0.70820  Biso   1.000  H
  H82      1.0000 0.58180  0.33850  0.70820  Biso   1.000  H
  H83      1.0000 0.66820  0.33850  0.54180  Biso   1.000  H
  H84      1.0000 0.58180  0.91150  0.54180  Biso   1.000  H
  H85      1.0000 0.66820  0.41150  0.20820  Biso   1.000  H
  H86      1.0000 0.58180  0.83850  0.20820  Biso   1.000  H
  H87      1.0000 0.66820  0.83850  0.04180  Biso   1.000  H
  H88      1.0000 0.58180  0.41150  0.04180  Biso   1.000  H
  H89      1.0000 0.16820  0.91150  0.20820  Biso   1.000  H
  H90      1.0000 0.08180  0.33850  0.20820  Biso   1.000  H
  H91      1.0000 0.16820  0.33850  0.04180  Biso   1.000  H
  H92      1.0000 0.08180  0.91150  0.04180  Biso   1.000  H
  H93      1.0000 0.16820  0.41150  0.70820  Biso   1.000  H
  H94      1.0000 0.08180  0.83850  0.70820  Biso   1.000  H
  H95      1.0000 0.16820  0.83850  0.54180  Biso   1.000  H
  H96      1.0000 0.08180  0.41150  0.54180  Biso   1.000  H
  C129     1.0000 0.39880  0.05517  0.26855  Biso   1.000  C
  C130     1.0000 0.85120  0.19483  0.26855  Biso   1.000  C
  C131     1.0000 0.39880  0.19483  0.98145  Biso   1.000  C
  C132     1.0000 0.85120  0.05517  0.98145  Biso   1.000  C
  C133     1.0000 0.39880  0.55517  0.76855  Biso   1.000  C
  C134     1.0000 0.85120  0.69483  0.76855  Biso   1.000  C
  C135     1.0000 0.39880  0.69483  0.48145  Biso   1.000  C
  C136     1.0000 0.85120  0.55517  0.48145  Biso   1.000  C
  C137     1.0000 0.89880  0.05517  0.76855  Biso   1.000  C
  C138     1.0000 0.35120  0.19483  0.76855  Biso   1.000  C
  C139     1.0000 0.89880  0.19483  0.48145  Biso   1.000  C
  C140     1.0000 0.35120  0.05517  0.48145  Biso   1.000  C
  C141     1.0000 0.89880  0.55517  0.26855  Biso   1.000  C
  C142     1.0000 0.35120  0.69483  0.26855  Biso   1.000  C
  C143     1.0000 0.89880  0.69483  0.98145  Biso   1.000  C
  C144     1.0000 0.35120  0.55517  0.98145  Biso   1.000  C
  C145     1.0000 0.60120  0.94483  0.73145  Biso   1.000  C
  C146     1.0000 0.64880  0.30517  0.73145  Biso   1.000  C
  C147     1.0000 0.60120  0.30517  0.51855  Biso   1.000  C
  C148     1.0000 0.64880  0.94483  0.51855  Biso   1.000  C
  C149     1.0000 0.60120  0.44483  0.23145  Biso   1.000  C
  C150     1.0000 0.64880  0.80517  0.23145  Biso   1.000  C
  C151     1.0000 0.60120  0.80517  0.01855  Biso   1.000  C
  C152     1.0000 0.64880  0.44483  0.01855  Biso   1.000  C
  C153     1.0000 0.10120  0.94483  0.23145  Biso   1.000  C
  C154     1.0000 0.14880  0.30517  0.23145  Biso   1.000  C
  C155     1.0000 0.10120  0.30517  0.01855  Biso   1.000  C
  C156     1.0000 0.14880  0.94483  0.01855  Biso   1.000  C
  C157     1.0000 0.10120  0.44483  0.73145  Biso   1.000  C
  C158     1.0000 0.14880  0.80517  0.73145  Biso   1.000  C
  C159     1.0000 0.10120  0.80517  0.51855  Biso   1.000  C
  C160     1.0000 0.14880  0.44483  0.51855  Biso   1.000  C
  H97      1.0000 0.38600  0.03820  0.28240  Biso   1.000  H
  H98      1.0000 0.86400  0.21180  0.28240  Biso   1.000  H
  H99      1.0000 0.38600  0.21180  0.96760  Biso   1.000  H
  H100     1.0000 0.86400  0.03820  0.96760  Biso   1.000  H
  H101     1.0000 0.38600  0.53820  0.78240  Biso   1.000  H
  H102     1.0000 0.86400  0.71180  0.78240  Biso   1.000  H
  H103     1.0000 0.38600  0.71180  0.46760  Biso   1.000  H
  H104     1.0000 0.86400  0.53820  0.46760  Biso   1.000  H
  H105     1.0000 0.88600  0.03820  0.78240  Biso   1.000  H
  H106     1.0000 0.36400  0.21180  0.78240  Biso   1.000  H
  H107     1.0000 0.88600  0.21180  0.46760  Biso   1.000  H
  H108     1.0000 0.36400  0.03820  0.46760  Biso   1.000  H
  H109     1.0000 0.88600  0.53820  0.28240  Biso   1.000  H
  H110     1.0000 0.36400  0.71180  0.28240  Biso   1.000  H
  H111     1.0000 0.88600  0.71180  0.96760  Biso   1.000  H
  H112     1.0000 0.36400  0.53820  0.96760  Biso   1.000  H
  H113     1.0000 0.61400  0.96180  0.71760  Biso   1.000  H
  H114     1.0000 0.63600  0.28820  0.71760  Biso   1.000  H
  H115     1.0000 0.61400  0.28820  0.53240  Biso   1.000  H
  H116     1.0000 0.63600  0.96180  0.53240  Biso   1.000  H
  H117     1.0000 0.61400  0.46180  0.21760  Biso   1.000  H
  H118     1.0000 0.63600  0.78820  0.21760  Biso   1.000  H
  H119     1.0000 0.61400  0.78820  0.03240  Biso   1.000  H
  H120     1.0000 0.63600  0.46180  0.03240  Biso   1.000  H
  H121     1.0000 0.11400  0.96180  0.21760  Biso   1.000  H
  H122     1.0000 0.13600  0.28820  0.21760  Biso   1.000  H
  H123     1.0000 0.11400  0.28820  0.03240  Biso   1.000  H
  H124     1.0000 0.13600  0.96180  0.03240  Biso   1.000  H
  H125     1.0000 0.11400  0.46180  0.71760  Biso   1.000  H
  H126     1.0000 0.13600  0.78820  0.71760  Biso   1.000  H
  H127     1.0000 0.11400  0.78820  0.53240  Biso   1.000  H
  H128     1.0000 0.13600  0.46180  0.53240  Biso   1.000  H
  N33      1.0000 0.29620  0.20433  0.26815  Biso   1.000  N
  N34      1.0000 0.95380  0.04567  0.26815  Biso   1.000  N
  N35      1.0000 0.29620  0.04567  0.98185  Biso   1.000  N
  N36      1.0000 0.95380  0.20433  0.98185  Biso   1.000  N
  N37      1.0000 0.29620  0.70433  0.76815  Biso   1.000  N
  N38      1.0000 0.95380  0.54567  0.76815  Biso   1.000  N
  N39      1.0000 0.29620  0.54567  0.48185  Biso   1.000  N
  N40      1.0000 0.95380  0.70433  0.48185  Biso   1.000  N
  N41      1.0000 0.79620  0.20433  0.76815  Biso   1.000  N
  N42      1.0000 0.45380  0.04567  0.76815  Biso   1.000  N
  N43      1.0000 0.79620  0.04567  0.48185  Biso   1.000  N
  N44      1.0000 0.45380  0.20433  0.48185  Biso   1.000  N
  N45      1.0000 0.79620  0.70433  0.26815  Biso   1.000  N
  N46      1.0000 0.45380  0.54567  0.26815  Biso   1.000  N
  N47      1.0000 0.79620  0.54567  0.98185  Biso   1.000  N
  N48      1.0000 0.45380  0.70433  0.98185  Biso   1.000  N
  N49      1.0000 0.70380  0.79567  0.73185  Biso   1.000  N
  N50      1.0000 0.54620  0.45433  0.73185  Biso   1.000  N
  N51      1.0000 0.70380  0.45433  0.51815  Biso   1.000  N
  N52      1.0000 0.54620  0.79567  0.51815  Biso   1.000  N
  N53      1.0000 0.70380  0.29567  0.23185  Biso   1.000  N
  N54      1.0000 0.54620  0.95433  0.23185  Biso   1.000  N
  N55      1.0000 0.70380  0.95433  0.01815  Biso   1.000  N
  N56      1.0000 0.54620  0.29567  0.01815  Biso   1.000  N
  N57      1.0000 0.20380  0.79567  0.23185  Biso   1.000  N
  N58      1.0000 0.04620  0.45433  0.23185  Biso   1.000  N
  N59      1.0000 0.20380  0.45433  0.01815  Biso   1.000  N
  N60      1.0000 0.04620  0.79567  0.01815  Biso   1.000  N
  N61      1.0000 0.20380  0.29567  0.73185  Biso   1.000  N
  N62      1.0000 0.04620  0.95433  0.73185  Biso   1.000  N
  N63      1.0000 0.20380  0.95433  0.51815  Biso   1.000  N
  N64      1.0000 0.04620  0.29567  0.51815  Biso   1.000  N
  C161     1.0000 0.25210  0.17810  0.27512  Biso   1.000  C
  C162     1.0000 0.99790  0.07190  0.27512  Biso   1.000  C
  C163     1.0000 0.25210  0.07190  0.97488  Biso   1.000  C
  C164     1.0000 0.99790  0.17810  0.97488  Biso   1.000  C
  C165     1.0000 0.25210  0.67810  0.77512  Biso   1.000  C
  C166     1.0000 0.99790  0.57190  0.77512  Biso   1.000  C
  C167     1.0000 0.25210  0.57190  0.47488  Biso   1.000  C
  C168     1.0000 0.99790  0.67810  0.47488  Biso   1.000  C
  C169     1.0000 0.75210  0.17810  0.77512  Biso   1.000  C
  C170     1.0000 0.49790  0.07190  0.77512  Biso   1.000  C
  C171     1.0000 0.75210  0.07190  0.47488  Biso   1.000  C
  C172     1.0000 0.49790  0.17810  0.47488  Biso   1.000  C
  C173     1.0000 0.75210  0.67810  0.27512  Biso   1.000  C
  C174     1.0000 0.49790  0.57190  0.27512  Biso   1.000  C
  C175     1.0000 0.75210  0.57190  0.97488  Biso   1.000  C
  C176     1.0000 0.49790  0.67810  0.97488  Biso   1.000  C
  C177     1.0000 0.74790  0.82190  0.72488  Biso   1.000  C
  C178     1.0000 0.50210  0.42810  0.72488  Biso   1.000  C
  C179     1.0000 0.74790  0.42810  0.52512  Biso   1.000  C
  C180     1.0000 0.50210  0.82190  0.52512  Biso   1.000  C
  C181     1.0000 0.74790  0.32190  0.22488  Biso   1.000  C
  C182     1.0000 0.50210  0.92810  0.22488  Biso   1.000  C
  C183     1.0000 0.74790  0.92810  0.02512  Biso   1.000  C
  C184     1.0000 0.50210  0.32190  0.02512  Biso   1.000  C
  C185     1.0000 0.24790  0.82190  0.22488  Biso   1.000  C
  C186     1.0000 0.00210  0.42810  0.22488  Biso   1.000  C
  C187     1.0000 0.24790  0.42810  0.02512  Biso   1.000  C
  C188     1.0000 0.00210  0.82190  0.02512  Biso   1.000  C
  C189     1.0000 0.24790  0.32190  0.72488  Biso   1.000  C
  C190     1.0000 0.00210  0.92810  0.72488  Biso   1.000  C
  C191     1.0000 0.24790  0.92810  0.52512  Biso   1.000  C
  C192     1.0000 0.00210  0.32190  0.52512  Biso   1.000  C
  H129     1.0000 0.20020  0.18120  0.28280  Biso   1.000  H
  H130     1.0000 0.04980  0.06880  0.28280  Biso   1.000  H
  H131     1.0000 0.20020  0.06880  0.96720  Biso   1.000  H
  H132     1.0000 0.04980  0.18120  0.96720  Biso   1.000  H
  H133     1.0000 0.20020  0.68120  0.78280  Biso   1.000  H
  H134     1.0000 0.04980  0.56880  0.78280  Biso   1.000  H
  H135     1.0000 0.20020  0.56880  0.46720  Biso   1.000  H
  H136     1.0000 0.04980  0.68120  0.46720  Biso   1.000  H
  H137     1.0000 0.70020  0.18120  0.78280  Biso   1.000  H
  H138     1.0000 0.54980  0.06880  0.78280  Biso   1.000  H
  H139     1.0000 0.70020  0.06880  0.46720  Biso   1.000  H
  H140     1.0000 0.54980  0.18120  0.46720  Biso   1.000  H
  H141     1.0000 0.70020  0.68120  0.28280  Biso   1.000  H
  H142     1.0000 0.54980  0.56880  0.28280  Biso   1.000  H
  H143     1.0000 0.70020  0.56880  0.96720  Biso   1.000  H
  H144     1.0000 0.54980  0.68120  0.96720  Biso   1.000  H
  H145     1.0000 0.79980  0.81880  0.71720  Biso   1.000  H
  H146     1.0000 0.45020  0.43120  0.71720  Biso   1.000  H
  H147     1.0000 0.79980  0.43120  0.53280  Biso   1.000  H
  H148     1.0000 0.45020  0.81880  0.53280  Biso   1.000  H
  H149     1.0000 0.79980  0.31880  0.21720  Biso   1.000  H
  H150     1.0000 0.45020  0.93120  0.21720  Biso   1.000  H
  H151     1.0000 0.79980  0.93120  0.03280  Biso   1.000  H
  H152     1.0000 0.45020  0.31880  0.03280  Biso   1.000  H
  H153     1.0000 0.29980  0.81880  0.21720  Biso   1.000  H
  H154     1.0000 0.95020  0.43120  0.21720  Biso   1.000  H
  H155     1.0000 0.29980  0.43120  0.03280  Biso   1.000  H
  H156     1.0000 0.95020  0.81880  0.03280  Biso   1.000  H
  H157     1.0000 0.29980  0.31880  0.71720  Biso   1.000  H
  H158     1.0000 0.95020  0.93120  0.71720  Biso   1.000  H
  H159     1.0000 0.29980  0.93120  0.53280  Biso   1.000  H
  H160     1.0000 0.95020  0.31880  0.53280  Biso   1.000  H
  C193     1.0000 0.27870  0.14770  0.27159  Biso   1.000  C
  C194     1.0000 0.97130  0.10230  0.27159  Biso   1.000  C
  C195     1.0000 0.27870  0.10230  0.97841  Biso   1.000  C
  C196     1.0000 0.97130  0.14770  0.97841  Biso   1.000  C
  C197     1.0000 0.27870  0.64770  0.77159  Biso   1.000  C
  C198     1.0000 0.97130  0.60230  0.77159  Biso   1.000  C
  C199     1.0000 0.27870  0.60230  0.47841  Biso   1.000  C
  C200     1.0000 0.97130  0.64770  0.47841  Biso   1.000  C
  C201     1.0000 0.77870  0.14770  0.77159  Biso   1.000  C
  C202     1.0000 0.47130  0.10230  0.77159  Biso   1.000  C
  C203     1.0000 0.77870  0.10230  0.47841  Biso   1.000  C
  C204     1.0000 0.47130  0.14770  0.47841  Biso   1.000  C
  C205     1.0000 0.77870  0.64770  0.27159  Biso   1.000  C
  C206     1.0000 0.47130  0.60230  0.27159  Biso   1.000  C
  C207     1.0000 0.77870  0.60230  0.97841  Biso   1.000  C
  C208     1.0000 0.47130  0.64770  0.97841  Biso   1.000  C
  C209     1.0000 0.72130  0.85230  0.72841  Biso   1.000  C
  C210     1.0000 0.52870  0.39770  0.72841  Biso   1.000  C
  C211     1.0000 0.72130  0.39770  0.52159  Biso   1.000  C
  C212     1.0000 0.52870  0.85230  0.52159  Biso   1.000  C
  C213     1.0000 0.72130  0.35230  0.22841  Biso   1.000  C
  C214     1.0000 0.52870  0.89770  0.22841  Biso   1.000  C
  C215     1.0000 0.72130  0.89770  0.02159  Biso   1.000  C
  C216     1.0000 0.52870  0.35230  0.02159  Biso   1.000  C
  C217     1.0000 0.22130  0.85230  0.22841  Biso   1.000  C
  C218     1.0000 0.02870  0.39770  0.22841  Biso   1.000  C
  C219     1.0000 0.22130  0.39770  0.02159  Biso   1.000  C
  C220     1.0000 0.02870  0.85230  0.02159  Biso   1.000  C
  C221     1.0000 0.22130  0.35230  0.72841  Biso   1.000  C
  C222     1.0000 0.02870  0.89770  0.72841  Biso   1.000  C
  C223     1.0000 0.22130  0.89770  0.52159  Biso   1.000  C
  C224     1.0000 0.02870  0.35230  0.52159  Biso   1.000  C
  H161     1.0000 0.24560  0.13020  0.27650  Biso   1.000  H
  H162     1.0000 0.00440  0.11980  0.27650  Biso   1.000  H
  H163     1.0000 0.24560  0.11980  0.97350  Biso   1.000  H
  H164     1.0000 0.00440  0.13020  0.97350  Biso   1.000  H
  H165     1.0000 0.24560  0.63020  0.77650  Biso   1.000  H
  H166     1.0000 0.00440  0.61980  0.77650  Biso   1.000  H
  H167     1.0000 0.24560  0.61980  0.47350  Biso   1.000  H
  H168     1.0000 0.00440  0.63020  0.47350  Biso   1.000  H
  H169     1.0000 0.74560  0.13020  0.77650  Biso   1.000  H
  H170     1.0000 0.50440  0.11980  0.77650  Biso   1.000  H
  H171     1.0000 0.74560  0.11980  0.47350  Biso   1.000  H
  H172     1.0000 0.50440  0.13020  0.47350  Biso   1.000  H
  H173     1.0000 0.74560  0.63020  0.27650  Biso   1.000  H
  H174     1.0000 0.50440  0.61980  0.27650  Biso   1.000  H
  H175     1.0000 0.74560  0.61980  0.97350  Biso   1.000  H
  H176     1.0000 0.50440  0.63020  0.97350  Biso   1.000  H
  H177     1.0000 0.75440  0.86980  0.72350  Biso   1.000  H
  H178     1.0000 0.49560  0.38020  0.72350  Biso   1.000  H
  H179     1.0000 0.75440  0.38020  0.52650  Biso   1.000  H
  H180     1.0000 0.49560  0.86980  0.52650  Biso   1.000  H
  H181     1.0000 0.75440  0.36980  0.22350  Biso   1.000  H
  H182     1.0000 0.49560  0.88020  0.22350  Biso   1.000  H
  H183     1.0000 0.75440  0.88020  0.02650  Biso   1.000  H
  H184     1.0000 0.49560  0.36980  0.02650  Biso   1.000  H
  H185     1.0000 0.25440  0.86980  0.22350  Biso   1.000  H
  H186     1.0000 0.99560  0.38020  0.22350  Biso   1.000  H
  H187     1.0000 0.25440  0.38020  0.02650  Biso   1.000  H
  H188     1.0000 0.99560  0.86980  0.02650  Biso   1.000  H
  H189     1.0000 0.25440  0.36980  0.72350  Biso   1.000  H
  H190     1.0000 0.99560  0.88020  0.72350  Biso   1.000  H
  H191     1.0000 0.25440  0.88020  0.52650  Biso   1.000  H
  H192     1.0000 0.99560  0.36980  0.52650  Biso   1.000  H
  C225     1.0000 0.35560  0.14260  0.26054  Biso   1.000  C
  C226     1.0000 0.89440  0.10740  0.26054  Biso   1.000  C
  C227     1.0000 0.35560  0.10740  0.98946  Biso   1.000  C
  C228     1.0000 0.89440  0.14260  0.98946  Biso   1.000  C
  C229     1.0000 0.35560  0.64260  0.76054  Biso   1.000  C
  C230     1.0000 0.89440  0.60740  0.76054  Biso   1.000  C
  C231     1.0000 0.35560  0.60740  0.48946  Biso   1.000  C
  C232     1.0000 0.89440  0.64260  0.48946  Biso   1.000  C
  C233     1.0000 0.85560  0.14260  0.76054  Biso   1.000  C
  C234     1.0000 0.39440  0.10740  0.76054  Biso   1.000  C
  C235     1.0000 0.85560  0.10740  0.48946  Biso   1.000  C
  C236     1.0000 0.39440  0.14260  0.48946  Biso   1.000  C
  C237     1.0000 0.85560  0.64260  0.26054  Biso   1.000  C
  C238     1.0000 0.39440  0.60740  0.26054  Biso   1.000  C
  C239     1.0000 0.85560  0.60740  0.98946  Biso   1.000  C
  C240     1.0000 0.39440  0.64260  0.98946  Biso   1.000  C
  C241     1.0000 0.64440  0.85740  0.73946  Biso   1.000  C
  C242     1.0000 0.60560  0.39260  0.73946  Biso   1.000  C
  C243     1.0000 0.64440  0.39260  0.51054  Biso   1.000  C
  C244     1.0000 0.60560  0.85740  0.51054  Biso   1.000  C
  C245     1.0000 0.64440  0.35740  0.23946  Biso   1.000  C
  C246     1.0000 0.60560  0.89260  0.23946  Biso   1.000  C
  C247     1.0000 0.64440  0.89260  0.01054  Biso   1.000  C
  C248     1.0000 0.60560  0.35740  0.01054  Biso   1.000  C
  C249     1.0000 0.14440  0.85740  0.23946  Biso   1.000  C
  C250     1.0000 0.10560  0.39260  0.23946  Biso   1.000  C
  C251     1.0000 0.14440  0.39260  0.01054  Biso   1.000  C
  C252     1.0000 0.10560  0.85740  0.01054  Biso   1.000  C
  C253     1.0000 0.14440  0.35740  0.73946  Biso   1.000  C
  C254     1.0000 0.10560  0.89260  0.73946  Biso   1.000  C
  C255     1.0000 0.14440  0.89260  0.51054  Biso   1.000  C
  C256     1.0000 0.10560  0.35740  0.51054  Biso   1.000  C
  C257     1.0000 0.40130  0.16937  0.25451  Biso   1.000  C
  C258     1.0000 0.84870  0.08063  0.25451  Biso   1.000  C
  C259     1.0000 0.40130  0.08063  0.99549  Biso   1.000  C
  C260     1.0000 0.84870  0.16937  0.99549  Biso   1.000  C
  C261     1.0000 0.40130  0.66937  0.75451  Biso   1.000  C
  C262     1.0000 0.84870  0.58063  0.75451  Biso   1.000  C
  C263     1.0000 0.40130  0.58063  0.49549  Biso   1.000  C
  C264     1.0000 0.84870  0.66937  0.49549  Biso   1.000  C
  C265     1.0000 0.90130  0.16937  0.75451  Biso   1.000  C
  C266     1.0000 0.34870  0.08063  0.75451  Biso   1.000  C
  C267     1.0000 0.90130  0.08063  0.49549  Biso   1.000  C
  C268     1.0000 0.34870  0.16937  0.49549  Biso   1.000  C
  C269     1.0000 0.90130  0.66937  0.25451  Biso   1.000  C
  C270     1.0000 0.34870  0.58063  0.25451  Biso   1.000  C
  C271     1.0000 0.90130  0.58063  0.99549  Biso   1.000  C
  C272     1.0000 0.34870  0.66937  0.99549  Biso   1.000  C
  C273     1.0000 0.59870  0.83063  0.74549  Biso   1.000  C
  C274     1.0000 0.65130  0.41937  0.74549  Biso   1.000  C
  C275     1.0000 0.59870  0.41937  0.50451  Biso   1.000  C
  C276     1.0000 0.65130  0.83063  0.50451  Biso   1.000  C
  C277     1.0000 0.59870  0.33063  0.24549  Biso   1.000  C
  C278     1.0000 0.65130  0.91937  0.24549  Biso   1.000  C
  C279     1.0000 0.59870  0.91937  0.00451  Biso   1.000  C
  C280     1.0000 0.65130  0.33063  0.00451  Biso   1.000  C
  C281     1.0000 0.09870  0.83063  0.24549  Biso   1.000  C
  C282     1.0000 0.15130  0.41937  0.24549  Biso   1.000  C
  C283     1.0000 0.09870  0.41937  0.00451  Biso   1.000  C
  C284     1.0000 0.15130  0.83063  0.00451  Biso   1.000  C
  C285     1.0000 0.09870  0.33063  0.74549  Biso   1.000  C
  C286     1.0000 0.15130  0.91937  0.74549  Biso   1.000  C
  C287     1.0000 0.09870  0.91937  0.50451  Biso   1.000  C
  C288     1.0000 0.15130  0.33063  0.50451  Biso   1.000  C
  H193     1.0000 0.45380  0.16710  0.24710  Biso   1.000  H
  H194     1.0000 0.79620  0.08290  0.24710  Biso   1.000  H
  H195     1.0000 0.45380  0.08290  0.00290  Biso   1.000  H
  H196     1.0000 0.79620  0.16710  0.00290  Biso   1.000  H
  H197     1.0000 0.45380  0.66710  0.74710  Biso   1.000  H
  H198     1.0000 0.79620  0.58290  0.74710  Biso   1.000  H
  H199     1.0000 0.45380  0.58290  0.50290  Biso   1.000  H
  H200     1.0000 0.79620  0.66710  0.50290  Biso   1.000  H
  H201     1.0000 0.95380  0.16710  0.74710  Biso   1.000  H
  H202     1.0000 0.29620  0.08290  0.74710  Biso   1.000  H
  H203     1.0000 0.95380  0.08290  0.50290  Biso   1.000  H
  H204     1.0000 0.29620  0.16710  0.50290  Biso   1.000  H
  H205     1.0000 0.95380  0.66710  0.24710  Biso   1.000  H
  H206     1.0000 0.29620  0.58290  0.24710  Biso   1.000  H
  H207     1.0000 0.95380  0.58290  0.00290  Biso   1.000  H
  H208     1.0000 0.29620  0.66710  0.00290  Biso   1.000  H
  H209     1.0000 0.54620  0.83290  0.75290  Biso   1.000  H
  H210     1.0000 0.70380  0.41710  0.75290  Biso   1.000  H
  H211     1.0000 0.54620  0.41710  0.49710  Biso   1.000  H
  H212     1.0000 0.70380  0.83290  0.49710  Biso   1.000  H
  H213     1.0000 0.54620  0.33290  0.25290  Biso   1.000  H
  H214     1.0000 0.70380  0.91710  0.25290  Biso   1.000  H
  H215     1.0000 0.54620  0.91710  0.99710  Biso   1.000  H
  H216     1.0000 0.70380  0.33290  0.99710  Biso   1.000  H
  H217     1.0000 0.04620  0.83290  0.25290  Biso   1.000  H
  H218     1.0000 0.20380  0.41710  0.25290  Biso   1.000  H
  H219     1.0000 0.04620  0.41710  0.99710  Biso   1.000  H
  H220     1.0000 0.20380  0.83290  0.99710  Biso   1.000  H
  H221     1.0000 0.04620  0.33290  0.75290  Biso   1.000  H
  H222     1.0000 0.20380  0.91710  0.75290  Biso   1.000  H
  H223     1.0000 0.04620  0.91710  0.49710  Biso   1.000  H
  H224     1.0000 0.20380  0.33290  0.49710  Biso   1.000  H
  C289     1.0000 0.37000  0.19921  0.25941  Biso   1.000  C
  C290     1.0000 0.88000  0.05079  0.25941  Biso   1.000  C
  C291     1.0000 0.37000  0.05079  0.99059  Biso   1.000  C
  C292     1.0000 0.88000  0.19921  0.99059  Biso   1.000  C
  C293     1.0000 0.37000  0.69921  0.75941  Biso   1.000  C
  C294     1.0000 0.88000  0.55079  0.75941  Biso   1.000  C
  C295     1.0000 0.37000  0.55079  0.49059  Biso   1.000  C
  C296     1.0000 0.88000  0.69921  0.49059  Biso   1.000  C
  C297     1.0000 0.87000  0.19921  0.75941  Biso   1.000  C
  C298     1.0000 0.38000  0.05079  0.75941  Biso   1.000  C
  C299     1.0000 0.87000  0.05079  0.49059  Biso   1.000  C
  C300     1.0000 0.38000  0.19921  0.49059  Biso   1.000  C
  C301     1.0000 0.87000  0.69921  0.25941  Biso   1.000  C
  C302     1.0000 0.38000  0.55079  0.25941  Biso   1.000  C
  C303     1.0000 0.87000  0.55079  0.99059  Biso   1.000  C
  C304     1.0000 0.38000  0.69921  0.99059  Biso   1.000  C
  C305     1.0000 0.63000  0.80079  0.74059  Biso   1.000  C
  C306     1.0000 0.62000  0.44921  0.74059  Biso   1.000  C
  C307     1.0000 0.63000  0.44921  0.50941  Biso   1.000  C
  C308     1.0000 0.62000  0.80079  0.50941  Biso   1.000  C
  C309     1.0000 0.63000  0.30079  0.24059  Biso   1.000  C
  C310     1.0000 0.62000  0.94921  0.24059  Biso   1.000  C
  C311     1.0000 0.63000  0.94921  0.00941  Biso   1.000  C
  C312     1.0000 0.62000  0.30079  0.00941  Biso   1.000  C
  C313     1.0000 0.13000  0.80079  0.24059  Biso   1.000  C
  C314     1.0000 0.12000  0.44921  0.24059  Biso   1.000  C
  C315     1.0000 0.13000  0.44921  0.00941  Biso   1.000  C
  C316     1.0000 0.12000  0.80079  0.00941  Biso   1.000  C
  C317     1.0000 0.13000  0.30079  0.74059  Biso   1.000  C
  C318     1.0000 0.12000  0.94921  0.74059  Biso   1.000  C
  C319     1.0000 0.13000  0.94921  0.50941  Biso   1.000  C
  C320     1.0000 0.12000  0.30079  0.50941  Biso   1.000  C
  H225     1.0000 0.40320  0.21710  0.25630  Biso   1.000  H
  H226     1.0000 0.84680  0.03290  0.25630  Biso   1.000  H
  H227     1.0000 0.40320  0.03290  0.99370  Biso   1.000  H
  H228     1.0000 0.84680  0.21710  0.99370  Biso   1.000  H
  H229     1.0000 0.40320  0.71710  0.75630  Biso   1.000  H
  H230     1.0000 0.84680  0.53290  0.75630  Biso   1.000  H
  H231     1.0000 0.40320  0.53290  0.49370  Biso   1.000  H
  H232     1.0000 0.84680  0.71710  0.49370  Biso   1.000  H
  H233     1.0000 0.90320  0.21710  0.75630  Biso   1.000  H
  H234     1.0000 0.34680  0.03290  0.75630  Biso   1.000  H
  H235     1.0000 0.90320  0.03290  0.49370  Biso   1.000  H
  H236     1.0000 0.34680  0.21710  0.49370  Biso   1.000  H
  H237     1.0000 0.90320  0.71710  0.25630  Biso   1.000  H
  H238     1.0000 0.34680  0.53290  0.25630  Biso   1.000  H
  H239     1.0000 0.90320  0.53290  0.99370  Biso   1.000  H
  H240     1.0000 0.34680  0.71710  0.99370  Biso   1.000  H
  H241     1.0000 0.59680  0.78290  0.74370  Biso   1.000  H
  H242     1.0000 0.65320  0.46710  0.74370  Biso   1.000  H
  H243     1.0000 0.59680  0.46710  0.50630  Biso   1.000  H
  H244     1.0000 0.65320  0.78290  0.50630  Biso   1.000  H
  H245     1.0000 0.59680  0.28290  0.24370  Biso   1.000  H
  H246     1.0000 0.65320  0.96710  0.24370  Biso   1.000  H
  H247     1.0000 0.59680  0.96710  0.00630  Biso   1.000  H
  H248     1.0000 0.65320  0.28290  0.00630  Biso   1.000  H
  H249     1.0000 0.09680  0.78290  0.24370  Biso   1.000  H
  H250     1.0000 0.15320  0.46710  0.24370  Biso   1.000  H
  H251     1.0000 0.09680  0.46710  0.00630  Biso   1.000  H
  H252     1.0000 0.15320  0.78290  0.00630  Biso   1.000  H
  H253     1.0000 0.09680  0.28290  0.74370  Biso   1.000  H
  H254     1.0000 0.15320  0.96710  0.74370  Biso   1.000  H
  H255     1.0000 0.09680  0.96710  0.50630  Biso   1.000  H
  H256     1.0000 0.15320  0.28290  0.50630  Biso   1.000  H
  N65      1.0000 0.44660  0.99922  0.18886  Biso   1.000  N
  N66      1.0000 0.80340  0.25078  0.18886  Biso   1.000  N
  N67      1.0000 0.44660  0.25078  0.06114  Biso   1.000  N
  N68      1.0000 0.80340  0.99922  0.06114  Biso   1.000  N
  N69      1.0000 0.44660  0.49922  0.68886  Biso   1.000  N
  N70      1.0000 0.80340  0.75078  0.68886  Biso   1.000  N
  N71      1.0000 0.44660  0.75078  0.56114  Biso   1.000  N
  N72      1.0000 0.80340  0.49922  0.56114  Biso   1.000  N
  N73      1.0000 0.94660  0.99922  0.68886  Biso   1.000  N
  N74      1.0000 0.30340  0.25078  0.68886  Biso   1.000  N
  N75      1.0000 0.94660  0.25078  0.56114  Biso   1.000  N
  N76      1.0000 0.30340  0.99922  0.56114  Biso   1.000  N
  N77      1.0000 0.94660  0.49922  0.18886  Biso   1.000  N
  N78      1.0000 0.30340  0.75078  0.18886  Biso   1.000  N
  N79      1.0000 0.94660  0.75078  0.06114  Biso   1.000  N
  N80      1.0000 0.30340  0.49922  0.06114  Biso   1.000  N
  N81      1.0000 0.55340  0.00078  0.81114  Biso   1.000  N
  N82      1.0000 0.69660  0.24922  0.81114  Biso   1.000  N
  N83      1.0000 0.55340  0.24922  0.43886  Biso   1.000  N
  N84      1.0000 0.69660  0.00078  0.43886  Biso   1.000  N
  N85      1.0000 0.55340  0.50078  0.31114  Biso   1.000  N
  N86      1.0000 0.69660  0.74922  0.31114  Biso   1.000  N
  N87      1.0000 0.55340  0.74922  0.93886  Biso   1.000  N
  N88      1.0000 0.69660  0.50078  0.93886  Biso   1.000  N
  N89      1.0000 0.05340  0.00078  0.31114  Biso   1.000  N
  N90      1.0000 0.19660  0.24922  0.31114  Biso   1.000  N
  N91      1.0000 0.05340  0.24922  0.93886  Biso   1.000  N
  N92      1.0000 0.19660  0.00078  0.93886  Biso   1.000  N
  N93      1.0000 0.05340  0.50078  0.81114  Biso   1.000  N
  N94      1.0000 0.19660  0.74922  0.81114  Biso   1.000  N
  N95      1.0000 0.05340  0.74922  0.43886  Biso   1.000  N
  N96      1.0000 0.19660  0.50078  0.43886  Biso   1.000  N
  C321     1.0000 0.48910  0.98780  0.16511  Biso   1.000  C
  C322     1.0000 0.76090  0.26220  0.16511  Biso   1.000  C
  C323     1.0000 0.48910  0.26220  0.08489  Biso   1.000  C
  C324     1.0000 0.76090  0.98780  0.08489  Biso   1.000  C
  C325     1.0000 0.48910  0.48780  0.66511  Biso   1.000  C
  C326     1.0000 0.76090  0.76220  0.66511  Biso   1.000  C
  C327     1.0000 0.48910  0.76220  0.58489  Biso   1.000  C
  C328     1.0000 0.76090  0.48780  0.58489  Biso   1.000  C
  C329     1.0000 0.98910  0.98780  0.66511  Biso   1.000  C
  C330     1.0000 0.26090  0.26220  0.66511  Biso   1.000  C
  C331     1.0000 0.98910  0.26220  0.58489  Biso   1.000  C
  C332     1.0000 0.26090  0.98780  0.58489  Biso   1.000  C
  C333     1.0000 0.98910  0.48780  0.16511  Biso   1.000  C
  C334     1.0000 0.26090  0.76220  0.16511  Biso   1.000  C
  C335     1.0000 0.98910  0.76220  0.08489  Biso   1.000  C
  C336     1.0000 0.26090  0.48780  0.08489  Biso   1.000  C
  C337     1.0000 0.51090  0.01220  0.83489  Biso   1.000  C
  C338     1.0000 0.73910  0.23780  0.83489  Biso   1.000  C
  C339     1.0000 0.51090  0.23780  0.41511  Biso   1.000  C
  C340     1.0000 0.73910  0.01220  0.41511  Biso   1.000  C
  C341     1.0000 0.51090  0.51220  0.33489  Biso   1.000  C
  C342     1.0000 0.73910  0.73780  0.33489  Biso   1.000  C
  C343     1.0000 0.51090  0.73780  0.91511  Biso   1.000  C
  C344     1.0000 0.73910  0.51220  0.91511  Biso   1.000  C
  C345     1.0000 0.01090  0.01220  0.33489  Biso   1.000  C
  C346     1.0000 0.23910  0.23780  0.33489  Biso   1.000  C
  C347     1.0000 0.01090  0.23780  0.91511  Biso   1.000  C
  C348     1.0000 0.23910  0.01220  0.91511  Biso   1.000  C
  C349     1.0000 0.01090  0.51220  0.83489  Biso   1.000  C
  C350     1.0000 0.23910  0.73780  0.83489  Biso   1.000  C
  C351     1.0000 0.01090  0.73780  0.41511  Biso   1.000  C
  C352     1.0000 0.23910  0.51220  0.41511  Biso   1.000  C
  H257     1.0000 0.54040  0.98010  0.16960  Biso   1.000  H
  H258     1.0000 0.70960  0.26990  0.16960  Biso   1.000  H
  H259     1.0000 0.54040  0.26990  0.08040  Biso   1.000  H
  H260     1.0000 0.70960  0.98010  0.08040  Biso   1.000  H
  H261     1.0000 0.54040  0.48010  0.66960  Biso   1.000  H
  H262     1.0000 0.70960  0.76990  0.66960  Biso   1.000  H
  H263     1.0000 0.54040  0.76990  0.58040  Biso   1.000  H
  H264     1.0000 0.70960  0.48010  0.58040  Biso   1.000  H
  H265     1.0000 0.04040  0.98010  0.66960  Biso   1.000  H
  H266     1.0000 0.20960  0.26990  0.66960  Biso   1.000  H
  H267     1.0000 0.04040  0.26990  0.58040  Biso   1.000  H
  H268     1.0000 0.20960  0.98010  0.58040  Biso   1.000  H
  H269     1.0000 0.04040  0.48010  0.16960  Biso   1.000  H
  H270     1.0000 0.20960  0.76990  0.16960  Biso   1.000  H
  H271     1.0000 0.04040  0.76990  0.08040  Biso   1.000  H
  H272     1.0000 0.20960  0.48010  0.08040  Biso   1.000  H
  H273     1.0000 0.45960  0.01990  0.83040  Biso   1.000  H
  H274     1.0000 0.79040  0.23010  0.83040  Biso   1.000  H
  H275     1.0000 0.45960  0.23010  0.41960  Biso   1.000  H
  H276     1.0000 0.79040  0.01990  0.41960  Biso   1.000  H
  H277     1.0000 0.45960  0.51990  0.33040  Biso   1.000  H
  H278     1.0000 0.79040  0.73010  0.33040  Biso   1.000  H
  H279     1.0000 0.45960  0.73010  0.91960  Biso   1.000  H
  H280     1.0000 0.79040  0.51990  0.91960  Biso   1.000  H
  H281     1.0000 0.95960  0.01990  0.33040  Biso   1.000  H
  H282     1.0000 0.29040  0.23010  0.33040  Biso   1.000  H
  H283     1.0000 0.95960  0.23010  0.91960  Biso   1.000  H
  H284     1.0000 0.29040  0.01990  0.91960  Biso   1.000  H
  H285     1.0000 0.95960  0.51990  0.83040  Biso   1.000  H
  H286     1.0000 0.29040  0.73010  0.83040  Biso   1.000  H
  H287     1.0000 0.95960  0.73010  0.41960  Biso   1.000  H
  H288     1.0000 0.29040  0.51990  0.41960  Biso   1.000  H
  C353     1.0000 0.46330  0.98645  0.13407  Biso   1.000  C
  C354     1.0000 0.78670  0.26355  0.13407  Biso   1.000  C
  C355     1.0000 0.46330  0.26355  0.11593  Biso   1.000  C
  C356     1.0000 0.78670  0.98645  0.11593  Biso   1.000  C
  C357     1.0000 0.46330  0.48645  0.63407  Biso   1.000  C
  C358     1.0000 0.78670  0.76355  0.63407  Biso   1.000  C
  C359     1.0000 0.46330  0.76355  0.61593  Biso   1.000  C
  C360     1.0000 0.78670  0.48645  0.61593  Biso   1.000  C
  C361     1.0000 0.96330  0.98645  0.63407  Biso   1.000  C
  C362     1.0000 0.28670  0.26355  0.63407  Biso   1.000  C
  C363     1.0000 0.96330  0.26355  0.61593  Biso   1.000  C
  C364     1.0000 0.28670  0.98645  0.61593  Biso   1.000  C
  C365     1.0000 0.96330  0.48645  0.13407  Biso   1.000  C
  C366     1.0000 0.28670  0.76355  0.13407  Biso   1.000  C
  C367     1.0000 0.96330  0.76355  0.11593  Biso   1.000  C
  C368     1.0000 0.28670  0.48645  0.11593  Biso   1.000  C
  C369     1.0000 0.53670  0.01355  0.86593  Biso   1.000  C
  C370     1.0000 0.71330  0.23645  0.86593  Biso   1.000  C
  C371     1.0000 0.53670  0.23645  0.38407  Biso   1.000  C
  C372     1.0000 0.71330  0.01355  0.38407  Biso   1.000  C
  C373     1.0000 0.53670  0.51355  0.36593  Biso   1.000  C
  C374     1.0000 0.71330  0.73645  0.36593  Biso   1.000  C
  C375     1.0000 0.53670  0.73645  0.88407  Biso   1.000  C
  C376     1.0000 0.71330  0.51355  0.88407  Biso   1.000  C
  C377     1.0000 0.03670  0.01355  0.36593  Biso   1.000  C
  C378     1.0000 0.21330  0.23645  0.36593  Biso   1.000  C
  C379     1.0000 0.03670  0.23645  0.88407  Biso   1.000  C
  C380     1.0000 0.21330  0.01355  0.88407  Biso   1.000  C
  C381     1.0000 0.03670  0.51355  0.86593  Biso   1.000  C
  C382     1.0000 0.21330  0.73645  0.86593  Biso   1.000  C
  C383     1.0000 0.03670  0.73645  0.38407  Biso   1.000  C
  C384     1.0000 0.21330  0.51355  0.38407  Biso   1.000  C
  H289     1.0000 0.49530  0.97740  0.11810  Biso   1.000  H
  H290     1.0000 0.75470  0.27260  0.11810  Biso   1.000  H
  H291     1.0000 0.49530  0.27260  0.13190  Biso   1.000  H
  H292     1.0000 0.75470  0.97740  0.13190  Biso   1.000  H
  H293     1.0000 0.49530  0.47740  0.61810  Biso   1.000  H
  H294     1.0000 0.75470  0.77260  0.61810  Biso   1.000  H
  H295     1.0000 0.49530  0.77260  0.63190  Biso   1.000  H
  H296     1.0000 0.75470  0.47740  0.63190  Biso   1.000  H
  H297     1.0000 0.99530  0.97740  0.61810  Biso   1.000  H
  H298     1.0000 0.25470  0.27260  0.61810  Biso   1.000  H
  H299     1.0000 0.99530  0.27260  0.63190  Biso   1.000  H
  H300     1.0000 0.25470  0.97740  0.63190  Biso   1.000  H
  H301     1.0000 0.99530  0.47740  0.11810  Biso   1.000  H
  H302     1.0000 0.25470  0.77260  0.11810  Biso   1.000  H
  H303     1.0000 0.99530  0.77260  0.13190  Biso   1.000  H
  H304     1.0000 0.25470  0.47740  0.13190  Biso   1.000  H
  H305     1.0000 0.50470  0.02260  0.88190  Biso   1.000  H
  H306     1.0000 0.74530  0.22740  0.88190  Biso   1.000  H
  H307     1.0000 0.50470  0.22740  0.36810  Biso   1.000  H
  H308     1.0000 0.74530  0.02260  0.36810  Biso   1.000  H
  H309     1.0000 0.50470  0.52260  0.38190  Biso   1.000  H
  H310     1.0000 0.74530  0.72740  0.38190  Biso   1.000  H
  H311     1.0000 0.50470  0.72740  0.86810  Biso   1.000  H
  H312     1.0000 0.74530  0.52260  0.86810  Biso   1.000  H
  H313     1.0000 0.00470  0.02260  0.38190  Biso   1.000  H
  H314     1.0000 0.24530  0.22740  0.38190  Biso   1.000  H
  H315     1.0000 0.00470  0.22740  0.86810  Biso   1.000  H
  H316     1.0000 0.24530  0.02260  0.86810  Biso   1.000  H
  H317     1.0000 0.00470  0.52260  0.88190  Biso   1.000  H
  H318     1.0000 0.24530  0.72740  0.88190  Biso   1.000  H
  H319     1.0000 0.00470  0.72740  0.36810  Biso   1.000  H
  H320     1.0000 0.24530  0.52260  0.36810  Biso   1.000  H
  C385     1.0000 0.38780  0.99900  0.12682  Biso   1.000  C
  C386     1.0000 0.86220  0.25100  0.12682  Biso   1.000  C
  C387     1.0000 0.38780  0.25100  0.12318  Biso   1.000  C
  C388     1.0000 0.86220  0.99900  0.12318  Biso   1.000  C
  C389     1.0000 0.38780  0.49900  0.62682  Biso   1.000  C
  C390     1.0000 0.86220  0.75100  0.62682  Biso   1.000  C
  C391     1.0000 0.38780  0.75100  0.62318  Biso   1.000  C
  C392     1.0000 0.86220  0.49900  0.62318  Biso   1.000  C
  C393     1.0000 0.88780  0.99900  0.62682  Biso   1.000  C
  C394     1.0000 0.36220  0.25100  0.62682  Biso   1.000  C
  C395     1.0000 0.88780  0.25100  0.62318  Biso   1.000  C
  C396     1.0000 0.36220  0.99900  0.62318  Biso   1.000  C
  C397     1.0000 0.88780  0.49900  0.12682  Biso   1.000  C
  C398     1.0000 0.36220  0.75100  0.12682  Biso   1.000  C
  C399     1.0000 0.88780  0.75100  0.12318  Biso   1.000  C
  C400     1.0000 0.36220  0.49900  0.12318  Biso   1.000  C
  C401     1.0000 0.61220  0.00100  0.87318  Biso   1.000  C
  C402     1.0000 0.63780  0.24900  0.87318  Biso   1.000  C
  C403     1.0000 0.61220  0.24900  0.37682  Biso   1.000  C
  C404     1.0000 0.63780  0.00100  0.37682  Biso   1.000  C
  C405     1.0000 0.61220  0.50100  0.37318  Biso   1.000  C
  C406     1.0000 0.63780  0.74900  0.37318  Biso   1.000  C
  C407     1.0000 0.61220  0.74900  0.87682  Biso   1.000  C
  C408     1.0000 0.63780  0.50100  0.87682  Biso   1.000  C
  C409     1.0000 0.11220  0.00100  0.37318  Biso   1.000  C
  C410     1.0000 0.13780  0.24900  0.37318  Biso   1.000  C
  C411     1.0000 0.11220  0.24900  0.87682  Biso   1.000  C
  C412     1.0000 0.13780  0.00100  0.87682  Biso   1.000  C
  C413     1.0000 0.11220  0.50100  0.87318  Biso   1.000  C
  C414     1.0000 0.13780  0.74900  0.87318  Biso   1.000  C
  C415     1.0000 0.11220  0.74900  0.37682  Biso   1.000  C
  C416     1.0000 0.13780  0.50100  0.37682  Biso   1.000  C
  C417     1.0000 0.34420  0.01091  0.15239  Biso   1.000  C
  C418     1.0000 0.90580  0.23909  0.15239  Biso   1.000  C
  C419     1.0000 0.34420  0.23909  0.09761  Biso   1.000  C
  C420     1.0000 0.90580  0.01091  0.09761  Biso   1.000  C
  C421     1.0000 0.34420  0.51091  0.65239  Biso   1.000  C
  C422     1.0000 0.90580  0.73909  0.65239  Biso   1.000  C
  C423     1.0000 0.34420  0.73909  0.59761  Biso   1.000  C
  C424     1.0000 0.90580  0.51091  0.59761  Biso   1.000  C
  C425     1.0000 0.84420  0.01091  0.65239  Biso   1.000  C
  C426     1.0000 0.40580  0.23909  0.65239  Biso   1.000  C
  C427     1.0000 0.84420  0.23909  0.59761  Biso   1.000  C
  C428     1.0000 0.40580  0.01091  0.59761  Biso   1.000  C
  C429     1.0000 0.84420  0.51091  0.15239  Biso   1.000  C
  C430     1.0000 0.40580  0.73909  0.15239  Biso   1.000  C
  C431     1.0000 0.84420  0.73909  0.09761  Biso   1.000  C
  C432     1.0000 0.40580  0.51091  0.09761  Biso   1.000  C
  C433     1.0000 0.65580  0.98909  0.84761  Biso   1.000  C
  C434     1.0000 0.59420  0.26091  0.84761  Biso   1.000  C
  C435     1.0000 0.65580  0.26091  0.40239  Biso   1.000  C
  C436     1.0000 0.59420  0.98909  0.40239  Biso   1.000  C
  C437     1.0000 0.65580  0.48909  0.34761  Biso   1.000  C
  C438     1.0000 0.59420  0.76091  0.34761  Biso   1.000  C
  C439     1.0000 0.65580  0.76091  0.90239  Biso   1.000  C
  C440     1.0000 0.59420  0.48909  0.90239  Biso   1.000  C
  C441     1.0000 0.15580  0.98909  0.34761  Biso   1.000  C
  C442     1.0000 0.09420  0.26091  0.34761  Biso   1.000  C
  C443     1.0000 0.15580  0.26091  0.90239  Biso   1.000  C
  C444     1.0000 0.09420  0.98909  0.90239  Biso   1.000  C
  C445     1.0000 0.15580  0.48909  0.84761  Biso   1.000  C
  C446     1.0000 0.09420  0.76091  0.84761  Biso   1.000  C
  C447     1.0000 0.15580  0.76091  0.40239  Biso   1.000  C
  C448     1.0000 0.09420  0.48909  0.40239  Biso   1.000  C
  H321     1.0000 0.29240  0.01860  0.14900  Biso   1.000  H
  H322     1.0000 0.95760  0.23140  0.14900  Biso   1.000  H
  H323     1.0000 0.29240  0.23140  0.10100  Biso   1.000  H
  H324     1.0000 0.95760  0.01860  0.10100  Biso   1.000  H
  H325     1.0000 0.29240  0.51860  0.64900  Biso   1.000  H
  H326     1.0000 0.95760  0.73140  0.64900  Biso   1.000  H
  H327     1.0000 0.29240  0.73140  0.60100  Biso   1.000  H
  H328     1.0000 0.95760  0.51860  0.60100  Biso   1.000  H
  H329     1.0000 0.79240  0.01860  0.64900  Biso   1.000  H
  H330     1.0000 0.45760  0.23140  0.64900  Biso   1.000  H
  H331     1.0000 0.79240  0.23140  0.60100  Biso   1.000  H
  H332     1.0000 0.45760  0.01860  0.60100  Biso   1.000  H
  H333     1.0000 0.79240  0.51860  0.14900  Biso   1.000  H
  H334     1.0000 0.45760  0.73140  0.14900  Biso   1.000  H
  H335     1.0000 0.79240  0.73140  0.10100  Biso   1.000  H
  H336     1.0000 0.45760  0.51860  0.10100  Biso   1.000  H
  H337     1.0000 0.70760  0.98140  0.85100  Biso   1.000  H
  H338     1.0000 0.54240  0.26860  0.85100  Biso   1.000  H
  H339     1.0000 0.70760  0.26860  0.39900  Biso   1.000  H
  H340     1.0000 0.54240  0.98140  0.39900  Biso   1.000  H
  H341     1.0000 0.70760  0.48140  0.35100  Biso   1.000  H
  H342     1.0000 0.54240  0.76860  0.35100  Biso   1.000  H
  H343     1.0000 0.70760  0.76860  0.89900  Biso   1.000  H
  H344     1.0000 0.54240  0.48140  0.89900  Biso   1.000  H
  H345     1.0000 0.20760  0.98140  0.35100  Biso   1.000  H
  H346     1.0000 0.04240  0.26860  0.35100  Biso   1.000  H
  H347     1.0000 0.20760  0.26860  0.89900  Biso   1.000  H
  H348     1.0000 0.04240  0.98140  0.89900  Biso   1.000  H
  H349     1.0000 0.20760  0.48140  0.85100  Biso   1.000  H
  H350     1.0000 0.04240  0.76860  0.85100  Biso   1.000  H
  H351     1.0000 0.20760  0.76860  0.39900  Biso   1.000  H
  H352     1.0000 0.04240  0.48140  0.39900  Biso   1.000  H
  C449     1.0000 0.37500  0.01154  0.18169  Biso   1.000  C
  C450     1.0000 0.87500  0.23846  0.18169  Biso   1.000  C
  C451     1.0000 0.37500  0.23846  0.06831  Biso   1.000  C
  C452     1.0000 0.87500  0.01154  0.06831  Biso   1.000  C
  C453     1.0000 0.37500  0.51154  0.68169  Biso   1.000  C
  C454     1.0000 0.87500  0.73846  0.68169  Biso   1.000  C
  C455     1.0000 0.37500  0.73846  0.56831  Biso   1.000  C
  C456     1.0000 0.87500  0.51154  0.56831  Biso   1.000  C
  C457     1.0000 0.87500  0.01154  0.68169  Biso   1.000  C
  C458     1.0000 0.37500  0.23846  0.68169  Biso   1.000  C
  C459     1.0000 0.87500  0.23846  0.56831  Biso   1.000  C
  C460     1.0000 0.37500  0.01154  0.56831  Biso   1.000  C
  C461     1.0000 0.87500  0.51154  0.18169  Biso   1.000  C
  C462     1.0000 0.37500  0.73846  0.18169  Biso   1.000  C
  C463     1.0000 0.87500  0.73846  0.06831  Biso   1.000  C
  C464     1.0000 0.37500  0.51154  0.06831  Biso   1.000  C
  C465     1.0000 0.62500  0.98846  0.81831  Biso   1.000  C
  C466     1.0000 0.62500  0.26154  0.81831  Biso   1.000  C
  C467     1.0000 0.62500  0.26154  0.43169  Biso   1.000  C
  C468     1.0000 0.62500  0.98846  0.43169  Biso   1.000  C
  C469     1.0000 0.62500  0.48846  0.31831  Biso   1.000  C
  C470     1.0000 0.62500  0.76154  0.31831  Biso   1.000  C
  C471     1.0000 0.62500  0.76154  0.93169  Biso   1.000  C
  C472     1.0000 0.62500  0.48846  0.93169  Biso   1.000  C
  C473     1.0000 0.12500  0.98846  0.31831  Biso   1.000  C
  C474     1.0000 0.12500  0.26154  0.31831  Biso   1.000  C
  C475     1.0000 0.12500  0.26154  0.93169  Biso   1.000  C
  C476     1.0000 0.12500  0.98846  0.93169  Biso   1.000  C
  C477     1.0000 0.12500  0.48846  0.81831  Biso   1.000  C
  C478     1.0000 0.12500  0.76154  0.81831  Biso   1.000  C
  C479     1.0000 0.12500  0.76154  0.43169  Biso   1.000  C
  C480     1.0000 0.12500  0.48846  0.43169  Biso   1.000  C
  H353     1.0000 0.34500  0.02100  0.19810  Biso   1.000  H
  H354     1.0000 0.90500  0.22900  0.19810  Biso   1.000  H
  H355     1.0000 0.34500  0.22900  0.05190  Biso   1.000  H
  H356     1.0000 0.90500  0.02100  0.05190  Biso   1.000  H
  H357     1.0000 0.34500  0.52100  0.69810  Biso   1.000  H
  H358     1.0000 0.90500  0.72900  0.69810  Biso   1.000  H
  H359     1.0000 0.34500  0.72900  0.55190  Biso   1.000  H
  H360     1.0000 0.90500  0.52100  0.55190  Biso   1.000  H
  H361     1.0000 0.84500  0.02100  0.69810  Biso   1.000  H
  H362     1.0000 0.40500  0.22900  0.69810  Biso   1.000  H
  H363     1.0000 0.84500  0.22900  0.55190  Biso   1.000  H
  H364     1.0000 0.40500  0.02100  0.55190  Biso   1.000  H
  H365     1.0000 0.84500  0.52100  0.19810  Biso   1.000  H
  H366     1.0000 0.40500  0.72900  0.19810  Biso   1.000  H
  H367     1.0000 0.84500  0.72900  0.05190  Biso   1.000  H
  H368     1.0000 0.40500  0.52100  0.05190  Biso   1.000  H
  H369     1.0000 0.65500  0.97900  0.80190  Biso   1.000  H
  H370     1.0000 0.59500  0.27100  0.80190  Biso   1.000  H
  H371     1.0000 0.65500  0.27100  0.44810  Biso   1.000  H
  H372     1.0000 0.59500  0.97900  0.44810  Biso   1.000  H
  H373     1.0000 0.65500  0.47900  0.30190  Biso   1.000  H
  H374     1.0000 0.59500  0.77100  0.30190  Biso   1.000  H
  H375     1.0000 0.65500  0.77100  0.94810  Biso   1.000  H
  H376     1.0000 0.59500  0.47900  0.94810  Biso   1.000  H
  H377     1.0000 0.15500  0.97900  0.30190  Biso   1.000  H
  H378     1.0000 0.09500  0.27100  0.30190  Biso   1.000  H
  H379     1.0000 0.15500  0.27100  0.94810  Biso   1.000  H
  H380     1.0000 0.09500  0.97900  0.94810  Biso   1.000  H
  H381     1.0000 0.15500  0.47900  0.80190  Biso   1.000  H
  H382     1.0000 0.09500  0.77100  0.80190  Biso   1.000  H
  H383     1.0000 0.15500  0.77100  0.44810  Biso   1.000  H
  H384     1.0000 0.09500  0.47900  0.44810  Biso   1.000  H
  N97      1.0000 0.29600  0.99736  0.03381  Biso   1.000  N
  N98      1.0000 0.95400  0.25264  0.03381  Biso   1.000  N
  N99      1.0000 0.29600  0.25264  0.21619  Biso   1.000  N
  N100     1.0000 0.95400  0.99736  0.21619  Biso   1.000  N
  N101     1.0000 0.29600  0.49736  0.53381  Biso   1.000  N
  N102     1.0000 0.95400  0.75264  0.53381  Biso   1.000  N
  N103     1.0000 0.29600  0.75264  0.71619  Biso   1.000  N
  N104     1.0000 0.95400  0.49736  0.71619  Biso   1.000  N
  N105     1.0000 0.79600  0.99736  0.53381  Biso   1.000  N
  N106     1.0000 0.45400  0.25264  0.53381  Biso   1.000  N
  N107     1.0000 0.79600  0.25264  0.71619  Biso   1.000  N
  N108     1.0000 0.45400  0.99736  0.71619  Biso   1.000  N
  N109     1.0000 0.79600  0.49736  0.03381  Biso   1.000  N
  N110     1.0000 0.45400  0.75264  0.03381  Biso   1.000  N
  N111     1.0000 0.79600  0.75264  0.21619  Biso   1.000  N
  N112     1.0000 0.45400  0.49736  0.21619  Biso   1.000  N
  N113     1.0000 0.70400  0.00264  0.96619  Biso   1.000  N
  N114     1.0000 0.54600  0.24736  0.96619  Biso   1.000  N
  N115     1.0000 0.70400  0.24736  0.28381  Biso   1.000  N
  N116     1.0000 0.54600  0.00264  0.28381  Biso   1.000  N
  N117     1.0000 0.70400  0.50264  0.46619  Biso   1.000  N
  N118     1.0000 0.54600  0.74736  0.46619  Biso   1.000  N
  N119     1.0000 0.70400  0.74736  0.78381  Biso   1.000  N
  N120     1.0000 0.54600  0.50264  0.78381  Biso   1.000  N
  N121     1.0000 0.20400  0.00264  0.46619  Biso   1.000  N
  N122     1.0000 0.04600  0.24736  0.46619  Biso   1.000  N
  N123     1.0000 0.20400  0.24736  0.78381  Biso   1.000  N
  N124     1.0000 0.04600  0.00264  0.78381  Biso   1.000  N
  N125     1.0000 0.20400  0.50264  0.96619  Biso   1.000  N
  N126     1.0000 0.04600  0.74736  0.96619  Biso   1.000  N
  N127     1.0000 0.20400  0.74736  0.28381  Biso   1.000  N
  N128     1.0000 0.04600  0.50264  0.28381  Biso   1.000  N
  C481     1.0000 0.34280  0.97461  0.04395  Biso   1.000  C
  C482     1.0000 0.90720  0.27539  0.04395  Biso   1.000  C
  C483     1.0000 0.34280  0.27539  0.20605  Biso   1.000  C
  C484     1.0000 0.90720  0.97461  0.20605  Biso   1.000  C
  C485     1.0000 0.34280  0.47461  0.54395  Biso   1.000  C
  C486     1.0000 0.90720  0.77539  0.54395  Biso   1.000  C
  C487     1.0000 0.34280  0.77539  0.70605  Biso   1.000  C
  C488     1.0000 0.90720  0.47461  0.70605  Biso   1.000  C
  C489     1.0000 0.84280  0.97461  0.54395  Biso   1.000  C
  C490     1.0000 0.40720  0.27539  0.54395  Biso   1.000  C
  C491     1.0000 0.84280  0.27539  0.70605  Biso   1.000  C
  C492     1.0000 0.40720  0.97461  0.70605  Biso   1.000  C
  C493     1.0000 0.84280  0.47461  0.04395  Biso   1.000  C
  C494     1.0000 0.40720  0.77539  0.04395  Biso   1.000  C
  C495     1.0000 0.84280  0.77539  0.20605  Biso   1.000  C
  C496     1.0000 0.40720  0.47461  0.20605  Biso   1.000  C
  C497     1.0000 0.65720  0.02539  0.95605  Biso   1.000  C
  C498     1.0000 0.59280  0.22461  0.95605  Biso   1.000  C
  C499     1.0000 0.65720  0.22461  0.29395  Biso   1.000  C
  C500     1.0000 0.59280  0.02539  0.29395  Biso   1.000  C
  C501     1.0000 0.65720  0.52539  0.45605  Biso   1.000  C
  C502     1.0000 0.59280  0.72461  0.45605  Biso   1.000  C
  C503     1.0000 0.65720  0.72461  0.79395  Biso   1.000  C
  C504     1.0000 0.59280  0.52539  0.79395  Biso   1.000  C
  C505     1.0000 0.15720  0.02539  0.45605  Biso   1.000  C
  C506     1.0000 0.09280  0.22461  0.45605  Biso   1.000  C
  C507     1.0000 0.15720  0.22461  0.79395  Biso   1.000  C
  C508     1.0000 0.09280  0.02539  0.79395  Biso   1.000  C
  C509     1.0000 0.15720  0.52539  0.95605  Biso   1.000  C
  C510     1.0000 0.09280  0.72461  0.95605  Biso   1.000  C
  C511     1.0000 0.15720  0.72461  0.29395  Biso   1.000  C
  C512     1.0000 0.09280  0.52539  0.29395  Biso   1.000  C
  H385     1.0000 0.35610  0.95790  0.02980  Biso   1.000  H
  H386     1.0000 0.89390  0.29210  0.02980  Biso   1.000  H
  H387     1.0000 0.35610  0.29210  0.22020  Biso   1.000  H
  H388     1.0000 0.89390  0.95790  0.22020  Biso   1.000  H
  H389     1.0000 0.35610  0.45790  0.52980  Biso   1.000  H
  H390     1.0000 0.89390  0.79210  0.52980  Biso   1.000  H
  H391     1.0000 0.35610  0.79210  0.72020  Biso   1.000  H
  H392     1.0000 0.89390  0.45790  0.72020  Biso   1.000  H
  H393     1.0000 0.85610  0.95790  0.52980  Biso   1.000  H
  H394     1.0000 0.39390  0.29210  0.52980  Biso   1.000  H
  H395     1.0000 0.85610  0.29210  0.72020  Biso   1.000  H
  H396     1.0000 0.39390  0.95790  0.72020  Biso   1.000  H
  H397     1.0000 0.85610  0.45790  0.02980  Biso   1.000  H
  H398     1.0000 0.39390  0.79210  0.02980  Biso   1.000  H
  H399     1.0000 0.85610  0.79210  0.22020  Biso   1.000  H
  H400     1.0000 0.39390  0.45790  0.22020  Biso   1.000  H
  H401     1.0000 0.64390  0.04210  0.97020  Biso   1.000  H
  H402     1.0000 0.60610  0.20790  0.97020  Biso   1.000  H
  H403     1.0000 0.64390  0.20790  0.27980  Biso   1.000  H
  H404     1.0000 0.60610  0.04210  0.27980  Biso   1.000  H
  H405     1.0000 0.64390  0.54210  0.47020  Biso   1.000  H
  H406     1.0000 0.60610  0.70790  0.47020  Biso   1.000  H
  H407     1.0000 0.64390  0.70790  0.77980  Biso   1.000  H
  H408     1.0000 0.60610  0.54210  0.77980  Biso   1.000  H
  H409     1.0000 0.14390  0.04210  0.47020  Biso   1.000  H
  H410     1.0000 0.10610  0.20790  0.47020  Biso   1.000  H
  H411     1.0000 0.14390  0.20790  0.77980  Biso   1.000  H
  H412     1.0000 0.10610  0.04210  0.77980  Biso   1.000  H
  H413     1.0000 0.14390  0.54210  0.97020  Biso   1.000  H
  H414     1.0000 0.10610  0.70790  0.97020  Biso   1.000  H
  H415     1.0000 0.14390  0.70790  0.27980  Biso   1.000  H
  H416     1.0000 0.10610  0.54210  0.27980  Biso   1.000  H
  C513     1.0000 0.37350  0.97373  0.07401  Biso   1.000  C
  C514     1.0000 0.87650  0.27627  0.07401  Biso   1.000  C
  C515     1.0000 0.37350  0.27627  0.17599  Biso   1.000  C
  C516     1.0000 0.87650  0.97373  0.17599  Biso   1.000  C
  C517     1.0000 0.37350  0.47373  0.57401  Biso   1.000  C
  C518     1.0000 0.87650  0.77627  0.57401  Biso   1.000  C
  C519     1.0000 0.37350  0.77627  0.67599  Biso   1.000  C
  C520     1.0000 0.87650  0.47373  0.67599  Biso   1.000  C
  C521     1.0000 0.87350  0.97373  0.57401  Biso   1.000  C
  C522     1.0000 0.37650  0.27627  0.57401  Biso   1.000  C
  C523     1.0000 0.87350  0.27627  0.67599  Biso   1.000  C
  C524     1.0000 0.37650  0.97373  0.67599  Biso   1.000  C
  C525     1.0000 0.87350  0.47373  0.07401  Biso   1.000  C
  C526     1.0000 0.37650  0.77627  0.07401  Biso   1.000  C
  C527     1.0000 0.87350  0.77627  0.17599  Biso   1.000  C
  C528     1.0000 0.37650  0.47373  0.17599  Biso   1.000  C
  C529     1.0000 0.62650  0.02627  0.92599  Biso   1.000  C
  C530     1.0000 0.62350  0.22373  0.92599  Biso   1.000  C
  C531     1.0000 0.62650  0.22373  0.32401  Biso   1.000  C
  C532     1.0000 0.62350  0.02627  0.32401  Biso   1.000  C
  C533     1.0000 0.62650  0.52627  0.42599  Biso   1.000  C
  C534     1.0000 0.62350  0.72373  0.42599  Biso   1.000  C
  C535     1.0000 0.62650  0.72373  0.82401  Biso   1.000  C
  C536     1.0000 0.62350  0.52627  0.82401  Biso   1.000  C
  C537     1.0000 0.12650  0.02627  0.42599  Biso   1.000  C
  C538     1.0000 0.12350  0.22373  0.42599  Biso   1.000  C
  C539     1.0000 0.12650  0.22373  0.82401  Biso   1.000  C
  C540     1.0000 0.12350  0.02627  0.82401  Biso   1.000  C
  C541     1.0000 0.12650  0.52627  0.92599  Biso   1.000  C
  C542     1.0000 0.12350  0.72373  0.92599  Biso   1.000  C
  C543     1.0000 0.12650  0.72373  0.32401  Biso   1.000  C
  C544     1.0000 0.12350  0.52627  0.32401  Biso   1.000  C
  H417     1.0000 0.40540  0.95630  0.08040  Biso   1.000  H
  H418     1.0000 0.84460  0.29370  0.08040  Biso   1.000  H
  H419     1.0000 0.40540  0.29370  0.16960  Biso   1.000  H
  H420     1.0000 0.84460  0.95630  0.16960  Biso   1.000  H
  H421     1.0000 0.40540  0.45630  0.58040  Biso   1.000  H
  H422     1.0000 0.84460  0.79370  0.58040  Biso   1.000  H
  H423     1.0000 0.40540  0.79370  0.66960  Biso   1.000  H
  H424     1.0000 0.84460  0.45630  0.66960  Biso   1.000  H
  H425     1.0000 0.90540  0.95630  0.58040  Biso   1.000  H
  H426     1.0000 0.34460  0.29370  0.58040  Biso   1.000  H
  H427     1.0000 0.90540  0.29370  0.66960  Biso   1.000  H
  H428     1.0000 0.34460  0.95630  0.66960  Biso   1.000  H
  H429     1.0000 0.90540  0.45630  0.08040  Biso   1.000  H
  H430     1.0000 0.34460  0.79370  0.08040  Biso   1.000  H
  H431     1.0000 0.90540  0.79370  0.16960  Biso   1.000  H
  H432     1.0000 0.34460  0.45630  0.16960  Biso   1.000  H
  H433     1.0000 0.59460  0.04370  0.91960  Biso   1.000  H
  H434     1.0000 0.65540  0.20630  0.91960  Biso   1.000  H
  H435     1.0000 0.59460  0.20630  0.33040  Biso   1.000  H
  H436     1.0000 0.65540  0.04370  0.33040  Biso   1.000  H
  H437     1.0000 0.59460  0.54370  0.41960  Biso   1.000  H
  H438     1.0000 0.65540  0.70630  0.41960  Biso   1.000  H
  H439     1.0000 0.59460  0.70630  0.83040  Biso   1.000  H
  H440     1.0000 0.65540  0.54370  0.83040  Biso   1.000  H
  H441     1.0000 0.09460  0.04370  0.41960  Biso   1.000  H
  H442     1.0000 0.15540  0.20630  0.41960  Biso   1.000  H
  H443     1.0000 0.09460  0.20630  0.83040  Biso   1.000  H
  H444     1.0000 0.15540  0.04370  0.83040  Biso   1.000  H
  H445     1.0000 0.09460  0.54370  0.91960  Biso   1.000  H
  H446     1.0000 0.15540  0.70630  0.91960  Biso   1.000  H
  H447     1.0000 0.09460  0.70630  0.33040  Biso   1.000  H
  H448     1.0000 0.15540  0.54370  0.33040  Biso   1.000  H
  C545     1.0000 0.35790  0.99829  0.09503  Biso   1.000  C
  C546     1.0000 0.89210  0.25171  0.09503  Biso   1.000  C
  C547     1.0000 0.35790  0.25171  0.15497  Biso   1.000  C
  C548     1.0000 0.89210  0.99829  0.15497  Biso   1.000  C
  C549     1.0000 0.35790  0.49829  0.59503  Biso   1.000  C
  C550     1.0000 0.89210  0.75171  0.59503  Biso   1.000  C
  C551     1.0000 0.35790  0.75171  0.65497  Biso   1.000  C
  C552     1.0000 0.89210  0.49829  0.65497  Biso   1.000  C
  C553     1.0000 0.85790  0.99829  0.59503  Biso   1.000  C
  C554     1.0000 0.39210  0.25171  0.59503  Biso   1.000  C
  C555     1.0000 0.85790  0.25171  0.65497  Biso   1.000  C
  C556     1.0000 0.39210  0.99829  0.65497  Biso   1.000  C
  C557     1.0000 0.85790  0.49829  0.09503  Biso   1.000  C
  C558     1.0000 0.39210  0.75171  0.09503  Biso   1.000  C
  C559     1.0000 0.85790  0.75171  0.15497  Biso   1.000  C
  C560     1.0000 0.39210  0.49829  0.15497  Biso   1.000  C
  C561     1.0000 0.64210  0.00171  0.90497  Biso   1.000  C
  C562     1.0000 0.60790  0.24829  0.90497  Biso   1.000  C
  C563     1.0000 0.64210  0.24829  0.34503  Biso   1.000  C
  C564     1.0000 0.60790  0.00171  0.34503  Biso   1.000  C
  C565     1.0000 0.64210  0.50171  0.40497  Biso   1.000  C
  C566     1.0000 0.60790  0.74829  0.40497  Biso   1.000  C
  C567     1.0000 0.64210  0.74829  0.84503  Biso   1.000  C
  C568     1.0000 0.60790  0.50171  0.84503  Biso   1.000  C
  C569     1.0000 0.14210  0.00171  0.40497  Biso   1.000  C
  C570     1.0000 0.10790  0.24829  0.40497  Biso   1.000  C
  C571     1.0000 0.14210  0.24829  0.84503  Biso   1.000  C
  C572     1.0000 0.10790  0.00171  0.84503  Biso   1.000  C
  C573     1.0000 0.14210  0.50171  0.90497  Biso   1.000  C
  C574     1.0000 0.10790  0.74829  0.90497  Biso   1.000  C
  C575     1.0000 0.14210  0.74829  0.34503  Biso   1.000  C
  C576     1.0000 0.10790  0.50171  0.34503  Biso   1.000  C
  C577     1.0000 0.30770  0.02275  0.08471  Biso   1.000  C
  C578     1.0000 0.94230  0.22725  0.08471  Biso   1.000  C
  C579     1.0000 0.30770  0.22725  0.16529  Biso   1.000  C
  C580     1.0000 0.94230  0.02275  0.16529  Biso   1.000  C
  C581     1.0000 0.30770  0.52275  0.58471  Biso   1.000  C
  C582     1.0000 0.94230  0.72725  0.58471  Biso   1.000  C
  C583     1.0000 0.30770  0.72725  0.66529  Biso   1.000  C
  C584     1.0000 0.94230  0.52275  0.66529  Biso   1.000  C
  C585     1.0000 0.80770  0.02275  0.58471  Biso   1.000  C
  C586     1.0000 0.44230  0.22725  0.58471  Biso   1.000  C
  C587     1.0000 0.80770  0.22725  0.66529  Biso   1.000  C
  C588     1.0000 0.44230  0.02275  0.66529  Biso   1.000  C
  C589     1.0000 0.80770  0.52275  0.08471  Biso   1.000  C
  C590     1.0000 0.44230  0.72725  0.08471  Biso   1.000  C
  C591     1.0000 0.80770  0.72725  0.16529  Biso   1.000  C
  C592     1.0000 0.44230  0.52275  0.16529  Biso   1.000  C
  C593     1.0000 0.69230  0.97725  0.91529  Biso   1.000  C
  C594     1.0000 0.55770  0.27275  0.91529  Biso   1.000  C
  C595     1.0000 0.69230  0.27275  0.33471  Biso   1.000  C
  C596     1.0000 0.55770  0.97725  0.33471  Biso   1.000  C
  C597     1.0000 0.69230  0.47725  0.41529  Biso   1.000  C
  C598     1.0000 0.55770  0.77275  0.41529  Biso   1.000  C
  C599     1.0000 0.69230  0.77275  0.83471  Biso   1.000  C
  C600     1.0000 0.55770  0.47725  0.83471  Biso   1.000  C
  C601     1.0000 0.19230  0.97725  0.41529  Biso   1.000  C
  C602     1.0000 0.05770  0.27275  0.41529  Biso   1.000  C
  C603     1.0000 0.19230  0.27275  0.83471  Biso   1.000  C
  C604     1.0000 0.05770  0.97725  0.83471  Biso   1.000  C
  C605     1.0000 0.19230  0.47725  0.91529  Biso   1.000  C
  C606     1.0000 0.05770  0.77275  0.91529  Biso   1.000  C
  C607     1.0000 0.19230  0.77275  0.33471  Biso   1.000  C
  C608     1.0000 0.05770  0.47725  0.33471  Biso   1.000  C
  H449     1.0000 0.29310  0.03970  0.09830  Biso   1.000  H
  H450     1.0000 0.95690  0.21030  0.09830  Biso   1.000  H
  H451     1.0000 0.29310  0.21030  0.15170  Biso   1.000  H
  H452     1.0000 0.95690  0.03970  0.15170  Biso   1.000  H
  H453     1.0000 0.29310  0.53970  0.59830  Biso   1.000  H
  H454     1.0000 0.95690  0.71030  0.59830  Biso   1.000  H
  H455     1.0000 0.29310  0.71030  0.65170  Biso   1.000  H
  H456     1.0000 0.95690  0.53970  0.65170  Biso   1.000  H
  H457     1.0000 0.79310  0.03970  0.59830  Biso   1.000  H
  H458     1.0000 0.45690  0.21030  0.59830  Biso   1.000  H
  H459     1.0000 0.79310  0.21030  0.65170  Biso   1.000  H
  H460     1.0000 0.45690  0.03970  0.65170  Biso   1.000  H
  H461     1.0000 0.79310  0.53970  0.09830  Biso   1.000  H
  H462     1.0000 0.45690  0.71030  0.09830  Biso   1.000  H
  H463     1.0000 0.79310  0.71030  0.15170  Biso   1.000  H
  H464     1.0000 0.45690  0.53970  0.15170  Biso   1.000  H
  H465     1.0000 0.70690  0.96030  0.90170  Biso   1.000  H
  H466     1.0000 0.54310  0.28970  0.90170  Biso   1.000  H
  H467     1.0000 0.70690  0.28970  0.34830  Biso   1.000  H
  H468     1.0000 0.54310  0.96030  0.34830  Biso   1.000  H
  H469     1.0000 0.70690  0.46030  0.40170  Biso   1.000  H
  H470     1.0000 0.54310  0.78970  0.40170  Biso   1.000  H
  H471     1.0000 0.70690  0.78970  0.84830  Biso   1.000  H
  H472     1.0000 0.54310  0.46030  0.84830  Biso   1.000  H
  H473     1.0000 0.20690  0.96030  0.40170  Biso   1.000  H
  H474     1.0000 0.04310  0.28970  0.40170  Biso   1.000  H
  H475     1.0000 0.20690  0.28970  0.84830  Biso   1.000  H
  H476     1.0000 0.04310  0.96030  0.84830  Biso   1.000  H
  H477     1.0000 0.20690  0.46030  0.90170  Biso   1.000  H
  H478     1.0000 0.04310  0.78970  0.90170  Biso   1.000  H
  H479     1.0000 0.20690  0.78970  0.34830  Biso   1.000  H
  H480     1.0000 0.04310  0.46030  0.34830  Biso   1.000  H
  C609     1.0000 0.28060  0.02114  0.05435  Biso   1.000  C
  C610     1.0000 0.96940  0.22886  0.05435  Biso   1.000  C
  C611     1.0000 0.28060  0.22886  0.19565  Biso   1.000  C
  C612     1.0000 0.96940  0.02114  0.19565  Biso   1.000  C
  C613     1.0000 0.28060  0.52114  0.55435  Biso   1.000  C
  C614     1.0000 0.96940  0.72886  0.55435  Biso   1.000  C
  C615     1.0000 0.28060  0.72886  0.69565  Biso   1.000  C
  C616     1.0000 0.96940  0.52114  0.69565  Biso   1.000  C
  C617     1.0000 0.78060  0.02114  0.55435  Biso   1.000  C
  C618     1.0000 0.46940  0.22886  0.55435  Biso   1.000  C
  C619     1.0000 0.78060  0.22886  0.69565  Biso   1.000  C
  C620     1.0000 0.46940  0.02114  0.69565  Biso   1.000  C
  C621     1.0000 0.78060  0.52114  0.05435  Biso   1.000  C
  C622     1.0000 0.46940  0.72886  0.05435  Biso   1.000  C
  C623     1.0000 0.78060  0.72886  0.19565  Biso   1.000  C
  C624     1.0000 0.46940  0.52114  0.19565  Biso   1.000  C
  C625     1.0000 0.71940  0.97886  0.94565  Biso   1.000  C
  C626     1.0000 0.53060  0.27114  0.94565  Biso   1.000  C
  C627     1.0000 0.71940  0.27114  0.30435  Biso   1.000  C
  C628     1.0000 0.53060  0.97886  0.30435  Biso   1.000  C
  C629     1.0000 0.71940  0.47886  0.44565  Biso   1.000  C
  C630     1.0000 0.53060  0.77114  0.44565  Biso   1.000  C
  C631     1.0000 0.71940  0.77114  0.80435  Biso   1.000  C
  C632     1.0000 0.53060  0.47886  0.80435  Biso   1.000  C
  C633     1.0000 0.21940  0.97886  0.44565  Biso   1.000  C
  C634     1.0000 0.03060  0.27114  0.44565  Biso   1.000  C
  C635     1.0000 0.21940  0.27114  0.80435  Biso   1.000  C
  C636     1.0000 0.03060  0.97886  0.80435  Biso   1.000  C
  C637     1.0000 0.21940  0.47886  0.94565  Biso   1.000  C
  C638     1.0000 0.03060  0.77114  0.94565  Biso   1.000  C
  C639     1.0000 0.21940  0.77114  0.30435  Biso   1.000  C
  C640     1.0000 0.03060  0.47886  0.30435  Biso   1.000  C
  H481     1.0000 0.24840  0.03810  0.04710  Biso   1.000  H
  H482     1.0000 0.00160  0.21190  0.04710  Biso   1.000  H
  H483     1.0000 0.24840  0.21190  0.20290  Biso   1.000  H
  H484     1.0000 0.00160  0.03810  0.20290  Biso   1.000  H
  H485     1.0000 0.24840  0.53810  0.54710  Biso   1.000  H
  H486     1.0000 0.00160  0.71190  0.54710  Biso   1.000  H
  H487     1.0000 0.24840  0.71190  0.70290  Biso   1.000  H
  H488     1.0000 0.00160  0.53810  0.70290  Biso   1.000  H
  H489     1.0000 0.74840  0.03810  0.54710  Biso   1.000  H
  H490     1.0000 0.50160  0.21190  0.54710  Biso   1.000  H
  H491     1.0000 0.74840  0.21190  0.70290  Biso   1.000  H
  H492     1.0000 0.50160  0.03810  0.70290  Biso   1.000  H
  H493     1.0000 0.74840  0.53810  0.04710  Biso   1.000  H
  H494     1.0000 0.50160  0.71190  0.04710  Biso   1.000  H
  H495     1.0000 0.74840  0.71190  0.20290  Biso   1.000  H
  H496     1.0000 0.50160  0.53810  0.20290  Biso   1.000  H
  H497     1.0000 0.75160  0.96190  0.95290  Biso   1.000  H
  H498     1.0000 0.49840  0.28810  0.95290  Biso   1.000  H
  H499     1.0000 0.75160  0.28810  0.29710  Biso   1.000  H
  H500     1.0000 0.49840  0.96190  0.29710  Biso   1.000  H
  H501     1.0000 0.75160  0.46190  0.45290  Biso   1.000  H
  H502     1.0000 0.49840  0.78810  0.45290  Biso   1.000  H
  H503     1.0000 0.75160  0.78810  0.79710  Biso   1.000  H
  H504     1.0000 0.49840  0.46190  0.79710  Biso   1.000  H
  H505     1.0000 0.25160  0.96190  0.45290  Biso   1.000  H
  H506     1.0000 0.99840  0.28810  0.45290  Biso   1.000  H
  H507     1.0000 0.25160  0.28810  0.79710  Biso   1.000  H
  H508     1.0000 0.99840  0.96190  0.79710  Biso   1.000  H
  H509     1.0000 0.25160  0.46190  0.95290  Biso   1.000  H
  H510     1.0000 0.99840  0.78810  0.95290  Biso   1.000  H
  H511     1.0000 0.25160  0.78810  0.29710  Biso   1.000  H
  H512     1.0000 0.99840  0.46190  0.29710  Biso   1.000  H
  S1       1.0000 0.31650  0.96647  0.25322  Biso   1.000  S
  S2       1.0000 0.93350  0.28353  0.25322  Biso   1.000  S
  S3       1.0000 0.31650  0.28353  0.99678  Biso   1.000  S
  S4       1.0000 0.93350  0.96647  0.99678  Biso   1.000  S
  S5       1.0000 0.31650  0.46647  0.75322  Biso   1.000  S
  S6       1.0000 0.93350  0.78353  0.75322  Biso   1.000  S
  S7       1.0000 0.31650  0.78353  0.49678  Biso   1.000  S
  S8       1.0000 0.93350  0.46647  0.49678  Biso   1.000  S
  S9       1.0000 0.81650  0.96647  0.75322  Biso   1.000  S
  S10      1.0000 0.43350  0.28353  0.75322  Biso   1.000  S
  S11      1.0000 0.81650  0.28353  0.49678  Biso   1.000  S
  S12      1.0000 0.43350  0.96647  0.49678  Biso   1.000  S
  S13      1.0000 0.81650  0.46647  0.25322  Biso   1.000  S
  S14      1.0000 0.43350  0.78353  0.25322  Biso   1.000  S
  S15      1.0000 0.81650  0.78353  0.99678  Biso   1.000  S
  S16      1.0000 0.43350  0.46647  0.99678  Biso   1.000  S
  S17      1.0000 0.68350  0.03353  0.74678  Biso   1.000  S
  S18      1.0000 0.56650  0.21647  0.74678  Biso   1.000  S
  S19      1.0000 0.68350  0.21647  0.50322  Biso   1.000  S
  S20      1.0000 0.56650  0.03353  0.50322  Biso   1.000  S
  S21      1.0000 0.68350  0.53353  0.24678  Biso   1.000  S
  S22      1.0000 0.56650  0.71647  0.24678  Biso   1.000  S
  S23      1.0000 0.68350  0.71647  0.00322  Biso   1.000  S
  S24      1.0000 0.56650  0.53353  0.00322  Biso   1.000  S
  S25      1.0000 0.18350  0.03353  0.24678  Biso   1.000  S
  S26      1.0000 0.06650  0.21647  0.24678  Biso   1.000  S
  S27      1.0000 0.18350  0.21647  0.00322  Biso   1.000  S
  S28      1.0000 0.06650  0.03353  0.00322  Biso   1.000  S
  S29      1.0000 0.18350  0.53353  0.74678  Biso   1.000  S
  S30      1.0000 0.06650  0.71647  0.74678  Biso   1.000  S
  S31      1.0000 0.18350  0.71647  0.50322  Biso   1.000  S
  S32      1.0000 0.06650  0.53353  0.50322  Biso   1.000  S
  O1       1.0000 0.39190  0.98320  0.25470  Biso   1.000  O
  O2       1.0000 0.85810  0.26680  0.25470  Biso   1.000  O
  O3       1.0000 0.39190  0.26680  0.99530  Biso   1.000  O
  O4       1.0000 0.85810  0.98320  0.99530  Biso   1.000  O
  O5       1.0000 0.39190  0.48320  0.75470  Biso   1.000  O
  O6       1.0000 0.85810  0.76680  0.75470  Biso   1.000  O
  O7       1.0000 0.39190  0.76680  0.49530  Biso   1.000  O
  O8       1.0000 0.85810  0.48320  0.49530  Biso   1.000  O
  O9       1.0000 0.89190  0.98320  0.75470  Biso   1.000  O
  O10      1.0000 0.35810  0.26680  0.75470  Biso   1.000  O
  O11      1.0000 0.89190  0.26680  0.49530  Biso   1.000  O
  O12      1.0000 0.35810  0.98320  0.49530  Biso   1.000  O
  O13      1.0000 0.89190  0.48320  0.25470  Biso   1.000  O
  O14      1.0000 0.35810  0.76680  0.25470  Biso   1.000  O
  O15      1.0000 0.89190  0.76680  0.99530  Biso   1.000  O
  O16      1.0000 0.35810  0.48320  0.99530  Biso   1.000  O
  O17      1.0000 0.60810  0.01680  0.74530  Biso   1.000  O
  O18      1.0000 0.64190  0.23320  0.74530  Biso   1.000  O
  O19      1.0000 0.60810  0.23320  0.50470  Biso   1.000  O
  O20      1.0000 0.64190  0.01680  0.50470  Biso   1.000  O
  O21      1.0000 0.60810  0.51680  0.24530  Biso   1.000  O
  O22      1.0000 0.64190  0.73320  0.24530  Biso   1.000  O
  O23      1.0000 0.60810  0.73320  0.00470  Biso   1.000  O
  O24      1.0000 0.64190  0.51680  0.00470  Biso   1.000  O
  O25      1.0000 0.10810  0.01680  0.24530  Biso   1.000  O
  O26      1.0000 0.14190  0.23320  0.24530  Biso   1.000  O
  O27      1.0000 0.10810  0.23320  0.00470  Biso   1.000  O
  O28      1.0000 0.14190  0.01680  0.00470  Biso   1.000  O
  O29      1.0000 0.10810  0.51680  0.74530  Biso   1.000  O
  O30      1.0000 0.14190  0.73320  0.74530  Biso   1.000  O
  O31      1.0000 0.10810  0.73320  0.50470  Biso   1.000  O
  O32      1.0000 0.14190  0.51680  0.50470  Biso   1.000  O
  O33      1.0000 0.30380  0.94820  0.22430  Biso   1.000  O
  O34      1.0000 0.94620  0.30180  0.22430  Biso   1.000  O
  O35      1.0000 0.30380  0.30180  0.02570  Biso   1.000  O
  O36      1.0000 0.94620  0.94820  0.02570  Biso   1.000  O
  O37      1.0000 0.30380  0.44820  0.72430  Biso   1.000  O
  O38      1.0000 0.94620  0.80180  0.72430  Biso   1.000  O
  O39      1.0000 0.30380  0.80180  0.52570  Biso   1.000  O
  O40      1.0000 0.94620  0.44820  0.52570  Biso   1.000  O
  O41      1.0000 0.80380  0.94820  0.72430  Biso   1.000  O
  O42      1.0000 0.44620  0.30180  0.72430  Biso   1.000  O
  O43      1.0000 0.80380  0.30180  0.52570  Biso   1.000  O
  O44      1.0000 0.44620  0.94820  0.52570  Biso   1.000  O
  O45      1.0000 0.80380  0.44820  0.22430  Biso   1.000  O
  O46      1.0000 0.44620  0.80180  0.22430  Biso   1.000  O
  O47      1.0000 0.80380  0.80180  0.02570  Biso   1.000  O
  O48      1.0000 0.44620  0.44820  0.02570  Biso   1.000  O
  O49      1.0000 0.69620  0.05180  0.77570  Biso   1.000  O
  O50      1.0000 0.55380  0.19820  0.77570  Biso   1.000  O
  O51      1.0000 0.69620  0.19820  0.47430  Biso   1.000  O
  O52      1.0000 0.55380  0.05180  0.47430  Biso   1.000  O
  O53      1.0000 0.69620  0.55180  0.27570  Biso   1.000  O
  O54      1.0000 0.55380  0.69820  0.27570  Biso   1.000  O
  O55      1.0000 0.69620  0.69820  0.97430  Biso   1.000  O
  O56      1.0000 0.55380  0.55180  0.97430  Biso   1.000  O
  O57      1.0000 0.19620  0.05180  0.27570  Biso   1.000  O
  O58      1.0000 0.05380  0.19820  0.27570  Biso   1.000  O
  O59      1.0000 0.19620  0.19820  0.97430  Biso   1.000  O
  O60      1.0000 0.05380  0.05180  0.97430  Biso   1.000  O
  O61      1.0000 0.19620  0.55180  0.77570  Biso   1.000  O
  O62      1.0000 0.05380  0.69820  0.77570  Biso   1.000  O
  O63      1.0000 0.19620  0.69820  0.47430  Biso   1.000  O
  O64      1.0000 0.05380  0.55180  0.47430  Biso   1.000  O
  O65      1.0000 0.25210  0.98760  0.26020  Biso   1.000  O
  O66      1.0000 0.99790  0.26240  0.26020  Biso   1.000  O
  O67      1.0000 0.25210  0.26240  0.98980  Biso   1.000  O
  O68      1.0000 0.99790  0.98760  0.98980  Biso   1.000  O
  O69      1.0000 0.25210  0.48760  0.76020  Biso   1.000  O
  O70      1.0000 0.99790  0.76240  0.76020  Biso   1.000  O
  O71      1.0000 0.25210  0.76240  0.48980  Biso   1.000  O
  O72      1.0000 0.99790  0.48760  0.48980  Biso   1.000  O
  O73      1.0000 0.75210  0.98760  0.76020  Biso   1.000  O
  O74      1.0000 0.49790  0.26240  0.76020  Biso   1.000  O
  O75      1.0000 0.75210  0.26240  0.48980  Biso   1.000  O
  O76      1.0000 0.49790  0.98760  0.48980  Biso   1.000  O
  O77      1.0000 0.75210  0.48760  0.26020  Biso   1.000  O
  O78      1.0000 0.49790  0.76240  0.26020  Biso   1.000  O
  O79      1.0000 0.75210  0.76240  0.98980  Biso   1.000  O
  O80      1.0000 0.49790  0.48760  0.98980  Biso   1.000  O
  O81      1.0000 0.74790  0.01240  0.73980  Biso   1.000  O
  O82      1.0000 0.50210  0.23760  0.73980  Biso   1.000  O
  O83      1.0000 0.74790  0.23760  0.51020  Biso   1.000  O
  O84      1.0000 0.50210  0.01240  0.51020  Biso   1.000  O
  O85      1.0000 0.74790  0.51240  0.23980  Biso   1.000  O
  O86      1.0000 0.50210  0.73760  0.23980  Biso   1.000  O
  O87      1.0000 0.74790  0.73760  0.01020  Biso   1.000  O
  O88      1.0000 0.50210  0.51240  0.01020  Biso   1.000  O
  O89      1.0000 0.24790  0.01240  0.23980  Biso   1.000  O
  O90      1.0000 0.00210  0.23760  0.23980  Biso   1.000  O
  O91      1.0000 0.24790  0.23760  0.01020  Biso   1.000  O
  O92      1.0000 0.00210  0.01240  0.01020  Biso   1.000  O
  O93      1.0000 0.24790  0.51240  0.73980  Biso   1.000  O
  O94      1.0000 0.00210  0.73760  0.73980  Biso   1.000  O
  O95      1.0000 0.24790  0.73760  0.51020  Biso   1.000  O
  O96      1.0000 0.00210  0.51240  0.51020  Biso   1.000  O
  C641     1.0000 0.31250  0.93990  0.28240  Biso   1.000  C
  C642     1.0000 0.93750  0.31010  0.28240  Biso   1.000  C
  C643     1.0000 0.31250  0.31010  0.96760  Biso   1.000  C
  C644     1.0000 0.93750  0.93990  0.96760  Biso   1.000  C
  C645     1.0000 0.31250  0.43990  0.78240  Biso   1.000  C
  C646     1.0000 0.93750  0.81010  0.78240  Biso   1.000  C
  C647     1.0000 0.31250  0.81010  0.46760  Biso   1.000  C
  C648     1.0000 0.93750  0.43990  0.46760  Biso   1.000  C
  C649     1.0000 0.81250  0.93990  0.78240  Biso   1.000  C
  C650     1.0000 0.43750  0.31010  0.78240  Biso   1.000  C
  C651     1.0000 0.81250  0.31010  0.46760  Biso   1.000  C
  C652     1.0000 0.43750  0.93990  0.46760  Biso   1.000  C
  C653     1.0000 0.81250  0.43990  0.28240  Biso   1.000  C
  C654     1.0000 0.43750  0.81010  0.28240  Biso   1.000  C
  C655     1.0000 0.81250  0.81010  0.96760  Biso   1.000  C
  C656     1.0000 0.43750  0.43990  0.96760  Biso   1.000  C
  C657     1.0000 0.68750  0.06010  0.71760  Biso   1.000  C
  C658     1.0000 0.56250  0.18990  0.71760  Biso   1.000  C
  C659     1.0000 0.68750  0.18990  0.53240  Biso   1.000  C
  C660     1.0000 0.56250  0.06010  0.53240  Biso   1.000  C
  C661     1.0000 0.68750  0.56010  0.21760  Biso   1.000  C
  C662     1.0000 0.56250  0.68990  0.21760  Biso   1.000  C
  C663     1.0000 0.68750  0.68990  0.03240  Biso   1.000  C
  C664     1.0000 0.56250  0.56010  0.03240  Biso   1.000  C
  C665     1.0000 0.18750  0.06010  0.21760  Biso   1.000  C
  C666     1.0000 0.06250  0.18990  0.21760  Biso   1.000  C
  C667     1.0000 0.18750  0.18990  0.03240  Biso   1.000  C
  C668     1.0000 0.06250  0.06010  0.03240  Biso   1.000  C
  C669     1.0000 0.18750  0.56010  0.71760  Biso   1.000  C
  C670     1.0000 0.06250  0.68990  0.71760  Biso   1.000  C
  C671     1.0000 0.18750  0.68990  0.53240  Biso   1.000  C
  C672     1.0000 0.06250  0.56010  0.53240  Biso   1.000  C
  F1       1.0000 0.37210  0.92010  0.28570  Biso   1.000  F
  F2       1.0000 0.87790  0.32990  0.28570  Biso   1.000  F
  F3       1.0000 0.37210  0.32990  0.96430  Biso   1.000  F
  F4       1.0000 0.87790  0.92010  0.96430  Biso   1.000  F
  F5       1.0000 0.37210  0.42010  0.78570  Biso   1.000  F
  F6       1.0000 0.87790  0.82990  0.78570  Biso   1.000  F
  F7       1.0000 0.37210  0.82990  0.46430  Biso   1.000  F
  F8       1.0000 0.87790  0.42010  0.46430  Biso   1.000  F
  F9       1.0000 0.87210  0.92010  0.78570  Biso   1.000  F
  F10      1.0000 0.37790  0.32990  0.78570  Biso   1.000  F
  F11      1.0000 0.87210  0.32990  0.46430  Biso   1.000  F
  F12      1.0000 0.37790  0.92010  0.46430  Biso   1.000  F
  F13      1.0000 0.87210  0.42010  0.28570  Biso   1.000  F
  F14      1.0000 0.37790  0.82990  0.28570  Biso   1.000  F
  F15      1.0000 0.87210  0.82990  0.96430  Biso   1.000  F
  F16      1.0000 0.37790  0.42010  0.96430  Biso   1.000  F
  F17      1.0000 0.62790  0.07990  0.71430  Biso   1.000  F
  F18      1.0000 0.62210  0.17010  0.71430  Biso   1.000  F
  F19      1.0000 0.62790  0.17010  0.53570  Biso   1.000  F
  F20      1.0000 0.62210  0.07990  0.53570  Biso   1.000  F
  F21      1.0000 0.62790  0.57990  0.21430  Biso   1.000  F
  F22      1.0000 0.62210  0.67010  0.21430  Biso   1.000  F
  F23      1.0000 0.62790  0.67010  0.03570  Biso   1.000  F
  F24      1.0000 0.62210  0.57990  0.03570  Biso   1.000  F
  F25      1.0000 0.12790  0.07990  0.21430  Biso   1.000  F
  F26      1.0000 0.12210  0.17010  0.21430  Biso   1.000  F
  F27      1.0000 0.12790  0.17010  0.03570  Biso   1.000  F
  F28      1.0000 0.12210  0.07990  0.03570  Biso   1.000  F
  F29      1.0000 0.12790  0.57990  0.71430  Biso   1.000  F
  F30      1.0000 0.12210  0.67010  0.71430  Biso   1.000  F
  F31      1.0000 0.12790  0.67010  0.53570  Biso   1.000  F
  F32      1.0000 0.12210  0.57990  0.53570  Biso   1.000  F
  F33      1.0000 0.32530  0.95300  0.31070  Biso   1.000  F
  F34      1.0000 0.92470  0.29700  0.31070  Biso   1.000  F
  F35      1.0000 0.32530  0.29700  0.93930  Biso   1.000  F
  F36      1.0000 0.92470  0.95300  0.93930  Biso   1.000  F
  F37      1.0000 0.32530  0.45300  0.81070  Biso   1.000  F
  F38      1.0000 0.92470  0.79700  0.81070  Biso   1.000  F
  F39      1.0000 0.32530  0.79700  0.43930  Biso   1.000  F
  F40      1.0000 0.92470  0.45300  0.43930  Biso   1.000  F
  F41      1.0000 0.82530  0.95300  0.81070  Biso   1.000  F
  F42      1.0000 0.42470  0.29700  0.81070  Biso   1.000  F
  F43      1.0000 0.82530  0.29700  0.43930  Biso   1.000  F
  F44      1.0000 0.42470  0.95300  0.43930  Biso   1.000  F
  F45      1.0000 0.82530  0.45300  0.31070  Biso   1.000  F
  F46      1.0000 0.42470  0.79700  0.31070  Biso   1.000  F
  F47      1.0000 0.82530  0.79700  0.93930  Biso   1.000  F
  F48      1.0000 0.42470  0.45300  0.93930  Biso   1.000  F
  F49      1.0000 0.67470  0.04700  0.68930  Biso   1.000  F
  F50      1.0000 0.57530  0.20300  0.68930  Biso   1.000  F
  F51      1.0000 0.67470  0.20300  0.56070  Biso   1.000  F
  F52      1.0000 0.57530  0.04700  0.56070  Biso   1.000  F
  F53      1.0000 0.67470  0.54700  0.18930  Biso   1.000  F
  F54      1.0000 0.57530  0.70300  0.18930  Biso   1.000  F
  F55      1.0000 0.67470  0.70300  0.06070  Biso   1.000  F
  F56      1.0000 0.57530  0.54700  0.06070  Biso   1.000  F
  F57      1.0000 0.17470  0.04700  0.18930  Biso   1.000  F
  F58      1.0000 0.07530  0.20300  0.18930  Biso   1.000  F
  F59      1.0000 0.17470  0.20300  0.06070  Biso   1.000  F
  F60      1.0000 0.07530  0.04700  0.06070  Biso   1.000  F
  F61      1.0000 0.17470  0.54700  0.68930  Biso   1.000  F
  F62      1.0000 0.07530  0.70300  0.68930  Biso   1.000  F
  F63      1.0000 0.17470  0.70300  0.56070  Biso   1.000  F
  F64      1.0000 0.07530  0.54700  0.56070  Biso   1.000  F
  F65      1.0000 0.24320  0.92580  0.28790  Biso   1.000  F
  F66      1.0000 0.00680  0.32420  0.28790  Biso   1.000  F
  F67      1.0000 0.24320  0.32420  0.96210  Biso   1.000  F
  F68      1.0000 0.00680  0.92580  0.96210  Biso   1.000  F
  F69      1.0000 0.24320  0.42580  0.78790  Biso   1.000  F
  F70      1.0000 0.00680  0.82420  0.78790  Biso   1.000  F
  F71      1.0000 0.24320  0.82420  0.46210  Biso   1.000  F
  F72      1.0000 0.00680  0.42580  0.46210  Biso   1.000  F
  F73      1.0000 0.74320  0.92580  0.78790  Biso   1.000  F
  F74      1.0000 0.50680  0.32420  0.78790  Biso   1.000  F
  F75      1.0000 0.74320  0.32420  0.46210  Biso   1.000  F
  F76      1.0000 0.50680  0.92580  0.46210  Biso   1.000  F
  F77      1.0000 0.74320  0.42580  0.28790  Biso   1.000  F
  F78      1.0000 0.50680  0.82420  0.28790  Biso   1.000  F
  F79      1.0000 0.74320  0.82420  0.96210  Biso   1.000  F
  F80      1.0000 0.50680  0.42580  0.96210  Biso   1.000  F
  F81      1.0000 0.75680  0.07420  0.71210  Biso   1.000  F
  F82      1.0000 0.49320  0.17580  0.71210  Biso   1.000  F
  F83      1.0000 0.75680  0.17580  0.53790  Biso   1.000  F
  F84      1.0000 0.49320  0.07420  0.53790  Biso   1.000  F
  F85      1.0000 0.75680  0.57420  0.21210  Biso   1.000  F
  F86      1.0000 0.49320  0.67580  0.21210  Biso   1.000  F
  F87      1.0000 0.75680  0.67580  0.03790  Biso   1.000  F
  F88      1.0000 0.49320  0.57420  0.03790  Biso   1.000  F
  F89      1.0000 0.25680  0.07420  0.21210  Biso   1.000  F
  F90      1.0000 0.99320  0.17580  0.21210  Biso   1.000  F
  F91      1.0000 0.25680  0.17580  0.03790  Biso   1.000  F
  F92      1.0000 0.99320  0.07420  0.03790  Biso   1.000  F
  F93      1.0000 0.25680  0.57420  0.71210  Biso   1.000  F
  F94      1.0000 0.99320  0.67580  0.71210  Biso   1.000  F
  F95      1.0000 0.25680  0.67580  0.53790  Biso   1.000  F
  F96      1.0000 0.99320  0.57420  0.53790  Biso   1.000  F
  O97      1.0000 0.59750  0.02261  0.21753  Biso   1.000  O
  O98      1.0000 0.65250  0.22739  0.21753  Biso   1.000  O
  O99      1.0000 0.59750  0.22739  0.03247  Biso   1.000  O
  O100     1.0000 0.65250  0.02261  0.03247  Biso   1.000  O
  O101     1.0000 0.59750  0.52261  0.71753  Biso   1.000  O
  O102     1.0000 0.65250  0.72739  0.71753  Biso   1.000  O
  O103     1.0000 0.59750  0.72739  0.53247  Biso   1.000  O
  O104     1.0000 0.65250  0.52261  0.53247  Biso   1.000  O
  O105     1.0000 0.09750  0.02261  0.71753  Biso   1.000  O
  O106     1.0000 0.15250  0.22739  0.71753  Biso   1.000  O
  O107     1.0000 0.09750  0.22739  0.53247  Biso   1.000  O
  O108     1.0000 0.15250  0.02261  0.53247  Biso   1.000  O
  O109     1.0000 0.09750  0.52261  0.21753  Biso   1.000  O
  O110     1.0000 0.15250  0.72739  0.21753  Biso   1.000  O
  O111     1.0000 0.09750  0.72739  0.03247  Biso   1.000  O
  O112     1.0000 0.15250  0.52261  0.03247  Biso   1.000  O
  O113     1.0000 0.40250  0.97739  0.78247  Biso   1.000  O
  O114     1.0000 0.84750  0.27261  0.78247  Biso   1.000  O
  O115     1.0000 0.40250  0.27261  0.46753  Biso   1.000  O
  O116     1.0000 0.84750  0.97739  0.46753  Biso   1.000  O
  O117     1.0000 0.40250  0.47739  0.28247  Biso   1.000  O
  O118     1.0000 0.84750  0.77261  0.28247  Biso   1.000  O
  O119     1.0000 0.40250  0.77261  0.96753  Biso   1.000  O
  O120     1.0000 0.84750  0.47739  0.96753  Biso   1.000  O
  O121     1.0000 0.90250  0.97739  0.28247  Biso   1.000  O
  O122     1.0000 0.34750  0.27261  0.28247  Biso   1.000  O
  O123     1.0000 0.90250  0.27261  0.96753  Biso   1.000  O
  O124     1.0000 0.34750  0.97739  0.96753  Biso   1.000  O
  O125     1.0000 0.90250  0.47739  0.78247  Biso   1.000  O
  O126     1.0000 0.34750  0.77261  0.78247  Biso   1.000  O
  O127     1.0000 0.90250  0.77261  0.46753  Biso   1.000  O
  O128     1.0000 0.34750  0.47739  0.46753  Biso   1.000  O
  O129     1.0000 0.74010  0.02618  0.21871  Biso   1.000  O
  O130     1.0000 0.50990  0.22382  0.21871  Biso   1.000  O
  O131     1.0000 0.74010  0.22382  0.03129  Biso   1.000  O
  O132     1.0000 0.50990  0.02618  0.03129  Biso   1.000  O
  O133     1.0000 0.74010  0.52618  0.71871  Biso   1.000  O
  O134     1.0000 0.50990  0.72382  0.71871  Biso   1.000  O
  O135     1.0000 0.74010  0.72382  0.53129  Biso   1.000  O
  O136     1.0000 0.50990  0.52618  0.53129  Biso   1.000  O
  O137     1.0000 0.24010  0.02618  0.71871  Biso   1.000  O
  O138     1.0000 0.00990  0.22382  0.71871  Biso   1.000  O
  O139     1.0000 0.24010  0.22382  0.53129  Biso   1.000  O
  O140     1.0000 0.00990  0.02618  0.53129  Biso   1.000  O
  O141     1.0000 0.24010  0.52618  0.21871  Biso   1.000  O
  O142     1.0000 0.00990  0.72382  0.21871  Biso   1.000  O
  O143     1.0000 0.24010  0.72382  0.03129  Biso   1.000  O
  O144     1.0000 0.00990  0.52618  0.03129  Biso   1.000  O
  O145     1.0000 0.25990  0.97382  0.78129  Biso   1.000  O
  O146     1.0000 0.99010  0.27618  0.78129  Biso   1.000  O
  O147     1.0000 0.25990  0.27618  0.46871  Biso   1.000  O
  O148     1.0000 0.99010  0.97382  0.46871  Biso   1.000  O
  O149     1.0000 0.25990  0.47382  0.28129  Biso   1.000  O
  O150     1.0000 0.99010  0.77618  0.28129  Biso   1.000  O
  O151     1.0000 0.25990  0.77618  0.96871  Biso   1.000  O
  O152     1.0000 0.99010  0.47382  0.96871  Biso   1.000  O
  O153     1.0000 0.75990  0.97382  0.28129  Biso   1.000  O
  O154     1.0000 0.49010  0.27618  0.28129  Biso   1.000  O
  O155     1.0000 0.75990  0.27618  0.96871  Biso   1.000  O
  O156     1.0000 0.49010  0.97382  0.96871  Biso   1.000  O
  O157     1.0000 0.75990  0.47382  0.78129  Biso   1.000  O
  O158     1.0000 0.49010  0.77618  0.78129  Biso   1.000  O
  O159     1.0000 0.75990  0.77618  0.46871  Biso   1.000  O
  O160     1.0000 0.49010  0.47382  0.46871  Biso   1.000  O
  C673     1.0000 0.66620  0.05410  0.17430  Biso   1.000  C
  C674     1.0000 0.58380  0.19590  0.17430  Biso   1.000  C
  C675     1.0000 0.66620  0.19590  0.07570  Biso   1.000  C
  C676     1.0000 0.58380  0.05410  0.07570  Biso   1.000  C
  C677     1.0000 0.66620  0.55410  0.67430  Biso   1.000  C
  C678     1.0000 0.58380  0.69590  0.67430  Biso   1.000  C
  C679     1.0000 0.66620  0.69590  0.57570  Biso   1.000  C
  C680     1.0000 0.58380  0.55410  0.57570  Biso   1.000  C
  C681     1.0000 0.16620  0.05410  0.67430  Biso   1.000  C
  C682     1.0000 0.08380  0.19590  0.67430  Biso   1.000  C
  C683     1.0000 0.16620  0.19590  0.57570  Biso   1.000  C
  C684     1.0000 0.08380  0.05410  0.57570  Biso   1.000  C
  C685     1.0000 0.16620  0.55410  0.17430  Biso   1.000  C
  C686     1.0000 0.08380  0.69590  0.17430  Biso   1.000  C
  C687     1.0000 0.16620  0.69590  0.07570  Biso   1.000  C
  C688     1.0000 0.08380  0.55410  0.07570  Biso   1.000  C
  C689     1.0000 0.33380  0.94590  0.82570  Biso   1.000  C
  C690     1.0000 0.91620  0.30410  0.82570  Biso   1.000  C
  C691     1.0000 0.33380  0.30410  0.42430  Biso   1.000  C
  C692     1.0000 0.91620  0.94590  0.42430  Biso   1.000  C
  C693     1.0000 0.33380  0.44590  0.32570  Biso   1.000  C
  C694     1.0000 0.91620  0.80410  0.32570  Biso   1.000  C
  C695     1.0000 0.33380  0.80410  0.92430  Biso   1.000  C
  C696     1.0000 0.91620  0.44590  0.92430  Biso   1.000  C
  C697     1.0000 0.83380  0.94590  0.32570  Biso   1.000  C
  C698     1.0000 0.41620  0.30410  0.32570  Biso   1.000  C
  C699     1.0000 0.83380  0.30410  0.92430  Biso   1.000  C
  C700     1.0000 0.41620  0.94590  0.92430  Biso   1.000  C
  C701     1.0000 0.83380  0.44590  0.82570  Biso   1.000  C
  C702     1.0000 0.41620  0.80410  0.82570  Biso   1.000  C
  C703     1.0000 0.83380  0.80410  0.42430  Biso   1.000  C
  C704     1.0000 0.41620  0.44590  0.42430  Biso   1.000  C
  S33      1.0000 0.67337  0.02255  0.20177  Biso   1.000  S
  S34      1.0000 0.57663  0.22745  0.20177  Biso   1.000  S
  S35      1.0000 0.67337  0.22745  0.04823  Biso   1.000  S
  S36      1.0000 0.57663  0.02255  0.04823  Biso   1.000  S
  S37      1.0000 0.67337  0.52255  0.70177  Biso   1.000  S
  S38      1.0000 0.57663  0.72745  0.70177  Biso   1.000  S
  S39      1.0000 0.67337  0.72745  0.54823  Biso   1.000  S
  S40      1.0000 0.57663  0.52255  0.54823  Biso   1.000  S
  S41      1.0000 0.17337  0.02255  0.70177  Biso   1.000  S
  S42      1.0000 0.07663  0.22745  0.70177  Biso   1.000  S
  S43      1.0000 0.17337  0.22745  0.54823  Biso   1.000  S
  S44      1.0000 0.07663  0.02255  0.54823  Biso   1.000  S
  S45      1.0000 0.17337  0.52255  0.20177  Biso   1.000  S
  S46      1.0000 0.07663  0.72745  0.20177  Biso   1.000  S
  S47      1.0000 0.17337  0.72745  0.04823  Biso   1.000  S
  S48      1.0000 0.07663  0.52255  0.04823  Biso   1.000  S
  S49      1.0000 0.32663  0.97745  0.79823  Biso   1.000  S
  S50      1.0000 0.92337  0.27255  0.79823  Biso   1.000  S
  S51      1.0000 0.32663  0.27255  0.45177  Biso   1.000  S
  S52      1.0000 0.92337  0.97745  0.45177  Biso   1.000  S
  S53      1.0000 0.32663  0.47745  0.29823  Biso   1.000  S
  S54      1.0000 0.92337  0.77255  0.29823  Biso   1.000  S
  S55      1.0000 0.32663  0.77255  0.95177  Biso   1.000  S
  S56      1.0000 0.92337  0.47745  0.95177  Biso   1.000  S
  S57      1.0000 0.82663  0.97745  0.29823  Biso   1.000  S
  S58      1.0000 0.42337  0.27255  0.29823  Biso   1.000  S
  S59      1.0000 0.82663  0.27255  0.95177  Biso   1.000  S
  S60      1.0000 0.42337  0.97745  0.95177  Biso   1.000  S
  S61      1.0000 0.82663  0.47745  0.79823  Biso   1.000  S
  S62      1.0000 0.42337  0.77255  0.79823  Biso   1.000  S
  S63      1.0000 0.82663  0.77255  0.45177  Biso   1.000  S
  S64      1.0000 0.42337  0.47745  0.45177  Biso   1.000  S
  O161     1.0000 0.67990  0.99600  0.18080  Biso   1.000  O
  O162     1.0000 0.57010  0.25400  0.18080  Biso   1.000  O
  O163     1.0000 0.67990  0.25400  0.06920  Biso   1.000  O
  O164     1.0000 0.57010  0.99600  0.06920  Biso   1.000  O
  O165     1.0000 0.67990  0.49600  0.68080  Biso   1.000  O
  O166     1.0000 0.57010  0.75400  0.68080  Biso   1.000  O
  O167     1.0000 0.67990  0.75400  0.56920  Biso   1.000  O
  O168     1.0000 0.57010  0.49600  0.56920  Biso   1.000  O
  O169     1.0000 0.17990  0.99600  0.68080  Biso   1.000  O
  O170     1.0000 0.07010  0.25400  0.68080  Biso   1.000  O
  O171     1.0000 0.17990  0.25400  0.56920  Biso   1.000  O
  O172     1.0000 0.07010  0.99600  0.56920  Biso   1.000  O
  O173     1.0000 0.17990  0.49600  0.18080  Biso   1.000  O
  O174     1.0000 0.07010  0.75400  0.18080  Biso   1.000  O
  O175     1.0000 0.17990  0.75400  0.06920  Biso   1.000  O
  O176     1.0000 0.07010  0.49600  0.06920  Biso   1.000  O
  O177     1.0000 0.32010  0.00400  0.81920  Biso   1.000  O
  O178     1.0000 0.92990  0.24600  0.81920  Biso   1.000  O
  O179     1.0000 0.32010  0.24600  0.43080  Biso   1.000  O
  O180     1.0000 0.92990  0.00400  0.43080  Biso   1.000  O
  O181     1.0000 0.32010  0.50400  0.31920  Biso   1.000  O
  O182     1.0000 0.92990  0.74600  0.31920  Biso   1.000  O
  O183     1.0000 0.32010  0.74600  0.93080  Biso   1.000  O
  O184     1.0000 0.92990  0.50400  0.93080  Biso   1.000  O
  O185     1.0000 0.82010  0.00400  0.31920  Biso   1.000  O
  O186     1.0000 0.42990  0.24600  0.31920  Biso   1.000  O
  O187     1.0000 0.82010  0.24600  0.93080  Biso   1.000  O
  O188     1.0000 0.42990  0.00400  0.93080  Biso   1.000  O
  O189     1.0000 0.82010  0.50400  0.81920  Biso   1.000  O
  O190     1.0000 0.42990  0.74600  0.81920  Biso   1.000  O
  O191     1.0000 0.82010  0.74600  0.43080  Biso   1.000  O
  O192     1.0000 0.42990  0.50400  0.43080  Biso   1.000  O
  F97      1.0000 0.66170  0.08340  0.19250  Biso   1.000  F
  F98      1.0000 0.58830  0.16660  0.19250  Biso   1.000  F
  F99      1.0000 0.66170  0.16660  0.05750  Biso   1.000  F
  F100     1.0000 0.58830  0.08340  0.05750  Biso   1.000  F
  F101     1.0000 0.66170  0.58340  0.69250  Biso   1.000  F
  F102     1.0000 0.58830  0.66660  0.69250  Biso   1.000  F
  F103     1.0000 0.66170  0.66660  0.55750  Biso   1.000  F
  F104     1.0000 0.58830  0.58340  0.55750  Biso   1.000  F
  F105     1.0000 0.16170  0.08340  0.69250  Biso   1.000  F
  F106     1.0000 0.08830  0.16660  0.69250  Biso   1.000  F
  F107     1.0000 0.16170  0.16660  0.55750  Biso   1.000  F
  F108     1.0000 0.08830  0.08340  0.55750  Biso   1.000  F
  F109     1.0000 0.16170  0.58340  0.19250  Biso   1.000  F
  F110     1.0000 0.08830  0.66660  0.19250  Biso   1.000  F
  F111     1.0000 0.16170  0.66660  0.05750  Biso   1.000  F
  F112     1.0000 0.08830  0.58340  0.05750  Biso   1.000  F
  F113     1.0000 0.33830  0.91660  0.80750  Biso   1.000  F
  F114     1.0000 0.91170  0.33340  0.80750  Biso   1.000  F
  F115     1.0000 0.33830  0.33340  0.44250  Biso   1.000  F
  F116     1.0000 0.91170  0.91660  0.44250  Biso   1.000  F
  F117     1.0000 0.33830  0.41660  0.30750  Biso   1.000  F
  F118     1.0000 0.91170  0.83340  0.30750  Biso   1.000  F
  F119     1.0000 0.33830  0.83340  0.94250  Biso   1.000  F
  F120     1.0000 0.91170  0.41660  0.94250  Biso   1.000  F
  F121     1.0000 0.83830  0.91660  0.30750  Biso   1.000  F
  F122     1.0000 0.41170  0.33340  0.30750  Biso   1.000  F
  F123     1.0000 0.83830  0.33340  0.94250  Biso   1.000  F
  F124     1.0000 0.41170  0.91660  0.94250  Biso   1.000  F
  F125     1.0000 0.83830  0.41660  0.80750  Biso   1.000  F
  F126     1.0000 0.41170  0.83340  0.80750  Biso   1.000  F
  F127     1.0000 0.83830  0.83340  0.44250  Biso   1.000  F
  F128     1.0000 0.41170  0.41660  0.44250  Biso   1.000  F
  F129     1.0000 0.73130  0.05770  0.15610  Biso   1.000  F
  F130     1.0000 0.51870  0.19230  0.15610  Biso   1.000  F
  F131     1.0000 0.73130  0.19230  0.09390  Biso   1.000  F
  F132     1.0000 0.51870  0.05770  0.09390  Biso   1.000  F
  F133     1.0000 0.73130  0.55770  0.65610  Biso   1.000  F
  F134     1.0000 0.51870  0.69230  0.65610  Biso   1.000  F
  F135     1.0000 0.73130  0.69230  0.59390  Biso   1.000  F
  F136     1.0000 0.51870  0.55770  0.59390  Biso   1.000  F
  F137     1.0000 0.23130  0.05770  0.65610  Biso   1.000  F
  F138     1.0000 0.01870  0.19230  0.65610  Biso   1.000  F
  F139     1.0000 0.23130  0.19230  0.59390  Biso   1.000  F
  F140     1.0000 0.01870  0.05770  0.59390  Biso   1.000  F
  F141     1.0000 0.23130  0.55770  0.15610  Biso   1.000  F
  F142     1.0000 0.01870  0.69230  0.15610  Biso   1.000  F
  F143     1.0000 0.23130  0.69230  0.09390  Biso   1.000  F
  F144     1.0000 0.01870  0.55770  0.09390  Biso   1.000  F
  F145     1.0000 0.26870  0.94230  0.84390  Biso   1.000  F
  F146     1.0000 0.98130  0.30770  0.84390  Biso   1.000  F
  F147     1.0000 0.26870  0.30770  0.40610  Biso   1.000  F
  F148     1.0000 0.98130  0.94230  0.40610  Biso   1.000  F
  F149     1.0000 0.26870  0.44230  0.34390  Biso   1.000  F
  F150     1.0000 0.98130  0.80770  0.34390  Biso   1.000  F
  F151     1.0000 0.26870  0.80770  0.90610  Biso   1.000  F
  F152     1.0000 0.98130  0.44230  0.90610  Biso   1.000  F
  F153     1.0000 0.76870  0.94230  0.34390  Biso   1.000  F
  F154     1.0000 0.48130  0.30770  0.34390  Biso   1.000  F
  F155     1.0000 0.76870  0.30770  0.90610  Biso   1.000  F
  F156     1.0000 0.48130  0.94230  0.90610  Biso   1.000  F
  F157     1.0000 0.76870  0.44230  0.84390  Biso   1.000  F
  F158     1.0000 0.48130  0.80770  0.84390  Biso   1.000  F
  F159     1.0000 0.76870  0.80770  0.40610  Biso   1.000  F
  F160     1.0000 0.48130  0.44230  0.40610  Biso   1.000  F
  F161     1.0000 0.59660  0.05700  0.15970  Biso   1.000  F
  F162     1.0000 0.65340  0.19300  0.15970  Biso   1.000  F
  F163     1.0000 0.59660  0.19300  0.09030  Biso   1.000  F
  F164     1.0000 0.65340  0.05700  0.09030  Biso   1.000  F
  F165     1.0000 0.59660  0.55700  0.65970  Biso   1.000  F
  F166     1.0000 0.65340  0.69300  0.65970  Biso   1.000  F
  F167     1.0000 0.59660  0.69300  0.59030  Biso   1.000  F
  F168     1.0000 0.65340  0.55700  0.59030  Biso   1.000  F
  F169     1.0000 0.09660  0.05700  0.65970  Biso   1.000  F
  F170     1.0000 0.15340  0.19300  0.65970  Biso   1.000  F
  F171     1.0000 0.09660  0.19300  0.59030  Biso   1.000  F
  F172     1.0000 0.15340  0.05700  0.59030  Biso   1.000  F
  F173     1.0000 0.09660  0.55700  0.15970  Biso   1.000  F
  F174     1.0000 0.15340  0.69300  0.15970  Biso   1.000  F
  F175     1.0000 0.09660  0.69300  0.09030  Biso   1.000  F
  F176     1.0000 0.15340  0.55700  0.09030  Biso   1.000  F
  F177     1.0000 0.40340  0.94300  0.84030  Biso   1.000  F
  F178     1.0000 0.84660  0.30700  0.84030  Biso   1.000  F
  F179     1.0000 0.40340  0.30700  0.40970  Biso   1.000  F
  F180     1.0000 0.84660  0.94300  0.40970  Biso   1.000  F
  F181     1.0000 0.40340  0.44300  0.34030  Biso   1.000  F
  F182     1.0000 0.84660  0.80700  0.34030  Biso   1.000  F
  F183     1.0000 0.40340  0.80700  0.90970  Biso   1.000  F
  F184     1.0000 0.84660  0.44300  0.90970  Biso   1.000  F
  F185     1.0000 0.90340  0.94300  0.34030  Biso   1.000  F
  F186     1.0000 0.34660  0.30700  0.34030  Biso   1.000  F
  F187     1.0000 0.90340  0.30700  0.90970  Biso   1.000  F
  F188     1.0000 0.34660  0.94300  0.90970  Biso   1.000  F
  F189     1.0000 0.90340  0.44300  0.84030  Biso   1.000  F
  F190     1.0000 0.34660  0.80700  0.84030  Biso   1.000  F
  F191     1.0000 0.90340  0.80700  0.40970  Biso   1.000  F
  F192     1.0000 0.34660  0.44300  0.40970  Biso   1.000  F
  O193     1.0000 0.38670  0.97710  0.25340  Biso   1.000  O
  O194     1.0000 0.86330  0.27290  0.25340  Biso   1.000  O
  O195     1.0000 0.38670  0.27290  0.99660  Biso   1.000  O
  O196     1.0000 0.86330  0.97710  0.99660  Biso   1.000  O
  O197     1.0000 0.38670  0.47710  0.75340  Biso   1.000  O
  O198     1.0000 0.86330  0.77290  0.75340  Biso   1.000  O
  O199     1.0000 0.38670  0.77290  0.49660  Biso   1.000  O
  O200     1.0000 0.86330  0.47710  0.49660  Biso   1.000  O
  O201     1.0000 0.88670  0.97710  0.75340  Biso   1.000  O
  O202     1.0000 0.36330  0.27290  0.75340  Biso   1.000  O
  O203     1.0000 0.88670  0.27290  0.49660  Biso   1.000  O
  O204     1.0000 0.36330  0.97710  0.49660  Biso   1.000  O
  O205     1.0000 0.88670  0.47710  0.25340  Biso   1.000  O
  O206     1.0000 0.36330  0.77290  0.25340  Biso   1.000  O
  O207     1.0000 0.88670  0.77290  0.99660  Biso   1.000  O
  O208     1.0000 0.36330  0.47710  0.99660  Biso   1.000  O
  O209     1.0000 0.61330  0.02290  0.74660  Biso   1.000  O
  O210     1.0000 0.63670  0.22710  0.74660  Biso   1.000  O
  O211     1.0000 0.61330  0.22710  0.50340  Biso   1.000  O
  O212     1.0000 0.63670  0.02290  0.50340  Biso   1.000  O
  O213     1.0000 0.61330  0.52290  0.24660  Biso   1.000  O
  O214     1.0000 0.63670  0.72710  0.24660  Biso   1.000  O
  O215     1.0000 0.61330  0.72710  0.00340  Biso   1.000  O
  O216     1.0000 0.63670  0.52290  0.00340  Biso   1.000  O
  O217     1.0000 0.11330  0.02290  0.24660  Biso   1.000  O
  O218     1.0000 0.13670  0.22710  0.24660  Biso   1.000  O
  O219     1.0000 0.11330  0.22710  0.00340  Biso   1.000  O
  O220     1.0000 0.13670  0.02290  0.00340  Biso   1.000  O
  O221     1.0000 0.11330  0.52290  0.74660  Biso   1.000  O
  O222     1.0000 0.13670  0.72710  0.74660  Biso   1.000  O
  O223     1.0000 0.11330  0.72710  0.50340  Biso   1.000  O
  O224     1.0000 0.13670  0.52290  0.50340  Biso   1.000  O
  S65      1.0000 0.34950  0.93635  0.32940  Biso   1.000  S
  S66      1.0000 0.90050  0.31365  0.32940  Biso   1.000  S
  S67      1.0000 0.34950  0.31365  0.92060  Biso   1.000  S
  S68      1.0000 0.90050  0.93635  0.92060  Biso   1.000  S
  S69      1.0000 0.34950  0.43635  0.82940  Biso   1.000  S
  S70      1.0000 0.90050  0.81365  0.82940  Biso   1.000  S
  S71      1.0000 0.34950  0.81365  0.42060  Biso   1.000  S
  S72      1.0000 0.90050  0.43635  0.42060  Biso   1.000  S
  S73      1.0000 0.84950  0.93635  0.82940  Biso   1.000  S
  S74      1.0000 0.40050  0.31365  0.82940  Biso   1.000  S
  S75      1.0000 0.84950  0.31365  0.42060  Biso   1.000  S
  S76      1.0000 0.40050  0.93635  0.42060  Biso   1.000  S
  S77      1.0000 0.84950  0.43635  0.32940  Biso   1.000  S
  S78      1.0000 0.40050  0.81365  0.32940  Biso   1.000  S
  S79      1.0000 0.84950  0.81365  0.92060  Biso   1.000  S
  S80      1.0000 0.40050  0.43635  0.92060  Biso   1.000  S
  S81      1.0000 0.65050  0.06365  0.67060  Biso   1.000  S
  S82      1.0000 0.59950  0.18635  0.67060  Biso   1.000  S
  S83      1.0000 0.65050  0.18635  0.57940  Biso   1.000  S
  S84      1.0000 0.59950  0.06365  0.57940  Biso   1.000  S
  S85      1.0000 0.65050  0.56365  0.17060  Biso   1.000  S
  S86      1.0000 0.59950  0.68635  0.17060  Biso   1.000  S
  S87      1.0000 0.65050  0.68635  0.07940  Biso   1.000  S
  S88      1.0000 0.59950  0.56365  0.07940  Biso   1.000  S
  S89      1.0000 0.15050  0.06365  0.17060  Biso   1.000  S
  S90      1.0000 0.09950  0.18635  0.17060  Biso   1.000  S
  S91      1.0000 0.15050  0.18635  0.07940  Biso   1.000  S
  S92      1.0000 0.09950  0.06365  0.07940  Biso   1.000  S
  S93      1.0000 0.15050  0.56365  0.67060  Biso   1.000  S
  S94      1.0000 0.09950  0.68635  0.67060  Biso   1.000  S
  S95      1.0000 0.15050  0.68635  0.57940  Biso   1.000  S
  S96      1.0000 0.09950  0.56365  0.57940  Biso   1.000  S
  O225     1.0000 0.31810  0.93650  0.35970  Biso   1.000  O
  O226     1.0000 0.93190  0.31350  0.35970  Biso   1.000  O
  O227     1.0000 0.31810  0.31350  0.89030  Biso   1.000  O
  O228     1.0000 0.93190  0.93650  0.89030  Biso   1.000  O
  O229     1.0000 0.31810  0.43650  0.85970  Biso   1.000  O
  O230     1.0000 0.93190  0.81350  0.85970  Biso   1.000  O
  O231     1.0000 0.31810  0.81350  0.39030  Biso   1.000  O
  O232     1.0000 0.93190  0.43650  0.39030  Biso   1.000  O
  O233     1.0000 0.81810  0.93650  0.85970  Biso   1.000  O
  O234     1.0000 0.43190  0.31350  0.85970  Biso   1.000  O
  O235     1.0000 0.81810  0.31350  0.39030  Biso   1.000  O
  O236     1.0000 0.43190  0.93650  0.39030  Biso   1.000  O
  O237     1.0000 0.81810  0.43650  0.35970  Biso   1.000  O
  O238     1.0000 0.43190  0.81350  0.35970  Biso   1.000  O
  O239     1.0000 0.81810  0.81350  0.89030  Biso   1.000  O
  O240     1.0000 0.43190  0.43650  0.89030  Biso   1.000  O
  O241     1.0000 0.68190  0.06350  0.64030  Biso   1.000  O
  O242     1.0000 0.56810  0.18650  0.64030  Biso   1.000  O
  O243     1.0000 0.68190  0.18650  0.60970  Biso   1.000  O
  O244     1.0000 0.56810  0.06350  0.60970  Biso   1.000  O
  O245     1.0000 0.68190  0.56350  0.14030  Biso   1.000  O
  O246     1.0000 0.56810  0.68650  0.14030  Biso   1.000  O
  O247     1.0000 0.68190  0.68650  0.10970  Biso   1.000  O
  O248     1.0000 0.56810  0.56350  0.10970  Biso   1.000  O
  O249     1.0000 0.18190  0.06350  0.14030  Biso   1.000  O
  O250     1.0000 0.06810  0.18650  0.14030  Biso   1.000  O
  O251     1.0000 0.18190  0.18650  0.10970  Biso   1.000  O
  O252     1.0000 0.06810  0.06350  0.10970  Biso   1.000  O
  O253     1.0000 0.18190  0.56350  0.64030  Biso   1.000  O
  O254     1.0000 0.06810  0.68650  0.64030  Biso   1.000  O
  O255     1.0000 0.18190  0.68650  0.60970  Biso   1.000  O
  O256     1.0000 0.06810  0.56350  0.60970  Biso   1.000  O
  O257     1.0000 0.42070  0.91990  0.32600  Biso   1.000  O
  O258     1.0000 0.82930  0.33010  0.32600  Biso   1.000  O
  O259     1.0000 0.42070  0.33010  0.92400  Biso   1.000  O
  O260     1.0000 0.82930  0.91990  0.92400  Biso   1.000  O
  O261     1.0000 0.42070  0.41990  0.82600  Biso   1.000  O
  O262     1.0000 0.82930  0.83010  0.82600  Biso   1.000  O
  O263     1.0000 0.42070  0.83010  0.42400  Biso   1.000  O
  O264     1.0000 0.82930  0.41990  0.42400  Biso   1.000  O
  O265     1.0000 0.92070  0.91990  0.82600  Biso   1.000  O
  O266     1.0000 0.32930  0.33010  0.82600  Biso   1.000  O
  O267     1.0000 0.92070  0.33010  0.42400  Biso   1.000  O
  O268     1.0000 0.32930  0.91990  0.42400  Biso   1.000  O
  O269     1.0000 0.92070  0.41990  0.32600  Biso   1.000  O
  O270     1.0000 0.32930  0.83010  0.32600  Biso   1.000  O
  O271     1.0000 0.92070  0.83010  0.92400  Biso   1.000  O
  O272     1.0000 0.32930  0.41990  0.92400  Biso   1.000  O
  O273     1.0000 0.57930  0.08010  0.67400  Biso   1.000  O
  O274     1.0000 0.67070  0.16990  0.67400  Biso   1.000  O
  O275     1.0000 0.57930  0.16990  0.57600  Biso   1.000  O
  O276     1.0000 0.67070  0.08010  0.57600  Biso   1.000  O
  O277     1.0000 0.57930  0.58010  0.17400  Biso   1.000  O
  O278     1.0000 0.67070  0.66990  0.17400  Biso   1.000  O
  O279     1.0000 0.57930  0.66990  0.07600  Biso   1.000  O
  O280     1.0000 0.67070  0.58010  0.07600  Biso   1.000  O
  O281     1.0000 0.07930  0.08010  0.17400  Biso   1.000  O
  O282     1.0000 0.17070  0.16990  0.17400  Biso   1.000  O
  O283     1.0000 0.07930  0.16990  0.07600  Biso   1.000  O
  O284     1.0000 0.17070  0.08010  0.07600  Biso   1.000  O
  O285     1.0000 0.07930  0.58010  0.67400  Biso   1.000  O
  O286     1.0000 0.17070  0.66990  0.67400  Biso   1.000  O
  O287     1.0000 0.07930  0.66990  0.57600  Biso   1.000  O
  O288     1.0000 0.17070  0.58010  0.57600  Biso   1.000  O
  O289     1.0000 0.34900  0.96630  0.31420  Biso   1.000  O
  O290     1.0000 0.90100  0.28370  0.31420  Biso   1.000  O
  O291     1.0000 0.34900  0.28370  0.93580  Biso   1.000  O
  O292     1.0000 0.90100  0.96630  0.93580  Biso   1.000  O
  O293     1.0000 0.34900  0.46630  0.81420  Biso   1.000  O
  O294     1.0000 0.90100  0.78370  0.81420  Biso   1.000  O
  O295     1.0000 0.34900  0.78370  0.43580  Biso   1.000  O
  O296     1.0000 0.90100  0.46630  0.43580  Biso   1.000  O
  O297     1.0000 0.84900  0.96630  0.81420  Biso   1.000  O
  O298     1.0000 0.40100  0.28370  0.81420  Biso   1.000  O
  O299     1.0000 0.84900  0.28370  0.43580  Biso   1.000  O
  O300     1.0000 0.40100  0.96630  0.43580  Biso   1.000  O
  O301     1.0000 0.84900  0.46630  0.31420  Biso   1.000  O
  O302     1.0000 0.40100  0.78370  0.31420  Biso   1.000  O
  O303     1.0000 0.84900  0.78370  0.93580  Biso   1.000  O
  O304     1.0000 0.40100  0.46630  0.93580  Biso   1.000  O
  O305     1.0000 0.65100  0.03370  0.68580  Biso   1.000  O
  O306     1.0000 0.59900  0.21630  0.68580  Biso   1.000  O
  O307     1.0000 0.65100  0.21630  0.56420  Biso   1.000  O
  O308     1.0000 0.59900  0.03370  0.56420  Biso   1.000  O
  O309     1.0000 0.65100  0.53370  0.18580  Biso   1.000  O
  O310     1.0000 0.59900  0.71630  0.18580  Biso   1.000  O
  O311     1.0000 0.65100  0.71630  0.06420  Biso   1.000  O
  O312     1.0000 0.59900  0.53370  0.06420  Biso   1.000  O
  O313     1.0000 0.15100  0.03370  0.18580  Biso   1.000  O
  O314     1.0000 0.09900  0.21630  0.18580  Biso   1.000  O
  O315     1.0000 0.15100  0.21630  0.06420  Biso   1.000  O
  O316     1.0000 0.09900  0.03370  0.06420  Biso   1.000  O
  O317     1.0000 0.15100  0.53370  0.68580  Biso   1.000  O
  O318     1.0000 0.09900  0.71630  0.68580  Biso   1.000  O
  O319     1.0000 0.15100  0.71630  0.56420  Biso   1.000  O
  O320     1.0000 0.09900  0.53370  0.56420  Biso   1.000  O
  C705     1.0000 0.29560  0.91220  0.30480  Biso   1.000  C
  C706     1.0000 0.95440  0.33780  0.30480  Biso   1.000  C
  C707     1.0000 0.29560  0.33780  0.94520  Biso   1.000  C
  C708     1.0000 0.95440  0.91220  0.94520  Biso   1.000  C
  C709     1.0000 0.29560  0.41220  0.80480  Biso   1.000  C
  C710     1.0000 0.95440  0.83780  0.80480  Biso   1.000  C
  C711     1.0000 0.29560  0.83780  0.44520  Biso   1.000  C
  C712     1.0000 0.95440  0.41220  0.44520  Biso   1.000  C
  C713     1.0000 0.79560  0.91220  0.80480  Biso   1.000  C
  C714     1.0000 0.45440  0.33780  0.80480  Biso   1.000  C
  C715     1.0000 0.79560  0.33780  0.44520  Biso   1.000  C
  C716     1.0000 0.45440  0.91220  0.44520  Biso   1.000  C
  C717     1.0000 0.79560  0.41220  0.30480  Biso   1.000  C
  C718     1.0000 0.45440  0.83780  0.30480  Biso   1.000  C
  C719     1.0000 0.79560  0.83780  0.94520  Biso   1.000  C
  C720     1.0000 0.45440  0.41220  0.94520  Biso   1.000  C
  C721     1.0000 0.70440  0.08780  0.69520  Biso   1.000  C
  C722     1.0000 0.54560  0.16220  0.69520  Biso   1.000  C
  C723     1.0000 0.70440  0.16220  0.55480  Biso   1.000  C
  C724     1.0000 0.54560  0.08780  0.55480  Biso   1.000  C
  C725     1.0000 0.70440  0.58780  0.19520  Biso   1.000  C
  C726     1.0000 0.54560  0.66220  0.19520  Biso   1.000  C
  C727     1.0000 0.70440  0.66220  0.05480  Biso   1.000  C
  C728     1.0000 0.54560  0.58780  0.05480  Biso   1.000  C
  C729     1.0000 0.20440  0.08780  0.19520  Biso   1.000  C
  C730     1.0000 0.04560  0.16220  0.19520  Biso   1.000  C
  C731     1.0000 0.20440  0.16220  0.05480  Biso   1.000  C
  C732     1.0000 0.04560  0.08780  0.05480  Biso   1.000  C
  C733     1.0000 0.20440  0.58780  0.69520  Biso   1.000  C
  C734     1.0000 0.04560  0.66220  0.69520  Biso   1.000  C
  C735     1.0000 0.20440  0.66220  0.55480  Biso   1.000  C
  C736     1.0000 0.04560  0.58780  0.55480  Biso   1.000  C
  F193     1.0000 0.32400  0.90860  0.27530  Biso   1.000  F
  F194     1.0000 0.92600  0.34140  0.27530  Biso   1.000  F
  F195     1.0000 0.32400  0.34140  0.97470  Biso   1.000  F
  F196     1.0000 0.92600  0.90860  0.97470  Biso   1.000  F
  F197     1.0000 0.32400  0.40860  0.77530  Biso   1.000  F
  F198     1.0000 0.92600  0.84140  0.77530  Biso   1.000  F
  F199     1.0000 0.32400  0.84140  0.47470  Biso   1.000  F
  F200     1.0000 0.92600  0.40860  0.47470  Biso   1.000  F
  F201     1.0000 0.82400  0.90860  0.77530  Biso   1.000  F
  F202     1.0000 0.42600  0.34140  0.77530  Biso   1.000  F
  F203     1.0000 0.82400  0.34140  0.47470  Biso   1.000  F
  F204     1.0000 0.42600  0.90860  0.47470  Biso   1.000  F
  F205     1.0000 0.82400  0.40860  0.27530  Biso   1.000  F
  F206     1.0000 0.42600  0.84140  0.27530  Biso   1.000  F
  F207     1.0000 0.82400  0.84140  0.97470  Biso   1.000  F
  F208     1.0000 0.42600  0.40860  0.97470  Biso   1.000  F
  F209     1.0000 0.67600  0.09140  0.72470  Biso   1.000  F
  F210     1.0000 0.57400  0.15860  0.72470  Biso   1.000  F
  F211     1.0000 0.67600  0.15860  0.52530  Biso   1.000  F
  F212     1.0000 0.57400  0.09140  0.52530  Biso   1.000  F
  F213     1.0000 0.67600  0.59140  0.22470  Biso   1.000  F
  F214     1.0000 0.57400  0.65860  0.22470  Biso   1.000  F
  F215     1.0000 0.67600  0.65860  0.02530  Biso   1.000  F
  F216     1.0000 0.57400  0.59140  0.02530  Biso   1.000  F
  F217     1.0000 0.17600  0.09140  0.22470  Biso   1.000  F
  F218     1.0000 0.07400  0.15860  0.22470  Biso   1.000  F
  F219     1.0000 0.17600  0.15860  0.02530  Biso   1.000  F
  F220     1.0000 0.07400  0.09140  0.02530  Biso   1.000  F
  F221     1.0000 0.17600  0.59140  0.72470  Biso   1.000  F
  F222     1.0000 0.07400  0.65860  0.72470  Biso   1.000  F
  F223     1.0000 0.17600  0.65860  0.52530  Biso   1.000  F
  F224     1.0000 0.07400  0.59140  0.52530  Biso   1.000  F
  F225     1.0000 0.26800  0.88330  0.31300  Biso   1.000  F
  F226     1.0000 0.98200  0.36670  0.31300  Biso   1.000  F
  F227     1.0000 0.26800  0.36670  0.93700  Biso   1.000  F
  F228     1.0000 0.98200  0.88330  0.93700  Biso   1.000  F
  F229     1.0000 0.26800  0.38330  0.81300  Biso   1.000  F
  F230     1.0000 0.98200  0.86670  0.81300  Biso   1.000  F
  F231     1.0000 0.26800  0.86670  0.43700  Biso   1.000  F
  F232     1.0000 0.98200  0.38330  0.43700  Biso   1.000  F
  F233     1.0000 0.76800  0.88330  0.81300  Biso   1.000  F
  F234     1.0000 0.48200  0.36670  0.81300  Biso   1.000  F
  F235     1.0000 0.76800  0.36670  0.43700  Biso   1.000  F
  F236     1.0000 0.48200  0.88330  0.43700  Biso   1.000  F
  F237     1.0000 0.76800  0.38330  0.31300  Biso   1.000  F
  F238     1.0000 0.48200  0.86670  0.31300  Biso   1.000  F
  F239     1.0000 0.76800  0.86670  0.93700  Biso   1.000  F
  F240     1.0000 0.48200  0.38330  0.93700  Biso   1.000  F
  F241     1.0000 0.73200  0.11670  0.68700  Biso   1.000  F
  F242     1.0000 0.51800  0.13330  0.68700  Biso   1.000  F
  F243     1.0000 0.73200  0.13330  0.56300  Biso   1.000  F
  F244     1.0000 0.51800  0.11670  0.56300  Biso   1.000  F
  F245     1.0000 0.73200  0.61670  0.18700  Biso   1.000  F
  F246     1.0000 0.51800  0.63330  0.18700  Biso   1.000  F
  F247     1.0000 0.73200  0.63330  0.06300  Biso   1.000  F
  F248     1.0000 0.51800  0.61670  0.06300  Biso   1.000  F
  F249     1.0000 0.23200  0.11670  0.18700  Biso   1.000  F
  F250     1.0000 0.01800  0.13330  0.18700  Biso   1.000  F
  F251     1.0000 0.23200  0.13330  0.06300  Biso   1.000  F
  F252     1.0000 0.01800  0.11670  0.06300  Biso   1.000  F
  F253     1.0000 0.23200  0.61670  0.68700  Biso   1.000  F
  F254     1.0000 0.01800  0.63330  0.68700  Biso   1.000  F
  F255     1.0000 0.23200  0.63330  0.56300  Biso   1.000  F
  F256     1.0000 0.01800  0.61670  0.56300  Biso   1.000  F
  F257     1.0000 0.22800  0.92940  0.30040  Biso   1.000  F
  F258     1.0000 0.02200  0.32060  0.30040  Biso   1.000  F
  F259     1.0000 0.22800  0.32060  0.94960  Biso   1.000  F
  F260     1.0000 0.02200  0.92940  0.94960  Biso   1.000  F
  F261     1.0000 0.22800  0.42940  0.80040  Biso   1.000  F
  F262     1.0000 0.02200  0.82060  0.80040  Biso   1.000  F
  F263     1.0000 0.22800  0.82060  0.44960  Biso   1.000  F
  F264     1.0000 0.02200  0.42940  0.44960  Biso   1.000  F
  F265     1.0000 0.72800  0.92940  0.80040  Biso   1.000  F
  F266     1.0000 0.52200  0.32060  0.80040  Biso   1.000  F
  F267     1.0000 0.72800  0.32060  0.44960  Biso   1.000  F
  F268     1.0000 0.52200  0.92940  0.44960  Biso   1.000  F
  F269     1.0000 0.72800  0.42940  0.30040  Biso   1.000  F
  F270     1.0000 0.52200  0.82060  0.30040  Biso   1.000  F
  F271     1.0000 0.72800  0.82060  0.94960  Biso   1.000  F
  F272     1.0000 0.52200  0.42940  0.94960  Biso   1.000  F
  F273     1.0000 0.77200  0.07060  0.69960  Biso   1.000  F
  F274     1.0000 0.47800  0.17940  0.69960  Biso   1.000  F
  F275     1.0000 0.77200  0.17940  0.55040  Biso   1.000  F
  F276     1.0000 0.47800  0.07060  0.55040  Biso   1.000  F
  F277     1.0000 0.77200  0.57060  0.19960  Biso   1.000  F
  F278     1.0000 0.47800  0.67940  0.19960  Biso   1.000  F
  F279     1.0000 0.77200  0.67940  0.05040  Biso   1.000  F
  F280     1.0000 0.47800  0.57060  0.05040  Biso   1.000  F
  F281     1.0000 0.27200  0.07060  0.19960  Biso   1.000  F
  F282     1.0000 0.97800  0.17940  0.19960  Biso   1.000  F
  F283     1.0000 0.27200  0.17940  0.05040  Biso   1.000  F
  F284     1.0000 0.97800  0.07060  0.05040  Biso   1.000  F
  F285     1.0000 0.27200  0.57060  0.69960  Biso   1.000  F
  F286     1.0000 0.97800  0.67940  0.69960  Biso   1.000  F
  F287     1.0000 0.27200  0.67940  0.55040  Biso   1.000  F
  F288     1.0000 0.97800  0.57060  0.55040  Biso   1.000  F
  S97      1.0000 0.66936  0.04020  0.21361  Biso   1.000  S
  S98      1.0000 0.58064  0.20980  0.21361  Biso   1.000  S
  S99      1.0000 0.66936  0.20980  0.03639  Biso   1.000  S
  S100     1.0000 0.58064  0.04020  0.03639  Biso   1.000  S
  S101     1.0000 0.66936  0.54020  0.71361  Biso   1.000  S
  S102     1.0000 0.58064  0.70980  0.71361  Biso   1.000  S
  S103     1.0000 0.66936  0.70980  0.53639  Biso   1.000  S
  S104     1.0000 0.58064  0.54020  0.53639  Biso   1.000  S
  S105     1.0000 0.16936  0.04020  0.71361  Biso   1.000  S
  S106     1.0000 0.08064  0.20980  0.71361  Biso   1.000  S
  S107     1.0000 0.16936  0.20980  0.53639  Biso   1.000  S
  S108     1.0000 0.08064  0.04020  0.53639  Biso   1.000  S
  S109     1.0000 0.16936  0.54020  0.21361  Biso   1.000  S
  S110     1.0000 0.08064  0.70980  0.21361  Biso   1.000  S
  S111     1.0000 0.16936  0.70980  0.03639  Biso   1.000  S
  S112     1.0000 0.08064  0.54020  0.03639  Biso   1.000  S
  S113     1.0000 0.33064  0.95980  0.78639  Biso   1.000  S
  S114     1.0000 0.91936  0.29020  0.78639  Biso   1.000  S
  S115     1.0000 0.33064  0.29020  0.46361  Biso   1.000  S
  S116     1.0000 0.91936  0.95980  0.46361  Biso   1.000  S
  S117     1.0000 0.33064  0.45980  0.28639  Biso   1.000  S
  S118     1.0000 0.91936  0.79020  0.28639  Biso   1.000  S
  S119     1.0000 0.33064  0.79020  0.96361  Biso   1.000  S
  S120     1.0000 0.91936  0.45980  0.96361  Biso   1.000  S
  S121     1.0000 0.83064  0.95980  0.28639  Biso   1.000  S
  S122     1.0000 0.41936  0.29020  0.28639  Biso   1.000  S
  S123     1.0000 0.83064  0.29020  0.96361  Biso   1.000  S
  S124     1.0000 0.41936  0.95980  0.96361  Biso   1.000  S
  S125     1.0000 0.83064  0.45980  0.78639  Biso   1.000  S
  S126     1.0000 0.41936  0.79020  0.78639  Biso   1.000  S
  S127     1.0000 0.83064  0.79020  0.46361  Biso   1.000  S
  S128     1.0000 0.41936  0.45980  0.46361  Biso   1.000  S
  O321     1.0000 0.66310  0.06970  0.23030  Biso   1.000  O
  O322     1.0000 0.58690  0.18030  0.23030  Biso   1.000  O
  O323     1.0000 0.66310  0.18030  0.01970  Biso   1.000  O
  O324     1.0000 0.58690  0.06970  0.01970  Biso   1.000  O
  O325     1.0000 0.66310  0.56970  0.73030  Biso   1.000  O
  O326     1.0000 0.58690  0.68030  0.73030  Biso   1.000  O
  O327     1.0000 0.66310  0.68030  0.51970  Biso   1.000  O
  O328     1.0000 0.58690  0.56970  0.51970  Biso   1.000  O
  O329     1.0000 0.16310  0.06970  0.73030  Biso   1.000  O
  O330     1.0000 0.08690  0.18030  0.73030  Biso   1.000  O
  O331     1.0000 0.16310  0.18030  0.51970  Biso   1.000  O
  O332     1.0000 0.08690  0.06970  0.51970  Biso   1.000  O
  O333     1.0000 0.16310  0.56970  0.23030  Biso   1.000  O
  O334     1.0000 0.08690  0.68030  0.23030  Biso   1.000  O
  O335     1.0000 0.16310  0.68030  0.01970  Biso   1.000  O
  O336     1.0000 0.08690  0.56970  0.01970  Biso   1.000  O
  O337     1.0000 0.33690  0.93030  0.76970  Biso   1.000  O
  O338     1.0000 0.91310  0.31970  0.76970  Biso   1.000  O
  O339     1.0000 0.33690  0.31970  0.48030  Biso   1.000  O
  O340     1.0000 0.91310  0.93030  0.48030  Biso   1.000  O
  O341     1.0000 0.33690  0.43030  0.26970  Biso   1.000  O
  O342     1.0000 0.91310  0.81970  0.26970  Biso   1.000  O
  O343     1.0000 0.33690  0.81970  0.98030  Biso   1.000  O
  O344     1.0000 0.91310  0.43030  0.98030  Biso   1.000  O
  O345     1.0000 0.83690  0.93030  0.26970  Biso   1.000  O
  O346     1.0000 0.41310  0.31970  0.26970  Biso   1.000  O
  O347     1.0000 0.83690  0.31970  0.98030  Biso   1.000  O
  O348     1.0000 0.41310  0.93030  0.98030  Biso   1.000  O
  O349     1.0000 0.83690  0.43030  0.76970  Biso   1.000  O
  O350     1.0000 0.41310  0.81970  0.76970  Biso   1.000  O
  O351     1.0000 0.83690  0.81970  0.48030  Biso   1.000  O
  O352     1.0000 0.41310  0.43030  0.48030  Biso   1.000  O
  F289     1.0000 0.61170  0.06930  0.16560  Biso   1.000  F
  F290     1.0000 0.63830  0.18070  0.16560  Biso   1.000  F
  F291     1.0000 0.61170  0.18070  0.08440  Biso   1.000  F
  F292     1.0000 0.63830  0.06930  0.08440  Biso   1.000  F
  F293     1.0000 0.61170  0.56930  0.66560  Biso   1.000  F
  F294     1.0000 0.63830  0.68070  0.66560  Biso   1.000  F
  F295     1.0000 0.61170  0.68070  0.58440  Biso   1.000  F
  F296     1.0000 0.63830  0.56930  0.58440  Biso   1.000  F
  F297     1.0000 0.11170  0.06930  0.66560  Biso   1.000  F
  F298     1.0000 0.13830  0.18070  0.66560  Biso   1.000  F
  F299     1.0000 0.11170  0.18070  0.58440  Biso   1.000  F
  F300     1.0000 0.13830  0.06930  0.58440  Biso   1.000  F
  F301     1.0000 0.11170  0.56930  0.16560  Biso   1.000  F
  F302     1.0000 0.13830  0.68070  0.16560  Biso   1.000  F
  F303     1.0000 0.11170  0.68070  0.08440  Biso   1.000  F
  F304     1.0000 0.13830  0.56930  0.08440  Biso   1.000  F
  F305     1.0000 0.38830  0.93070  0.83440  Biso   1.000  F
  F306     1.0000 0.86170  0.31930  0.83440  Biso   1.000  F
  F307     1.0000 0.38830  0.31930  0.41560  Biso   1.000  F
  F308     1.0000 0.86170  0.93070  0.41560  Biso   1.000  F
  F309     1.0000 0.38830  0.43070  0.33440  Biso   1.000  F
  F310     1.0000 0.86170  0.81930  0.33440  Biso   1.000  F
  F311     1.0000 0.38830  0.81930  0.91560  Biso   1.000  F
  F312     1.0000 0.86170  0.43070  0.91560  Biso   1.000  F
  F313     1.0000 0.88830  0.93070  0.33440  Biso   1.000  F
  F314     1.0000 0.36170  0.31930  0.33440  Biso   1.000  F
  F315     1.0000 0.88830  0.31930  0.91560  Biso   1.000  F
  F316     1.0000 0.36170  0.93070  0.91560  Biso   1.000  F
  F317     1.0000 0.88830  0.43070  0.83440  Biso   1.000  F
  F318     1.0000 0.36170  0.81930  0.83440  Biso   1.000  F
  F319     1.0000 0.88830  0.81930  0.41560  Biso   1.000  F
  F320     1.0000 0.36170  0.43070  0.41560  Biso   1.000  F
  F321     1.0000 0.73510  0.07000  0.16650  Biso   1.000  F
  F322     1.0000 0.51490  0.18000  0.16650  Biso   1.000  F
  F323     1.0000 0.73510  0.18000  0.08350  Biso   1.000  F
  F324     1.0000 0.51490  0.07000  0.08350  Biso   1.000  F
  F325     1.0000 0.73510  0.57000  0.66650  Biso   1.000  F
  F326     1.0000 0.51490  0.68000  0.66650  Biso   1.000  F
  F327     1.0000 0.73510  0.68000  0.58350  Biso   1.000  F
  F328     1.0000 0.51490  0.57000  0.58350  Biso   1.000  F
  F329     1.0000 0.23510  0.07000  0.66650  Biso   1.000  F
  F330     1.0000 0.01490  0.18000  0.66650  Biso   1.000  F
  F331     1.0000 0.23510  0.18000  0.58350  Biso   1.000  F
  F332     1.0000 0.01490  0.07000  0.58350  Biso   1.000  F
  F333     1.0000 0.23510  0.57000  0.16650  Biso   1.000  F
  F334     1.0000 0.01490  0.68000  0.16650  Biso   1.000  F
  F335     1.0000 0.23510  0.68000  0.08350  Biso   1.000  F
  F336     1.0000 0.01490  0.57000  0.08350  Biso   1.000  F
  F337     1.0000 0.26490  0.93000  0.83350  Biso   1.000  F
  F338     1.0000 0.98510  0.32000  0.83350  Biso   1.000  F
  F339     1.0000 0.26490  0.32000  0.41650  Biso   1.000  F
  F340     1.0000 0.98510  0.93000  0.41650  Biso   1.000  F
  F341     1.0000 0.26490  0.43000  0.33350  Biso   1.000  F
  F342     1.0000 0.98510  0.82000  0.33350  Biso   1.000  F
  F343     1.0000 0.26490  0.82000  0.91650  Biso   1.000  F
  F344     1.0000 0.98510  0.43000  0.91650  Biso   1.000  F
  F345     1.0000 0.76490  0.93000  0.33350  Biso   1.000  F
  F346     1.0000 0.48510  0.32000  0.33350  Biso   1.000  F
  F347     1.0000 0.76490  0.32000  0.91650  Biso   1.000  F
  F348     1.0000 0.48510  0.93000  0.91650  Biso   1.000  F
  F349     1.0000 0.76490  0.43000  0.83350  Biso   1.000  F
  F350     1.0000 0.48510  0.82000  0.83350  Biso   1.000  F
  F351     1.0000 0.76490  0.82000  0.41650  Biso   1.000  F
  F352     1.0000 0.48510  0.43000  0.41650  Biso   1.000  F
  F353     1.0000 0.67290  0.02660  0.15430  Biso   1.000  F
  F354     1.0000 0.57710  0.22340  0.15430  Biso   1.000  F
  F355     1.0000 0.67290  0.22340  0.09570  Biso   1.000  F
  F356     1.0000 0.57710  0.02660  0.09570  Biso   1.000  F
  F357     1.0000 0.67290  0.52660  0.65430  Biso   1.000  F
  F358     1.0000 0.57710  0.72340  0.65430  Biso   1.000  F
  F359     1.0000 0.67290  0.72340  0.59570  Biso   1.000  F
  F360     1.0000 0.57710  0.52660  0.59570  Biso   1.000  F
  F361     1.0000 0.17290  0.02660  0.65430  Biso   1.000  F
  F362     1.0000 0.07710  0.22340  0.65430  Biso   1.000  F
  F363     1.0000 0.17290  0.22340  0.59570  Biso   1.000  F
  F364     1.0000 0.07710  0.02660  0.59570  Biso   1.000  F
  F365     1.0000 0.17290  0.52660  0.15430  Biso   1.000  F
  F366     1.0000 0.07710  0.72340  0.15430  Biso   1.000  F
  F367     1.0000 0.17290  0.72340  0.09570  Biso   1.000  F
  F368     1.0000 0.07710  0.52660  0.09570  Biso   1.000  F
  F369     1.0000 0.32710  0.97340  0.84570  Biso   1.000  F
  F370     1.0000 0.92290  0.27660  0.84570  Biso   1.000  F
  F371     1.0000 0.32710  0.27660  0.40430  Biso   1.000  F
  F372     1.0000 0.92290  0.97340  0.40430  Biso   1.000  F
  F373     1.0000 0.32710  0.47340  0.34570  Biso   1.000  F
  F374     1.0000 0.92290  0.77660  0.34570  Biso   1.000  F
  F375     1.0000 0.32710  0.77660  0.90430  Biso   1.000  F
  F376     1.0000 0.92290  0.47340  0.90430  Biso   1.000  F
  F377     1.0000 0.82710  0.97340  0.34570  Biso   1.000  F
  F378     1.0000 0.42290  0.27660  0.34570  Biso   1.000  F
  F379     1.0000 0.82710  0.27660  0.90430  Biso   1.000  F
  F380     1.0000 0.42290  0.97340  0.90430  Biso   1.000  F
  F381     1.0000 0.82710  0.47340  0.84570  Biso   1.000  F
  F382     1.0000 0.42290  0.77660  0.84570  Biso   1.000  F
  F383     1.0000 0.82710  0.77660  0.40430  Biso   1.000  F
  F384     1.0000 0.42290  0.47340  0.40430  Biso   1.000  F
