data_image0
_cell_length_a       59.7742
_cell_length_b       29.104
_cell_length_c       13.6375
_cell_angle_alpha    90
_cell_angle_beta     90
_cell_angle_gamma    90

_symmetry_space_group_name_H-M    "P 1"
_symmetry_int_tables_number       1

loop_
  _symmetry_equiv_pos_as_xyz
  'x, y, z'

loop_
  _atom_site_label
  _atom_site_occupancy
  _atom_site_fract_x
  _atom_site_fract_y
  _atom_site_fract_z
  _atom_site_thermal_displace_type
  _atom_site_B_iso_or_equiv
  _atom_site_type_symbol
  Cu1      1.0000 0.26208  0.24477  0.92070  Biso   1.000  Cu
  Cu2      1.0000 0.73792  0.25523  0.42070  Biso   1.000  Cu
  Cu3      1.0000 0.26208  0.75523  0.07930  Biso   1.000  Cu
  Cu4      1.0000 0.73792  0.74477  0.57930  Biso   1.000  Cu
  Cu5      1.0000 0.76208  0.74477  0.92070  Biso   1.000  Cu
  Cu6      1.0000 0.23792  0.75523  0.42070  Biso   1.000  Cu
  Cu7      1.0000 0.76208  0.25523  0.07930  Biso   1.000  Cu
  Cu8      1.0000 0.23792  0.24477  0.57930  Biso   1.000  Cu
  Cu9      1.0000 0.73792  0.75523  0.07930  Biso   1.000  Cu
  Cu10     1.0000 0.26208  0.74477  0.57930  Biso   1.000  Cu
  Cu11     1.0000 0.73792  0.24477  0.92070  Biso   1.000  Cu
  Cu12     1.0000 0.26208  0.25523  0.42070  Biso   1.000  Cu
  Cu13     1.0000 0.23792  0.25523  0.07930  Biso   1.000  Cu
  Cu14     1.0000 0.76208  0.24477  0.57930  Biso   1.000  Cu
  Cu15     1.0000 0.23792  0.74477  0.92070  Biso   1.000  Cu
  Cu16     1.0000 0.76208  0.75523  0.42070  Biso   1.000  Cu
  Cu17     1.0000 0.00000  0.00824  0.81820  Biso   1.000  Cu
  Cu18     1.0000 0.00000  0.49176  0.31820  Biso   1.000  Cu
  Cu19     1.0000 0.00000  0.99176  0.18180  Biso   1.000  Cu
  Cu20     1.0000 0.00000  0.50824  0.68180  Biso   1.000  Cu
  Cu21     1.0000 0.50000  0.50824  0.81820  Biso   1.000  Cu
  Cu22     1.0000 0.50000  0.99176  0.31820  Biso   1.000  Cu
  Cu23     1.0000 0.50000  0.49176  0.18180  Biso   1.000  Cu
  Cu24     1.0000 0.50000  0.00824  0.68180  Biso   1.000  Cu
  O1       1.0000 0.24120  0.19483  0.89470  Biso   1.000  O
  O2       1.0000 0.75880  0.30517  0.39470  Biso   1.000  O
  O3       1.0000 0.24120  0.80517  0.10530  Biso   1.000  O
  O4       1.0000 0.75880  0.69483  0.60530  Biso   1.000  O
  O5       1.0000 0.74120  0.69483  0.89470  Biso   1.000  O
  O6       1.0000 0.25880  0.80517  0.39470  Biso   1.000  O
  O7       1.0000 0.74120  0.30517  0.10530  Biso   1.000  O
  O8       1.0000 0.25880  0.19483  0.60530  Biso   1.000  O
  O9       1.0000 0.75880  0.80517  0.10530  Biso   1.000  O
  O10      1.0000 0.24120  0.69483  0.60530  Biso   1.000  O
  O11      1.0000 0.75880  0.19483  0.89470  Biso   1.000  O
  O12      1.0000 0.24120  0.30517  0.39470  Biso   1.000  O
  O13      1.0000 0.25880  0.30517  0.10530  Biso   1.000  O
  O14      1.0000 0.74120  0.19483  0.60530  Biso   1.000  O
  O15      1.0000 0.25880  0.69483  0.89470  Biso   1.000  O
  O16      1.0000 0.74120  0.80517  0.39470  Biso   1.000  O
  O17      1.0000 0.22069  0.20316  0.03140  Biso   1.000  O
  O18      1.0000 0.77931  0.29684  0.53140  Biso   1.000  O
  O19      1.0000 0.22069  0.79684  0.96860  Biso   1.000  O
  O20      1.0000 0.77931  0.70316  0.46860  Biso   1.000  O
  O21      1.0000 0.72069  0.70316  0.03140  Biso   1.000  O
  O22      1.0000 0.27931  0.79684  0.53140  Biso   1.000  O
  O23      1.0000 0.72069  0.29684  0.96860  Biso   1.000  O
  O24      1.0000 0.27931  0.20316  0.46860  Biso   1.000  O
  O25      1.0000 0.77931  0.79684  0.96860  Biso   1.000  O
  O26      1.0000 0.22069  0.70316  0.46860  Biso   1.000  O
  O27      1.0000 0.77931  0.20316  0.03140  Biso   1.000  O
  O28      1.0000 0.22069  0.29684  0.53140  Biso   1.000  O
  O29      1.0000 0.27931  0.29684  0.96860  Biso   1.000  O
  O30      1.0000 0.72069  0.20316  0.46860  Biso   1.000  O
  O31      1.0000 0.27931  0.70316  0.03140  Biso   1.000  O
  O32      1.0000 0.72069  0.79684  0.53140  Biso   1.000  O
  O33      1.0000 0.22035  0.79600  0.50220  Biso   1.000  O
  O34      1.0000 0.77965  0.70400  0.00220  Biso   1.000  O
  O35      1.0000 0.22035  0.20400  0.49780  Biso   1.000  O
  O36      1.0000 0.77965  0.29600  0.99780  Biso   1.000  O
  O37      1.0000 0.72035  0.29600  0.50220  Biso   1.000  O
  O38      1.0000 0.27965  0.20400  0.00220  Biso   1.000  O
  O39      1.0000 0.72035  0.70400  0.49780  Biso   1.000  O
  O40      1.0000 0.27965  0.79600  0.99780  Biso   1.000  O
  O41      1.0000 0.77965  0.20400  0.49780  Biso   1.000  O
  O42      1.0000 0.22035  0.29600  0.99780  Biso   1.000  O
  O43      1.0000 0.77965  0.79600  0.50220  Biso   1.000  O
  O44      1.0000 0.22035  0.70400  0.00220  Biso   1.000  O
  O45      1.0000 0.27965  0.70400  0.49780  Biso   1.000  O
  O46      1.0000 0.72035  0.79600  0.99780  Biso   1.000  O
  O47      1.0000 0.27965  0.29600  0.50220  Biso   1.000  O
  O48      1.0000 0.72035  0.20400  0.00220  Biso   1.000  O
  O49      1.0000 0.24082  0.78699  0.63589  Biso   1.000  O
  O50      1.0000 0.75918  0.71301  0.13589  Biso   1.000  O
  O51      1.0000 0.24082  0.21301  0.36411  Biso   1.000  O
  O52      1.0000 0.75918  0.28699  0.86411  Biso   1.000  O
  O53      1.0000 0.74082  0.28699  0.63589  Biso   1.000  O
  O54      1.0000 0.25918  0.21301  0.13589  Biso   1.000  O
  O55      1.0000 0.74082  0.71301  0.36411  Biso   1.000  O
  O56      1.0000 0.25918  0.78699  0.86411  Biso   1.000  O
  O57      1.0000 0.75918  0.21301  0.36411  Biso   1.000  O
  O58      1.0000 0.24082  0.28699  0.86411  Biso   1.000  O
  O59      1.0000 0.75918  0.78699  0.63589  Biso   1.000  O
  O60      1.0000 0.24082  0.71301  0.13589  Biso   1.000  O
  O61      1.0000 0.25918  0.71301  0.36411  Biso   1.000  O
  O62      1.0000 0.74082  0.78699  0.86411  Biso   1.000  O
  O63      1.0000 0.25918  0.28699  0.63589  Biso   1.000  O
  O64      1.0000 0.74082  0.21301  0.13589  Biso   1.000  O
  O65      1.0000 0.03213  0.00200  0.84050  Biso   1.000  O
  O66      1.0000 0.96787  0.49800  0.34050  Biso   1.000  O
  O67      1.0000 0.03213  0.99800  0.15950  Biso   1.000  O
  O68      1.0000 0.96787  0.50200  0.65950  Biso   1.000  O
  O69      1.0000 0.53213  0.50200  0.84050  Biso   1.000  O
  O70      1.0000 0.46787  0.99800  0.34050  Biso   1.000  O
  O71      1.0000 0.53213  0.49800  0.15950  Biso   1.000  O
  O72      1.0000 0.46787  0.00200  0.65950  Biso   1.000  O
  O73      1.0000 0.96787  0.99800  0.15950  Biso   1.000  O
  O74      1.0000 0.03213  0.50200  0.65950  Biso   1.000  O
  O75      1.0000 0.96787  0.00200  0.84050  Biso   1.000  O
  O76      1.0000 0.03213  0.49800  0.34050  Biso   1.000  O
  O77      1.0000 0.46787  0.49800  0.15950  Biso   1.000  O
  O78      1.0000 0.53213  0.00200  0.65950  Biso   1.000  O
  O79      1.0000 0.46787  0.50200  0.84050  Biso   1.000  O
  O80      1.0000 0.53213  0.99800  0.34050  Biso   1.000  O
  O81      1.0000 0.03750  0.95190  0.95630  Biso   1.000  O
  O82      1.0000 0.96250  0.54810  0.45630  Biso   1.000  O
  O83      1.0000 0.03750  0.04810  0.04370  Biso   1.000  O
  O84      1.0000 0.96250  0.45190  0.54370  Biso   1.000  O
  O85      1.0000 0.53750  0.45190  0.95630  Biso   1.000  O
  O86      1.0000 0.46250  0.04810  0.45630  Biso   1.000  O
  O87      1.0000 0.53750  0.54810  0.04370  Biso   1.000  O
  O88      1.0000 0.46250  0.95190  0.54370  Biso   1.000  O
  O89      1.0000 0.96250  0.04810  0.04370  Biso   1.000  O
  O90      1.0000 0.03750  0.45190  0.54370  Biso   1.000  O
  O91      1.0000 0.96250  0.95190  0.95630  Biso   1.000  O
  O92      1.0000 0.03750  0.54810  0.45630  Biso   1.000  O
  O93      1.0000 0.46250  0.54810  0.04370  Biso   1.000  O
  O94      1.0000 0.53750  0.95190  0.54370  Biso   1.000  O
  O95      1.0000 0.46250  0.45190  0.95630  Biso   1.000  O
  O96      1.0000 0.53750  0.04810  0.45630  Biso   1.000  O
  O97      1.0000 0.28160  0.23007  0.79470  Biso   1.000  O
  O98      1.0000 0.71840  0.26993  0.29470  Biso   1.000  O
  O99      1.0000 0.28160  0.76993  0.20530  Biso   1.000  O
  O100     1.0000 0.71840  0.73007  0.70530  Biso   1.000  O
  O101     1.0000 0.78160  0.73007  0.79470  Biso   1.000  O
  O102     1.0000 0.21840  0.76993  0.29470  Biso   1.000  O
  O103     1.0000 0.78160  0.26993  0.20530  Biso   1.000  O
  O104     1.0000 0.21840  0.23007  0.70530  Biso   1.000  O
  O105     1.0000 0.71840  0.76993  0.20530  Biso   1.000  O
  O106     1.0000 0.28160  0.73007  0.70530  Biso   1.000  O
  O107     1.0000 0.71840  0.23007  0.79470  Biso   1.000  O
  O108     1.0000 0.28160  0.26993  0.29470  Biso   1.000  O
  O109     1.0000 0.21840  0.26993  0.20530  Biso   1.000  O
  O110     1.0000 0.78160  0.23007  0.70530  Biso   1.000  O
  O111     1.0000 0.21840  0.73007  0.79470  Biso   1.000  O
  O112     1.0000 0.78160  0.76993  0.29470  Biso   1.000  O
  H1       1.0000 0.29230  0.24930  0.79130  Biso   1.000  H
  H2       1.0000 0.70770  0.25070  0.29130  Biso   1.000  H
  H3       1.0000 0.29230  0.75070  0.20870  Biso   1.000  H
  H4       1.0000 0.70770  0.74930  0.70870  Biso   1.000  H
  H5       1.0000 0.79230  0.74930  0.79130  Biso   1.000  H
  H6       1.0000 0.20770  0.75070  0.29130  Biso   1.000  H
  H7       1.0000 0.79230  0.25070  0.20870  Biso   1.000  H
  H8       1.0000 0.20770  0.24930  0.70870  Biso   1.000  H
  H9       1.0000 0.70770  0.75070  0.20870  Biso   1.000  H
  H10      1.0000 0.29230  0.74930  0.70870  Biso   1.000  H
  H11      1.0000 0.70770  0.24930  0.79130  Biso   1.000  H
  H12      1.0000 0.29230  0.25070  0.29130  Biso   1.000  H
  H13      1.0000 0.20770  0.25070  0.20870  Biso   1.000  H
  H14      1.0000 0.79230  0.24930  0.70870  Biso   1.000  H
  H15      1.0000 0.20770  0.74930  0.79130  Biso   1.000  H
  H16      1.0000 0.79230  0.75070  0.29130  Biso   1.000  H
  H17      1.0000 0.27350  0.23240  0.74380  Biso   1.000  H
  H18      1.0000 0.72650  0.26760  0.24380  Biso   1.000  H
  H19      1.0000 0.27350  0.76760  0.25620  Biso   1.000  H
  H20      1.0000 0.72650  0.73240  0.75620  Biso   1.000  H
  H21      1.0000 0.77350  0.73240  0.74380  Biso   1.000  H
  H22      1.0000 0.22650  0.76760  0.24380  Biso   1.000  H
  H23      1.0000 0.77350  0.26760  0.25620  Biso   1.000  H
  H24      1.0000 0.22650  0.23240  0.75620  Biso   1.000  H
  H25      1.0000 0.72650  0.76760  0.25620  Biso   1.000  H
  H26      1.0000 0.27350  0.73240  0.75620  Biso   1.000  H
  H27      1.0000 0.72650  0.23240  0.74380  Biso   1.000  H
  H28      1.0000 0.27350  0.26760  0.24380  Biso   1.000  H
  H29      1.0000 0.22650  0.26760  0.25620  Biso   1.000  H
  H30      1.0000 0.77350  0.23240  0.75620  Biso   1.000  H
  H31      1.0000 0.22650  0.73240  0.74380  Biso   1.000  H
  H32      1.0000 0.77350  0.76760  0.24380  Biso   1.000  H
  O113     1.0000 0.00000  0.96080  0.68730  Biso   1.000  O
  O114     1.0000 0.00000  0.53920  0.18730  Biso   1.000  O
  O115     1.0000 0.00000  0.03920  0.31270  Biso   1.000  O
  O116     1.0000 0.00000  0.46080  0.81270  Biso   1.000  O
  O117     1.0000 0.50000  0.46080  0.68730  Biso   1.000  O
  O118     1.0000 0.50000  0.03920  0.18730  Biso   1.000  O
  O119     1.0000 0.50000  0.53920  0.31270  Biso   1.000  O
  O120     1.0000 0.50000  0.96080  0.81270  Biso   1.000  O
  H33      1.0000 0.98920  0.94300  0.69200  Biso   1.000  H
  H34      1.0000 0.01080  0.55700  0.19200  Biso   1.000  H
  H35      1.0000 0.98920  0.05700  0.30800  Biso   1.000  H
  H36      1.0000 0.01080  0.44300  0.80800  Biso   1.000  H
  H37      1.0000 0.48920  0.44300  0.69200  Biso   1.000  H
  H38      1.0000 0.51080  0.05700  0.19200  Biso   1.000  H
  H39      1.0000 0.48920  0.55700  0.30800  Biso   1.000  H
  H40      1.0000 0.51080  0.94300  0.80800  Biso   1.000  H
  H41      1.0000 0.01080  0.05700  0.30800  Biso   1.000  H
  H42      1.0000 0.98920  0.44300  0.80800  Biso   1.000  H
  H43      1.0000 0.01080  0.94300  0.69200  Biso   1.000  H
  H44      1.0000 0.98920  0.55700  0.19200  Biso   1.000  H
  H45      1.0000 0.51080  0.55700  0.30800  Biso   1.000  H
  H46      1.0000 0.48920  0.94300  0.80800  Biso   1.000  H
  H47      1.0000 0.51080  0.44300  0.69200  Biso   1.000  H
  H48      1.0000 0.48920  0.05700  0.19200  Biso   1.000  H
  O121     1.0000 0.00000  0.04670  0.93300  Biso   1.000  O
  O122     1.0000 0.00000  0.45330  0.43300  Biso   1.000  O
  O123     1.0000 0.00000  0.95330  0.06700  Biso   1.000  O
  O124     1.0000 0.00000  0.54670  0.56700  Biso   1.000  O
  O125     1.0000 0.50000  0.54670  0.93300  Biso   1.000  O
  O126     1.0000 0.50000  0.95330  0.43300  Biso   1.000  O
  O127     1.0000 0.50000  0.45330  0.06700  Biso   1.000  O
  O128     1.0000 0.50000  0.04670  0.56700  Biso   1.000  O
  H49      1.0000 0.01140  0.04230  0.96520  Biso   1.000  H
  H50      1.0000 0.98860  0.45770  0.46520  Biso   1.000  H
  H51      1.0000 0.01140  0.95770  0.03480  Biso   1.000  H
  H52      1.0000 0.98860  0.54230  0.53480  Biso   1.000  H
  H53      1.0000 0.51140  0.54230  0.96520  Biso   1.000  H
  H54      1.0000 0.48860  0.95770  0.46520  Biso   1.000  H
  H55      1.0000 0.51140  0.45770  0.03480  Biso   1.000  H
  H56      1.0000 0.48860  0.04230  0.53480  Biso   1.000  H
  H57      1.0000 0.98860  0.95770  0.03480  Biso   1.000  H
  H58      1.0000 0.01140  0.54230  0.53480  Biso   1.000  H
  H59      1.0000 0.98860  0.04230  0.96520  Biso   1.000  H
  H60      1.0000 0.01140  0.45770  0.46520  Biso   1.000  H
  H61      1.0000 0.48860  0.45770  0.03480  Biso   1.000  H
  H62      1.0000 0.51140  0.04230  0.53480  Biso   1.000  H
  H63      1.0000 0.48860  0.54230  0.96520  Biso   1.000  H
  H64      1.0000 0.51140  0.95770  0.46520  Biso   1.000  H
  N1       1.0000 0.13816  0.90418  0.77260  Biso   1.000  N
  N2       1.0000 0.86184  0.59582  0.27260  Biso   1.000  N
  N3       1.0000 0.13816  0.09582  0.22740  Biso   1.000  N
  N4       1.0000 0.86184  0.40418  0.72740  Biso   1.000  N
  N5       1.0000 0.63816  0.40418  0.77260  Biso   1.000  N
  N6       1.0000 0.36184  0.09582  0.27260  Biso   1.000  N
  N7       1.0000 0.63816  0.59582  0.22740  Biso   1.000  N
  N8       1.0000 0.36184  0.90418  0.72740  Biso   1.000  N
  N9       1.0000 0.86184  0.09582  0.22740  Biso   1.000  N
  N10      1.0000 0.13816  0.40418  0.72740  Biso   1.000  N
  N11      1.0000 0.86184  0.90418  0.77260  Biso   1.000  N
  N12      1.0000 0.13816  0.59582  0.27260  Biso   1.000  N
  N13      1.0000 0.36184  0.59582  0.22740  Biso   1.000  N
  N14      1.0000 0.63816  0.90418  0.72740  Biso   1.000  N
  N15      1.0000 0.36184  0.40418  0.77260  Biso   1.000  N
  N16      1.0000 0.63816  0.09582  0.27260  Biso   1.000  N
  H65      1.0000 0.14520  0.88040  0.75140  Biso   1.000  H
  H66      1.0000 0.85480  0.61960  0.25140  Biso   1.000  H
  H67      1.0000 0.14520  0.11960  0.24860  Biso   1.000  H
  H68      1.0000 0.85480  0.38040  0.74860  Biso   1.000  H
  H69      1.0000 0.64520  0.38040  0.75140  Biso   1.000  H
  H70      1.0000 0.35480  0.11960  0.25140  Biso   1.000  H
  H71      1.0000 0.64520  0.61960  0.24860  Biso   1.000  H
  H72      1.0000 0.35480  0.88040  0.74860  Biso   1.000  H
  H73      1.0000 0.85480  0.11960  0.24860  Biso   1.000  H
  H74      1.0000 0.14520  0.38040  0.74860  Biso   1.000  H
  H75      1.0000 0.85480  0.88040  0.75140  Biso   1.000  H
  H76      1.0000 0.14520  0.61960  0.25140  Biso   1.000  H
  H77      1.0000 0.35480  0.61960  0.24860  Biso   1.000  H
  H78      1.0000 0.64520  0.88040  0.74860  Biso   1.000  H
  H79      1.0000 0.35480  0.38040  0.75140  Biso   1.000  H
  H80      1.0000 0.64520  0.11960  0.25140  Biso   1.000  H
  H81      1.0000 0.12390  0.90310  0.78130  Biso   1.000  H
  H82      1.0000 0.87610  0.59690  0.28130  Biso   1.000  H
  H83      1.0000 0.12390  0.09690  0.21870  Biso   1.000  H
  H84      1.0000 0.87610  0.40310  0.71870  Biso   1.000  H
  H85      1.0000 0.62390  0.40310  0.78130  Biso   1.000  H
  H86      1.0000 0.37610  0.09690  0.28130  Biso   1.000  H
  H87      1.0000 0.62390  0.59690  0.21870  Biso   1.000  H
  H88      1.0000 0.37610  0.90310  0.71870  Biso   1.000  H
  H89      1.0000 0.87610  0.09690  0.21870  Biso   1.000  H
  H90      1.0000 0.12390  0.40310  0.71870  Biso   1.000  H
  H91      1.0000 0.87610  0.90310  0.78130  Biso   1.000  H
  H92      1.0000 0.12390  0.59690  0.28130  Biso   1.000  H
  H93      1.0000 0.37610  0.59690  0.21870  Biso   1.000  H
  H94      1.0000 0.62390  0.90310  0.71870  Biso   1.000  H
  H95      1.0000 0.37610  0.40310  0.78130  Biso   1.000  H
  H96      1.0000 0.62390  0.09690  0.28130  Biso   1.000  H
  C1       1.0000 0.14970  0.94432  0.79410  Biso   1.000  C
  C2       1.0000 0.85030  0.55568  0.29410  Biso   1.000  C
  C3       1.0000 0.14970  0.05568  0.20590  Biso   1.000  C
  C4       1.0000 0.85030  0.44432  0.70590  Biso   1.000  C
  C5       1.0000 0.64970  0.44432  0.79410  Biso   1.000  C
  C6       1.0000 0.35030  0.05568  0.29410  Biso   1.000  C
  C7       1.0000 0.64970  0.55568  0.20590  Biso   1.000  C
  C8       1.0000 0.35030  0.94432  0.70590  Biso   1.000  C
  C9       1.0000 0.85030  0.05568  0.20590  Biso   1.000  C
  C10      1.0000 0.14970  0.44432  0.70590  Biso   1.000  C
  C11      1.0000 0.85030  0.94432  0.79410  Biso   1.000  C
  C12      1.0000 0.14970  0.55568  0.29410  Biso   1.000  C
  C13      1.0000 0.35030  0.55568  0.20590  Biso   1.000  C
  C14      1.0000 0.64970  0.94432  0.70590  Biso   1.000  C
  C15      1.0000 0.35030  0.44432  0.79410  Biso   1.000  C
  C16      1.0000 0.64970  0.05568  0.29410  Biso   1.000  C
  C17      1.0000 0.17257  0.94627  0.77850  Biso   1.000  C
  C18      1.0000 0.82743  0.55373  0.27850  Biso   1.000  C
  C19      1.0000 0.17257  0.05373  0.22150  Biso   1.000  C
  C20      1.0000 0.82743  0.44627  0.72150  Biso   1.000  C
  C21      1.0000 0.67257  0.44627  0.77850  Biso   1.000  C
  C22      1.0000 0.32743  0.05373  0.27850  Biso   1.000  C
  C23      1.0000 0.67257  0.55373  0.22150  Biso   1.000  C
  C24      1.0000 0.32743  0.94627  0.72150  Biso   1.000  C
  C25      1.0000 0.82743  0.05373  0.22150  Biso   1.000  C
  C26      1.0000 0.17257  0.44627  0.72150  Biso   1.000  C
  C27      1.0000 0.82743  0.94627  0.77850  Biso   1.000  C
  C28      1.0000 0.17257  0.55373  0.27850  Biso   1.000  C
  C29      1.0000 0.32743  0.55373  0.22150  Biso   1.000  C
  C30      1.0000 0.67257  0.94627  0.72150  Biso   1.000  C
  C31      1.0000 0.32743  0.44627  0.77850  Biso   1.000  C
  C32      1.0000 0.67257  0.05373  0.27850  Biso   1.000  C
  C33      1.0000 0.18392  0.98459  0.80970  Biso   1.000  C
  C34      1.0000 0.81608  0.51541  0.30970  Biso   1.000  C
  C35      1.0000 0.18392  0.01541  0.19030  Biso   1.000  C
  C36      1.0000 0.81608  0.48459  0.69030  Biso   1.000  C
  C37      1.0000 0.68392  0.48459  0.80970  Biso   1.000  C
  C38      1.0000 0.31608  0.01541  0.30970  Biso   1.000  C
  C39      1.0000 0.68392  0.51541  0.19030  Biso   1.000  C
  C40      1.0000 0.31608  0.98459  0.69030  Biso   1.000  C
  C41      1.0000 0.81608  0.01541  0.19030  Biso   1.000  C
  C42      1.0000 0.18392  0.48459  0.69030  Biso   1.000  C
  C43      1.0000 0.81608  0.98459  0.80970  Biso   1.000  C
  C44      1.0000 0.18392  0.51541  0.30970  Biso   1.000  C
  C45      1.0000 0.31608  0.51541  0.19030  Biso   1.000  C
  C46      1.0000 0.68392  0.98459  0.69030  Biso   1.000  C
  C47      1.0000 0.31608  0.48459  0.80970  Biso   1.000  C
  C48      1.0000 0.68392  0.01541  0.30970  Biso   1.000  C
  H97      1.0000 0.19940  0.98480  0.80320  Biso   1.000  H
  H98      1.0000 0.80060  0.51520  0.30320  Biso   1.000  H
  H99      1.0000 0.19940  0.01520  0.19680  Biso   1.000  H
  H100     1.0000 0.80060  0.48480  0.69680  Biso   1.000  H
  H101     1.0000 0.69940  0.48480  0.80320  Biso   1.000  H
  H102     1.0000 0.30060  0.01520  0.30320  Biso   1.000  H
  H103     1.0000 0.69940  0.51520  0.19680  Biso   1.000  H
  H104     1.0000 0.30060  0.98480  0.69680  Biso   1.000  H
  H105     1.0000 0.80060  0.01520  0.19680  Biso   1.000  H
  H106     1.0000 0.19940  0.48480  0.69680  Biso   1.000  H
  H107     1.0000 0.80060  0.98480  0.80320  Biso   1.000  H
  H108     1.0000 0.19940  0.51520  0.30320  Biso   1.000  H
  H109     1.0000 0.30060  0.51520  0.19680  Biso   1.000  H
  H110     1.0000 0.69940  0.98480  0.69680  Biso   1.000  H
  H111     1.0000 0.30060  0.48480  0.80320  Biso   1.000  H
  H112     1.0000 0.69940  0.01520  0.30320  Biso   1.000  H
  C49      1.0000 0.17401  0.02209  0.84940  Biso   1.000  C
  C50      1.0000 0.82599  0.47791  0.34940  Biso   1.000  C
  C51      1.0000 0.17401  0.97791  0.15060  Biso   1.000  C
  C52      1.0000 0.82599  0.52209  0.65060  Biso   1.000  C
  C53      1.0000 0.67401  0.52209  0.84940  Biso   1.000  C
  C54      1.0000 0.32599  0.97791  0.34940  Biso   1.000  C
  C55      1.0000 0.67401  0.47791  0.15060  Biso   1.000  C
  C56      1.0000 0.32599  0.02209  0.65060  Biso   1.000  C
  C57      1.0000 0.82599  0.97791  0.15060  Biso   1.000  C
  C58      1.0000 0.17401  0.52209  0.65060  Biso   1.000  C
  C59      1.0000 0.82599  0.02209  0.84940  Biso   1.000  C
  C60      1.0000 0.17401  0.47791  0.34940  Biso   1.000  C
  C61      1.0000 0.32599  0.47791  0.15060  Biso   1.000  C
  C62      1.0000 0.67401  0.02209  0.65060  Biso   1.000  C
  C63      1.0000 0.32599  0.52209  0.84940  Biso   1.000  C
  C64      1.0000 0.67401  0.97791  0.34940  Biso   1.000  C
  C65      1.0000 0.15126  0.01911  0.86320  Biso   1.000  C
  C66      1.0000 0.84874  0.48089  0.36320  Biso   1.000  C
  C67      1.0000 0.15126  0.98089  0.13680  Biso   1.000  C
  C68      1.0000 0.84874  0.51911  0.63680  Biso   1.000  C
  C69      1.0000 0.65126  0.51911  0.86320  Biso   1.000  C
  C70      1.0000 0.34874  0.98089  0.36320  Biso   1.000  C
  C71      1.0000 0.65126  0.48089  0.13680  Biso   1.000  C
  C72      1.0000 0.34874  0.01911  0.63680  Biso   1.000  C
  C73      1.0000 0.84874  0.98089  0.13680  Biso   1.000  C
  C74      1.0000 0.15126  0.51911  0.63680  Biso   1.000  C
  C75      1.0000 0.84874  0.01911  0.86320  Biso   1.000  C
  C76      1.0000 0.15126  0.48089  0.36320  Biso   1.000  C
  C77      1.0000 0.34874  0.48089  0.13680  Biso   1.000  C
  C78      1.0000 0.65126  0.01911  0.63680  Biso   1.000  C
  C79      1.0000 0.34874  0.51911  0.86320  Biso   1.000  C
  C80      1.0000 0.65126  0.98089  0.36320  Biso   1.000  C
  H113     1.0000 0.14400  0.04410  0.89130  Biso   1.000  H
  H114     1.0000 0.85600  0.45590  0.39130  Biso   1.000  H
  H115     1.0000 0.14400  0.95590  0.10870  Biso   1.000  H
  H116     1.0000 0.85600  0.54410  0.60870  Biso   1.000  H
  H117     1.0000 0.64400  0.54410  0.89130  Biso   1.000  H
  H118     1.0000 0.35600  0.95590  0.39130  Biso   1.000  H
  H119     1.0000 0.64400  0.45590  0.10870  Biso   1.000  H
  H120     1.0000 0.35600  0.04410  0.60870  Biso   1.000  H
  H121     1.0000 0.85600  0.95590  0.10870  Biso   1.000  H
  H122     1.0000 0.14400  0.54410  0.60870  Biso   1.000  H
  H123     1.0000 0.85600  0.04410  0.89130  Biso   1.000  H
  H124     1.0000 0.14400  0.45590  0.39130  Biso   1.000  H
  H125     1.0000 0.35600  0.45590  0.10870  Biso   1.000  H
  H126     1.0000 0.64400  0.04410  0.60870  Biso   1.000  H
  H127     1.0000 0.35600  0.54410  0.89130  Biso   1.000  H
  H128     1.0000 0.64400  0.95590  0.39130  Biso   1.000  H
  C81      1.0000 0.13867  0.98157  0.83790  Biso   1.000  C
  C82      1.0000 0.86133  0.51843  0.33790  Biso   1.000  C
  C83      1.0000 0.13867  0.01843  0.16210  Biso   1.000  C
  C84      1.0000 0.86133  0.48157  0.66210  Biso   1.000  C
  C85      1.0000 0.63867  0.48157  0.83790  Biso   1.000  C
  C86      1.0000 0.36133  0.01843  0.33790  Biso   1.000  C
  C87      1.0000 0.63867  0.51843  0.16210  Biso   1.000  C
  C88      1.0000 0.36133  0.98157  0.66210  Biso   1.000  C
  C89      1.0000 0.86133  0.01843  0.16210  Biso   1.000  C
  C90      1.0000 0.13867  0.48157  0.66210  Biso   1.000  C
  C91      1.0000 0.86133  0.98157  0.83790  Biso   1.000  C
  C92      1.0000 0.13867  0.51843  0.33790  Biso   1.000  C
  C93      1.0000 0.36133  0.51843  0.16210  Biso   1.000  C
  C94      1.0000 0.63867  0.98157  0.66210  Biso   1.000  C
  C95      1.0000 0.36133  0.48157  0.83790  Biso   1.000  C
  C96      1.0000 0.63867  0.01843  0.33790  Biso   1.000  C
  C97      1.0000 0.22552  0.18237  0.95330  Biso   1.000  C
  C98      1.0000 0.77448  0.31763  0.45330  Biso   1.000  C
  C99      1.0000 0.22552  0.81763  0.04670  Biso   1.000  C
  C100     1.0000 0.77448  0.68237  0.54670  Biso   1.000  C
  C101     1.0000 0.72552  0.68237  0.95330  Biso   1.000  C
  C102     1.0000 0.27448  0.81763  0.45330  Biso   1.000  C
  C103     1.0000 0.72552  0.31763  0.04670  Biso   1.000  C
  C104     1.0000 0.27448  0.18237  0.54670  Biso   1.000  C
  C105     1.0000 0.77448  0.81763  0.04670  Biso   1.000  C
  C106     1.0000 0.22552  0.68237  0.54670  Biso   1.000  C
  C107     1.0000 0.77448  0.18237  0.95330  Biso   1.000  C
  C108     1.0000 0.22552  0.31763  0.45330  Biso   1.000  C
  C109     1.0000 0.27448  0.31763  0.04670  Biso   1.000  C
  C110     1.0000 0.72552  0.18237  0.54670  Biso   1.000  C
  C111     1.0000 0.27448  0.68237  0.95330  Biso   1.000  C
  C112     1.0000 0.72552  0.81763  0.45330  Biso   1.000  C
  C113     1.0000 0.21244  0.14197  0.92650  Biso   1.000  C
  C114     1.0000 0.78756  0.35803  0.42650  Biso   1.000  C
  C115     1.0000 0.21244  0.85803  0.07350  Biso   1.000  C
  C116     1.0000 0.78756  0.64197  0.57350  Biso   1.000  C
  C117     1.0000 0.71244  0.64197  0.92650  Biso   1.000  C
  C118     1.0000 0.28756  0.85803  0.42650  Biso   1.000  C
  C119     1.0000 0.71244  0.35803  0.07350  Biso   1.000  C
  C120     1.0000 0.28756  0.14197  0.57350  Biso   1.000  C
  C121     1.0000 0.78756  0.85803  0.07350  Biso   1.000  C
  C122     1.0000 0.21244  0.64197  0.57350  Biso   1.000  C
  C123     1.0000 0.78756  0.14197  0.92650  Biso   1.000  C
  C124     1.0000 0.21244  0.35803  0.42650  Biso   1.000  C
  C125     1.0000 0.28756  0.35803  0.07350  Biso   1.000  C
  C126     1.0000 0.71244  0.14197  0.57350  Biso   1.000  C
  C127     1.0000 0.28756  0.64197  0.92650  Biso   1.000  C
  C128     1.0000 0.71244  0.85803  0.42650  Biso   1.000  C
  C129     1.0000 0.19349  0.12906  0.98050  Biso   1.000  C
  C130     1.0000 0.80651  0.37094  0.48050  Biso   1.000  C
  C131     1.0000 0.19349  0.87094  0.01950  Biso   1.000  C
  C132     1.0000 0.80651  0.62906  0.51950  Biso   1.000  C
  C133     1.0000 0.69349  0.62906  0.98050  Biso   1.000  C
  C134     1.0000 0.30651  0.87094  0.48050  Biso   1.000  C
  C135     1.0000 0.69349  0.37094  0.01950  Biso   1.000  C
  C136     1.0000 0.30651  0.12906  0.51950  Biso   1.000  C
  C137     1.0000 0.80651  0.87094  0.01950  Biso   1.000  C
  C138     1.0000 0.19349  0.62906  0.51950  Biso   1.000  C
  C139     1.0000 0.80651  0.12906  0.98050  Biso   1.000  C
  C140     1.0000 0.19349  0.37094  0.48050  Biso   1.000  C
  C141     1.0000 0.30651  0.37094  0.01950  Biso   1.000  C
  C142     1.0000 0.69349  0.12906  0.51950  Biso   1.000  C
  C143     1.0000 0.30651  0.62906  0.98050  Biso   1.000  C
  C144     1.0000 0.69349  0.87094  0.48050  Biso   1.000  C
  H129     1.0000 0.18900  0.14710  0.03320  Biso   1.000  H
  H130     1.0000 0.81100  0.35290  0.53320  Biso   1.000  H
  H131     1.0000 0.18900  0.85290  0.96680  Biso   1.000  H
  H132     1.0000 0.81100  0.64710  0.46680  Biso   1.000  H
  H133     1.0000 0.68900  0.64710  0.03320  Biso   1.000  H
  H134     1.0000 0.31100  0.85290  0.53320  Biso   1.000  H
  H135     1.0000 0.68900  0.35290  0.96680  Biso   1.000  H
  H136     1.0000 0.31100  0.14710  0.46680  Biso   1.000  H
  H137     1.0000 0.81100  0.85290  0.96680  Biso   1.000  H
  H138     1.0000 0.18900  0.64710  0.46680  Biso   1.000  H
  H139     1.0000 0.81100  0.14710  0.03320  Biso   1.000  H
  H140     1.0000 0.18900  0.35290  0.53320  Biso   1.000  H
  H141     1.0000 0.31100  0.35290  0.96680  Biso   1.000  H
  H142     1.0000 0.68900  0.14710  0.46680  Biso   1.000  H
  H143     1.0000 0.31100  0.64710  0.03320  Biso   1.000  H
  H144     1.0000 0.68900  0.85290  0.53320  Biso   1.000  H
  C145     1.0000 0.18142  0.09055  0.95760  Biso   1.000  C
  C146     1.0000 0.81858  0.40945  0.45760  Biso   1.000  C
  C147     1.0000 0.18142  0.90945  0.04240  Biso   1.000  C
  C148     1.0000 0.81858  0.59055  0.54240  Biso   1.000  C
  C149     1.0000 0.68142  0.59055  0.95760  Biso   1.000  C
  C150     1.0000 0.31858  0.90945  0.45760  Biso   1.000  C
  C151     1.0000 0.68142  0.40945  0.04240  Biso   1.000  C
  C152     1.0000 0.31858  0.09055  0.54240  Biso   1.000  C
  C153     1.0000 0.81858  0.90945  0.04240  Biso   1.000  C
  C154     1.0000 0.18142  0.59055  0.54240  Biso   1.000  C
  C155     1.0000 0.81858  0.09055  0.95760  Biso   1.000  C
  C156     1.0000 0.18142  0.40945  0.45760  Biso   1.000  C
  C157     1.0000 0.31858  0.40945  0.04240  Biso   1.000  C
  C158     1.0000 0.68142  0.09055  0.54240  Biso   1.000  C
  C159     1.0000 0.31858  0.59055  0.95760  Biso   1.000  C
  C160     1.0000 0.68142  0.90945  0.45760  Biso   1.000  C
  H145     1.0000 0.16940  0.08180  0.99680  Biso   1.000  H
  H146     1.0000 0.83060  0.41820  0.49680  Biso   1.000  H
  H147     1.0000 0.16940  0.91820  0.00320  Biso   1.000  H
  H148     1.0000 0.83060  0.58180  0.50320  Biso   1.000  H
  H149     1.0000 0.66940  0.58180  0.99680  Biso   1.000  H
  H150     1.0000 0.33060  0.91820  0.49680  Biso   1.000  H
  H151     1.0000 0.66940  0.41820  0.00320  Biso   1.000  H
  H152     1.0000 0.33060  0.08180  0.50320  Biso   1.000  H
  H153     1.0000 0.83060  0.91820  0.00320  Biso   1.000  H
  H154     1.0000 0.16940  0.58180  0.50320  Biso   1.000  H
  H155     1.0000 0.83060  0.08180  0.99680  Biso   1.000  H
  H156     1.0000 0.16940  0.41820  0.49680  Biso   1.000  H
  H157     1.0000 0.33060  0.41820  0.00320  Biso   1.000  H
  H158     1.0000 0.66940  0.08180  0.50320  Biso   1.000  H
  H159     1.0000 0.33060  0.58180  0.99680  Biso   1.000  H
  H160     1.0000 0.66940  0.91820  0.49680  Biso   1.000  H
  C161     1.0000 0.18704  0.06443  0.87550  Biso   1.000  C
  C162     1.0000 0.81296  0.43557  0.37550  Biso   1.000  C
  C163     1.0000 0.18704  0.93557  0.12450  Biso   1.000  C
  C164     1.0000 0.81296  0.56443  0.62450  Biso   1.000  C
  C165     1.0000 0.68704  0.56443  0.87550  Biso   1.000  C
  C166     1.0000 0.31296  0.93557  0.37550  Biso   1.000  C
  C167     1.0000 0.68704  0.43557  0.12450  Biso   1.000  C
  C168     1.0000 0.31296  0.06443  0.62450  Biso   1.000  C
  C169     1.0000 0.81296  0.93557  0.12450  Biso   1.000  C
  C170     1.0000 0.18704  0.56443  0.62450  Biso   1.000  C
  C171     1.0000 0.81296  0.06443  0.87550  Biso   1.000  C
  C172     1.0000 0.18704  0.43557  0.37550  Biso   1.000  C
  C173     1.0000 0.31296  0.43557  0.12450  Biso   1.000  C
  C174     1.0000 0.68704  0.06443  0.62450  Biso   1.000  C
  C175     1.0000 0.31296  0.56443  0.87550  Biso   1.000  C
  C176     1.0000 0.68704  0.93557  0.37550  Biso   1.000  C
  C177     1.0000 0.20463  0.07803  0.82290  Biso   1.000  C
  C178     1.0000 0.79537  0.42197  0.32290  Biso   1.000  C
  C179     1.0000 0.20463  0.92197  0.17710  Biso   1.000  C
  C180     1.0000 0.79537  0.57803  0.67710  Biso   1.000  C
  C181     1.0000 0.70463  0.57803  0.82290  Biso   1.000  C
  C182     1.0000 0.29537  0.92197  0.32290  Biso   1.000  C
  C183     1.0000 0.70463  0.42197  0.17710  Biso   1.000  C
  C184     1.0000 0.29537  0.07803  0.67710  Biso   1.000  C
  C185     1.0000 0.79537  0.92197  0.17710  Biso   1.000  C
  C186     1.0000 0.20463  0.57803  0.67710  Biso   1.000  C
  C187     1.0000 0.79537  0.07803  0.82290  Biso   1.000  C
  C188     1.0000 0.20463  0.42197  0.32290  Biso   1.000  C
  C189     1.0000 0.29537  0.42197  0.17710  Biso   1.000  C
  C190     1.0000 0.70463  0.07803  0.67710  Biso   1.000  C
  C191     1.0000 0.29537  0.57803  0.82290  Biso   1.000  C
  C192     1.0000 0.70463  0.92197  0.32290  Biso   1.000  C
  H161     1.0000 0.20820  0.06120  0.76710  Biso   1.000  H
  H162     1.0000 0.79180  0.43880  0.26710  Biso   1.000  H
  H163     1.0000 0.20820  0.93880  0.23290  Biso   1.000  H
  H164     1.0000 0.79180  0.56120  0.73290  Biso   1.000  H
  H165     1.0000 0.70820  0.56120  0.76710  Biso   1.000  H
  H166     1.0000 0.29180  0.93880  0.26710  Biso   1.000  H
  H167     1.0000 0.70820  0.43880  0.23290  Biso   1.000  H
  H168     1.0000 0.29180  0.06120  0.73290  Biso   1.000  H
  H169     1.0000 0.79180  0.93880  0.23290  Biso   1.000  H
  H170     1.0000 0.20820  0.56120  0.73290  Biso   1.000  H
  H171     1.0000 0.79180  0.06120  0.76710  Biso   1.000  H
  H172     1.0000 0.20820  0.43880  0.26710  Biso   1.000  H
  H173     1.0000 0.29180  0.43880  0.23290  Biso   1.000  H
  H174     1.0000 0.70820  0.06120  0.73290  Biso   1.000  H
  H175     1.0000 0.29180  0.56120  0.76710  Biso   1.000  H
  H176     1.0000 0.70820  0.93880  0.26710  Biso   1.000  H
  C193     1.0000 0.21779  0.11528  0.84590  Biso   1.000  C
  C194     1.0000 0.78221  0.38472  0.34590  Biso   1.000  C
  C195     1.0000 0.21779  0.88472  0.15410  Biso   1.000  C
  C196     1.0000 0.78221  0.61528  0.65410  Biso   1.000  C
  C197     1.0000 0.71779  0.61528  0.84590  Biso   1.000  C
  C198     1.0000 0.28221  0.88472  0.34590  Biso   1.000  C
  C199     1.0000 0.71779  0.38472  0.15410  Biso   1.000  C
  C200     1.0000 0.28221  0.11528  0.65410  Biso   1.000  C
  C201     1.0000 0.78221  0.88472  0.15410  Biso   1.000  C
  C202     1.0000 0.21779  0.61528  0.65410  Biso   1.000  C
  C203     1.0000 0.78221  0.11528  0.84590  Biso   1.000  C
  C204     1.0000 0.21779  0.38472  0.34590  Biso   1.000  C
  C205     1.0000 0.28221  0.38472  0.15410  Biso   1.000  C
  C206     1.0000 0.71779  0.11528  0.65410  Biso   1.000  C
  C207     1.0000 0.28221  0.61528  0.84590  Biso   1.000  C
  C208     1.0000 0.71779  0.88472  0.34590  Biso   1.000  C
  H177     1.0000 0.23020  0.12250  0.80750  Biso   1.000  H
  H178     1.0000 0.76980  0.37750  0.30750  Biso   1.000  H
  H179     1.0000 0.23020  0.87750  0.19250  Biso   1.000  H
  H180     1.0000 0.76980  0.62250  0.69250  Biso   1.000  H
  H181     1.0000 0.73020  0.62250  0.80750  Biso   1.000  H
  H182     1.0000 0.26980  0.87750  0.30750  Biso   1.000  H
  H183     1.0000 0.73020  0.37750  0.19250  Biso   1.000  H
  H184     1.0000 0.26980  0.12250  0.69250  Biso   1.000  H
  H185     1.0000 0.76980  0.87750  0.19250  Biso   1.000  H
  H186     1.0000 0.23020  0.62250  0.69250  Biso   1.000  H
  H187     1.0000 0.76980  0.12250  0.80750  Biso   1.000  H
  H188     1.0000 0.23020  0.37750  0.30750  Biso   1.000  H
  H189     1.0000 0.26980  0.37750  0.19250  Biso   1.000  H
  H190     1.0000 0.73020  0.12250  0.69250  Biso   1.000  H
  H191     1.0000 0.26980  0.62250  0.80750  Biso   1.000  H
  H192     1.0000 0.73020  0.87750  0.30750  Biso   1.000  H
  C209     1.0000 0.22467  0.80457  0.59110  Biso   1.000  C
  C210     1.0000 0.77533  0.69543  0.09110  Biso   1.000  C
  C211     1.0000 0.22467  0.19543  0.40890  Biso   1.000  C
  C212     1.0000 0.77533  0.30457  0.90890  Biso   1.000  C
  C213     1.0000 0.72467  0.30457  0.59110  Biso   1.000  C
  C214     1.0000 0.27533  0.19543  0.09110  Biso   1.000  C
  C215     1.0000 0.72467  0.69543  0.40890  Biso   1.000  C
  C216     1.0000 0.27533  0.80457  0.90890  Biso   1.000  C
  C217     1.0000 0.77533  0.19543  0.40890  Biso   1.000  C
  C218     1.0000 0.22467  0.30457  0.90890  Biso   1.000  C
  C219     1.0000 0.77533  0.80457  0.59110  Biso   1.000  C
  C220     1.0000 0.22467  0.69543  0.09110  Biso   1.000  C
  C221     1.0000 0.27533  0.69543  0.40890  Biso   1.000  C
  C222     1.0000 0.72467  0.80457  0.90890  Biso   1.000  C
  C223     1.0000 0.27533  0.30457  0.59110  Biso   1.000  C
  C224     1.0000 0.72467  0.19543  0.09110  Biso   1.000  C
  C225     1.0000 0.21034  0.83841  0.64100  Biso   1.000  C
  C226     1.0000 0.78966  0.66159  0.14100  Biso   1.000  C
  C227     1.0000 0.21034  0.16159  0.35900  Biso   1.000  C
  C228     1.0000 0.78966  0.33841  0.85900  Biso   1.000  C
  C229     1.0000 0.71034  0.33841  0.64100  Biso   1.000  C
  C230     1.0000 0.28966  0.16159  0.14100  Biso   1.000  C
  C231     1.0000 0.71034  0.66159  0.35900  Biso   1.000  C
  C232     1.0000 0.28966  0.83841  0.85900  Biso   1.000  C
  C233     1.0000 0.78966  0.16159  0.35900  Biso   1.000  C
  C234     1.0000 0.21034  0.33841  0.85900  Biso   1.000  C
  C235     1.0000 0.78966  0.83841  0.64100  Biso   1.000  C
  C236     1.0000 0.21034  0.66159  0.14100  Biso   1.000  C
  C237     1.0000 0.28966  0.66159  0.35900  Biso   1.000  C
  C238     1.0000 0.71034  0.83841  0.85900  Biso   1.000  C
  C239     1.0000 0.28966  0.33841  0.64100  Biso   1.000  C
  C240     1.0000 0.71034  0.16159  0.14100  Biso   1.000  C
  C241     1.0000 0.21632  0.85539  0.73050  Biso   1.000  C
  C242     1.0000 0.78368  0.64461  0.23050  Biso   1.000  C
  C243     1.0000 0.21632  0.14461  0.26950  Biso   1.000  C
  C244     1.0000 0.78368  0.35539  0.76950  Biso   1.000  C
  C245     1.0000 0.71632  0.35539  0.73050  Biso   1.000  C
  C246     1.0000 0.28368  0.14461  0.23050  Biso   1.000  C
  C247     1.0000 0.71632  0.64461  0.26950  Biso   1.000  C
  C248     1.0000 0.28368  0.85539  0.76950  Biso   1.000  C
  C249     1.0000 0.78368  0.14461  0.26950  Biso   1.000  C
  C250     1.0000 0.21632  0.35539  0.76950  Biso   1.000  C
  C251     1.0000 0.78368  0.85539  0.73050  Biso   1.000  C
  C252     1.0000 0.21632  0.64461  0.23050  Biso   1.000  C
  C253     1.0000 0.28368  0.64461  0.26950  Biso   1.000  C
  C254     1.0000 0.71632  0.85539  0.76950  Biso   1.000  C
  C255     1.0000 0.28368  0.35539  0.73050  Biso   1.000  C
  C256     1.0000 0.71632  0.14461  0.23050  Biso   1.000  C
  H193     1.0000 0.22870  0.84340  0.76290  Biso   1.000  H
  H194     1.0000 0.77130  0.65660  0.26290  Biso   1.000  H
  H195     1.0000 0.22870  0.15660  0.23710  Biso   1.000  H
  H196     1.0000 0.77130  0.34340  0.73710  Biso   1.000  H
  H197     1.0000 0.72870  0.34340  0.76290  Biso   1.000  H
  H198     1.0000 0.27130  0.15660  0.26290  Biso   1.000  H
  H199     1.0000 0.72870  0.65660  0.23710  Biso   1.000  H
  H200     1.0000 0.27130  0.84340  0.73710  Biso   1.000  H
  H201     1.0000 0.77130  0.15660  0.23710  Biso   1.000  H
  H202     1.0000 0.22870  0.34340  0.73710  Biso   1.000  H
  H203     1.0000 0.77130  0.84340  0.76290  Biso   1.000  H
  H204     1.0000 0.22870  0.65660  0.26290  Biso   1.000  H
  H205     1.0000 0.27130  0.65660  0.23710  Biso   1.000  H
  H206     1.0000 0.72870  0.84340  0.73710  Biso   1.000  H
  H207     1.0000 0.27130  0.34340  0.76290  Biso   1.000  H
  H208     1.0000 0.72870  0.15660  0.26290  Biso   1.000  H
  C257     1.0000 0.20396  0.89056  0.77340  Biso   1.000  C
  C258     1.0000 0.79604  0.60944  0.27340  Biso   1.000  C
  C259     1.0000 0.20396  0.10944  0.22660  Biso   1.000  C
  C260     1.0000 0.79604  0.39056  0.72660  Biso   1.000  C
  C261     1.0000 0.70396  0.39056  0.77340  Biso   1.000  C
  C262     1.0000 0.29604  0.10944  0.27340  Biso   1.000  C
  C263     1.0000 0.70396  0.60944  0.22660  Biso   1.000  C
  C264     1.0000 0.29604  0.89056  0.72660  Biso   1.000  C
  C265     1.0000 0.79604  0.10944  0.22660  Biso   1.000  C
  C266     1.0000 0.20396  0.39056  0.72660  Biso   1.000  C
  C267     1.0000 0.79604  0.89056  0.77340  Biso   1.000  C
  C268     1.0000 0.20396  0.60944  0.27340  Biso   1.000  C
  C269     1.0000 0.29604  0.60944  0.22660  Biso   1.000  C
  C270     1.0000 0.70396  0.89056  0.72660  Biso   1.000  C
  C271     1.0000 0.29604  0.39056  0.77340  Biso   1.000  C
  C272     1.0000 0.70396  0.10944  0.27340  Biso   1.000  C
  H209     1.0000 0.20870  0.90280  0.83290  Biso   1.000  H
  H210     1.0000 0.79130  0.59720  0.33290  Biso   1.000  H
  H211     1.0000 0.20870  0.09720  0.16710  Biso   1.000  H
  H212     1.0000 0.79130  0.40280  0.66710  Biso   1.000  H
  H213     1.0000 0.70870  0.40280  0.83290  Biso   1.000  H
  H214     1.0000 0.29130  0.09720  0.33290  Biso   1.000  H
  H215     1.0000 0.70870  0.59720  0.16710  Biso   1.000  H
  H216     1.0000 0.29130  0.90280  0.66710  Biso   1.000  H
  H217     1.0000 0.79130  0.09720  0.16710  Biso   1.000  H
  H218     1.0000 0.20870  0.40280  0.66710  Biso   1.000  H
  H219     1.0000 0.79130  0.90280  0.83290  Biso   1.000  H
  H220     1.0000 0.20870  0.59720  0.33290  Biso   1.000  H
  H221     1.0000 0.29130  0.59720  0.16710  Biso   1.000  H
  H222     1.0000 0.70870  0.90280  0.66710  Biso   1.000  H
  H223     1.0000 0.29130  0.40280  0.83290  Biso   1.000  H
  H224     1.0000 0.70870  0.09720  0.33290  Biso   1.000  H
  C273     1.0000 0.18550  0.90726  0.73150  Biso   1.000  C
  C274     1.0000 0.81450  0.59274  0.23150  Biso   1.000  C
  C275     1.0000 0.18550  0.09274  0.26850  Biso   1.000  C
  C276     1.0000 0.81450  0.40726  0.76850  Biso   1.000  C
  C277     1.0000 0.68550  0.40726  0.73150  Biso   1.000  C
  C278     1.0000 0.31450  0.09274  0.23150  Biso   1.000  C
  C279     1.0000 0.68550  0.59274  0.26850  Biso   1.000  C
  C280     1.0000 0.31450  0.90726  0.76850  Biso   1.000  C
  C281     1.0000 0.81450  0.09274  0.26850  Biso   1.000  C
  C282     1.0000 0.18550  0.40726  0.76850  Biso   1.000  C
  C283     1.0000 0.81450  0.90726  0.73150  Biso   1.000  C
  C284     1.0000 0.18550  0.59274  0.23150  Biso   1.000  C
  C285     1.0000 0.31450  0.59274  0.26850  Biso   1.000  C
  C286     1.0000 0.68550  0.90726  0.76850  Biso   1.000  C
  C287     1.0000 0.31450  0.40726  0.73150  Biso   1.000  C
  C288     1.0000 0.68550  0.09274  0.23150  Biso   1.000  C
  C289     1.0000 0.17862  0.88866  0.64380  Biso   1.000  C
  C290     1.0000 0.82138  0.61134  0.14380  Biso   1.000  C
  C291     1.0000 0.17862  0.11134  0.35620  Biso   1.000  C
  C292     1.0000 0.82138  0.38866  0.85620  Biso   1.000  C
  C293     1.0000 0.67862  0.38866  0.64380  Biso   1.000  C
  C294     1.0000 0.32138  0.11134  0.14380  Biso   1.000  C
  C295     1.0000 0.67862  0.61134  0.35620  Biso   1.000  C
  C296     1.0000 0.32138  0.88866  0.85620  Biso   1.000  C
  C297     1.0000 0.82138  0.11134  0.35620  Biso   1.000  C
  C298     1.0000 0.17862  0.38866  0.85620  Biso   1.000  C
  C299     1.0000 0.82138  0.88866  0.64380  Biso   1.000  C
  C300     1.0000 0.17862  0.61134  0.14380  Biso   1.000  C
  C301     1.0000 0.32138  0.61134  0.35620  Biso   1.000  C
  C302     1.0000 0.67862  0.88866  0.85620  Biso   1.000  C
  C303     1.0000 0.32138  0.38866  0.64380  Biso   1.000  C
  C304     1.0000 0.67862  0.11134  0.14380  Biso   1.000  C
  H225     1.0000 0.16560  0.89930  0.61430  Biso   1.000  H
  H226     1.0000 0.83440  0.60070  0.11430  Biso   1.000  H
  H227     1.0000 0.16560  0.10070  0.38570  Biso   1.000  H
  H228     1.0000 0.83440  0.39930  0.88570  Biso   1.000  H
  H229     1.0000 0.66560  0.39930  0.61430  Biso   1.000  H
  H230     1.0000 0.33440  0.10070  0.11430  Biso   1.000  H
  H231     1.0000 0.66560  0.60070  0.38570  Biso   1.000  H
  H232     1.0000 0.33440  0.89930  0.88570  Biso   1.000  H
  H233     1.0000 0.83440  0.10070  0.38570  Biso   1.000  H
  H234     1.0000 0.16560  0.39930  0.88570  Biso   1.000  H
  H235     1.0000 0.83440  0.89930  0.61430  Biso   1.000  H
  H236     1.0000 0.16560  0.60070  0.11430  Biso   1.000  H
  H237     1.0000 0.33440  0.60070  0.38570  Biso   1.000  H
  H238     1.0000 0.66560  0.89930  0.88570  Biso   1.000  H
  H239     1.0000 0.33440  0.39930  0.61430  Biso   1.000  H
  H240     1.0000 0.66560  0.10070  0.11430  Biso   1.000  H
  C305     1.0000 0.19076  0.85465  0.59940  Biso   1.000  C
  C306     1.0000 0.80924  0.64535  0.09940  Biso   1.000  C
  C307     1.0000 0.19076  0.14535  0.40060  Biso   1.000  C
  C308     1.0000 0.80924  0.35465  0.90060  Biso   1.000  C
  C309     1.0000 0.69076  0.35465  0.59940  Biso   1.000  C
  C310     1.0000 0.30924  0.14535  0.09940  Biso   1.000  C
  C311     1.0000 0.69076  0.64535  0.40060  Biso   1.000  C
  C312     1.0000 0.30924  0.85465  0.90060  Biso   1.000  C
  C313     1.0000 0.80924  0.14535  0.40060  Biso   1.000  C
  C314     1.0000 0.19076  0.35465  0.90060  Biso   1.000  C
  C315     1.0000 0.80924  0.85465  0.59940  Biso   1.000  C
  C316     1.0000 0.19076  0.64535  0.09940  Biso   1.000  C
  C317     1.0000 0.30924  0.64535  0.40060  Biso   1.000  C
  C318     1.0000 0.69076  0.85465  0.90060  Biso   1.000  C
  C319     1.0000 0.30924  0.35465  0.59940  Biso   1.000  C
  C320     1.0000 0.69076  0.14535  0.09940  Biso   1.000  C
  H241     1.0000 0.18580  0.84230  0.54040  Biso   1.000  H
  H242     1.0000 0.81420  0.65770  0.04040  Biso   1.000  H
  H243     1.0000 0.18580  0.15770  0.45960  Biso   1.000  H
  H244     1.0000 0.81420  0.34230  0.95960  Biso   1.000  H
  H245     1.0000 0.68580  0.34230  0.54040  Biso   1.000  H
  H246     1.0000 0.31420  0.15770  0.04040  Biso   1.000  H
  H247     1.0000 0.68580  0.65770  0.45960  Biso   1.000  H
  H248     1.0000 0.31420  0.84230  0.95960  Biso   1.000  H
  H249     1.0000 0.81420  0.15770  0.45960  Biso   1.000  H
  H250     1.0000 0.18580  0.34230  0.95960  Biso   1.000  H
  H251     1.0000 0.81420  0.84230  0.54040  Biso   1.000  H
  H252     1.0000 0.18580  0.65770  0.04040  Biso   1.000  H
  H253     1.0000 0.31420  0.65770  0.45960  Biso   1.000  H
  H254     1.0000 0.68580  0.84230  0.95960  Biso   1.000  H
  H255     1.0000 0.31420  0.34230  0.54040  Biso   1.000  H
  H256     1.0000 0.68580  0.15770  0.04040  Biso   1.000  H
  C321     1.0000 0.04610  0.97900  0.89170  Biso   1.000  C
  C322     1.0000 0.95390  0.52100  0.39170  Biso   1.000  C
  C323     1.0000 0.04610  0.02100  0.10830  Biso   1.000  C
  C324     1.0000 0.95390  0.47900  0.60830  Biso   1.000  C
  C325     1.0000 0.54610  0.47900  0.89170  Biso   1.000  C
  C326     1.0000 0.45390  0.02100  0.39170  Biso   1.000  C
  C327     1.0000 0.54610  0.52100  0.10830  Biso   1.000  C
  C328     1.0000 0.45390  0.97900  0.60830  Biso   1.000  C
  C329     1.0000 0.95390  0.02100  0.10830  Biso   1.000  C
  C330     1.0000 0.04610  0.47900  0.60830  Biso   1.000  C
  C331     1.0000 0.95390  0.97900  0.89170  Biso   1.000  C
  C332     1.0000 0.04610  0.52100  0.39170  Biso   1.000  C
  C333     1.0000 0.45390  0.52100  0.10830  Biso   1.000  C
  C334     1.0000 0.54610  0.97900  0.60830  Biso   1.000  C
  C335     1.0000 0.45390  0.47900  0.89170  Biso   1.000  C
  C336     1.0000 0.54610  0.02100  0.39170  Biso   1.000  C
  C337     1.0000 0.06907  0.97870  0.86150  Biso   1.000  C
  C338     1.0000 0.93093  0.52130  0.36150  Biso   1.000  C
  C339     1.0000 0.06907  0.02130  0.13850  Biso   1.000  C
  C340     1.0000 0.93093  0.47870  0.63850  Biso   1.000  C
  C341     1.0000 0.56907  0.47870  0.86150  Biso   1.000  C
  C342     1.0000 0.43093  0.02130  0.36150  Biso   1.000  C
  C343     1.0000 0.56907  0.52130  0.13850  Biso   1.000  C
  C344     1.0000 0.43093  0.97870  0.63850  Biso   1.000  C
  C345     1.0000 0.93093  0.02130  0.13850  Biso   1.000  C
  C346     1.0000 0.06907  0.47870  0.63850  Biso   1.000  C
  C347     1.0000 0.93093  0.97870  0.86150  Biso   1.000  C
  C348     1.0000 0.06907  0.52130  0.36150  Biso   1.000  C
  C349     1.0000 0.43093  0.52130  0.13850  Biso   1.000  C
  C350     1.0000 0.56907  0.97870  0.63850  Biso   1.000  C
  C351     1.0000 0.43093  0.47870  0.86150  Biso   1.000  C
  C352     1.0000 0.56907  0.02130  0.36150  Biso   1.000  C
  C353     1.0000 0.07793  0.00920  0.80390  Biso   1.000  C
  C354     1.0000 0.92207  0.49080  0.30390  Biso   1.000  C
  C355     1.0000 0.07793  0.99080  0.19610  Biso   1.000  C
  C356     1.0000 0.92207  0.50920  0.69610  Biso   1.000  C
  C357     1.0000 0.57793  0.50920  0.80390  Biso   1.000  C
  C358     1.0000 0.42207  0.99080  0.30390  Biso   1.000  C
  C359     1.0000 0.57793  0.49080  0.19610  Biso   1.000  C
  C360     1.0000 0.42207  0.00920  0.69610  Biso   1.000  C
  C361     1.0000 0.92207  0.99080  0.19610  Biso   1.000  C
  C362     1.0000 0.07793  0.50920  0.69610  Biso   1.000  C
  C363     1.0000 0.92207  0.00920  0.80390  Biso   1.000  C
  C364     1.0000 0.07793  0.49080  0.30390  Biso   1.000  C
  C365     1.0000 0.42207  0.49080  0.19610  Biso   1.000  C
  C366     1.0000 0.57793  0.00920  0.69610  Biso   1.000  C
  C367     1.0000 0.42207  0.50920  0.80390  Biso   1.000  C
  C368     1.0000 0.57793  0.99080  0.30390  Biso   1.000  C
  H257     1.0000 0.06900  0.02870  0.76690  Biso   1.000  H
  H258     1.0000 0.93100  0.47130  0.26690  Biso   1.000  H
  H259     1.0000 0.06900  0.97130  0.23310  Biso   1.000  H
  H260     1.0000 0.93100  0.52870  0.73310  Biso   1.000  H
  H261     1.0000 0.56900  0.52870  0.76690  Biso   1.000  H
  H262     1.0000 0.43100  0.97130  0.26690  Biso   1.000  H
  H263     1.0000 0.56900  0.47130  0.23310  Biso   1.000  H
  H264     1.0000 0.43100  0.02870  0.73310  Biso   1.000  H
  H265     1.0000 0.93100  0.97130  0.23310  Biso   1.000  H
  H266     1.0000 0.06900  0.52870  0.73310  Biso   1.000  H
  H267     1.0000 0.93100  0.02870  0.76690  Biso   1.000  H
  H268     1.0000 0.06900  0.47130  0.26690  Biso   1.000  H
  H269     1.0000 0.43100  0.47130  0.23310  Biso   1.000  H
  H270     1.0000 0.56900  0.02870  0.73310  Biso   1.000  H
  H271     1.0000 0.43100  0.52870  0.76690  Biso   1.000  H
  H272     1.0000 0.56900  0.97130  0.26690  Biso   1.000  H
  C369     1.0000 0.10096  0.01190  0.79880  Biso   1.000  C
  C370     1.0000 0.89904  0.48810  0.29880  Biso   1.000  C
  C371     1.0000 0.10096  0.98810  0.20120  Biso   1.000  C
  C372     1.0000 0.89904  0.51190  0.70120  Biso   1.000  C
  C373     1.0000 0.60096  0.51190  0.79880  Biso   1.000  C
  C374     1.0000 0.39904  0.98810  0.29880  Biso   1.000  C
  C375     1.0000 0.60096  0.48810  0.20120  Biso   1.000  C
  C376     1.0000 0.39904  0.01190  0.70120  Biso   1.000  C
  C377     1.0000 0.89904  0.98810  0.20120  Biso   1.000  C
  C378     1.0000 0.10096  0.51190  0.70120  Biso   1.000  C
  C379     1.0000 0.89904  0.01190  0.79880  Biso   1.000  C
  C380     1.0000 0.10096  0.48810  0.29880  Biso   1.000  C
  C381     1.0000 0.39904  0.48810  0.20120  Biso   1.000  C
  C382     1.0000 0.60096  0.01190  0.70120  Biso   1.000  C
  C383     1.0000 0.39904  0.51190  0.79880  Biso   1.000  C
  C384     1.0000 0.60096  0.98810  0.29880  Biso   1.000  C
  H273     1.0000 0.10760  0.03420  0.75970  Biso   1.000  H
  H274     1.0000 0.89240  0.46580  0.25970  Biso   1.000  H
  H275     1.0000 0.10760  0.96580  0.24030  Biso   1.000  H
  H276     1.0000 0.89240  0.53420  0.74030  Biso   1.000  H
  H277     1.0000 0.60760  0.53420  0.75970  Biso   1.000  H
  H278     1.0000 0.39240  0.96580  0.25970  Biso   1.000  H
  H279     1.0000 0.60760  0.46580  0.24030  Biso   1.000  H
  H280     1.0000 0.39240  0.03420  0.74030  Biso   1.000  H
  H281     1.0000 0.89240  0.96580  0.24030  Biso   1.000  H
  H282     1.0000 0.10760  0.53420  0.74030  Biso   1.000  H
  H283     1.0000 0.89240  0.03420  0.75970  Biso   1.000  H
  H284     1.0000 0.10760  0.46580  0.25970  Biso   1.000  H
  H285     1.0000 0.39240  0.46580  0.24030  Biso   1.000  H
  H286     1.0000 0.60760  0.03420  0.74030  Biso   1.000  H
  H287     1.0000 0.39240  0.53420  0.75970  Biso   1.000  H
  H288     1.0000 0.60760  0.96580  0.25970  Biso   1.000  H
  C385     1.0000 0.11442  0.98140  0.85170  Biso   1.000  C
  C386     1.0000 0.88558  0.51860  0.35170  Biso   1.000  C
  C387     1.0000 0.11442  0.01860  0.14830  Biso   1.000  C
  C388     1.0000 0.88558  0.48140  0.64830  Biso   1.000  C
  C389     1.0000 0.61442  0.48140  0.85170  Biso   1.000  C
  C390     1.0000 0.38558  0.01860  0.35170  Biso   1.000  C
  C391     1.0000 0.61442  0.51860  0.14830  Biso   1.000  C
  C392     1.0000 0.38558  0.98140  0.64830  Biso   1.000  C
  C393     1.0000 0.88558  0.01860  0.14830  Biso   1.000  C
  C394     1.0000 0.11442  0.48140  0.64830  Biso   1.000  C
  C395     1.0000 0.88558  0.98140  0.85170  Biso   1.000  C
  C396     1.0000 0.11442  0.51860  0.35170  Biso   1.000  C
  C397     1.0000 0.38558  0.51860  0.14830  Biso   1.000  C
  C398     1.0000 0.61442  0.98140  0.64830  Biso   1.000  C
  C399     1.0000 0.38558  0.48140  0.85170  Biso   1.000  C
  C400     1.0000 0.61442  0.01860  0.35170  Biso   1.000  C
  C401     1.0000 0.10436  0.95120  0.91410  Biso   1.000  C
  C402     1.0000 0.89564  0.54880  0.41410  Biso   1.000  C
  C403     1.0000 0.10436  0.04880  0.08590  Biso   1.000  C
  C404     1.0000 0.89564  0.45120  0.58590  Biso   1.000  C
  C405     1.0000 0.60436  0.45120  0.91410  Biso   1.000  C
  C406     1.0000 0.39564  0.04880  0.41410  Biso   1.000  C
  C407     1.0000 0.60436  0.54880  0.08590  Biso   1.000  C
  C408     1.0000 0.39564  0.95120  0.58590  Biso   1.000  C
  C409     1.0000 0.89564  0.04880  0.08590  Biso   1.000  C
  C410     1.0000 0.10436  0.45120  0.58590  Biso   1.000  C
  C411     1.0000 0.89564  0.95120  0.91410  Biso   1.000  C
  C412     1.0000 0.10436  0.54880  0.41410  Biso   1.000  C
  C413     1.0000 0.39564  0.54880  0.08590  Biso   1.000  C
  C414     1.0000 0.60436  0.95120  0.58590  Biso   1.000  C
  C415     1.0000 0.39564  0.45120  0.91410  Biso   1.000  C
  C416     1.0000 0.60436  0.04880  0.41410  Biso   1.000  C
  H289     1.0000 0.11290  0.93160  0.95290  Biso   1.000  H
  H290     1.0000 0.88710  0.56840  0.45290  Biso   1.000  H
  H291     1.0000 0.11290  0.06840  0.04710  Biso   1.000  H
  H292     1.0000 0.88710  0.43160  0.54710  Biso   1.000  H
  H293     1.0000 0.61290  0.43160  0.95290  Biso   1.000  H
  H294     1.0000 0.38710  0.06840  0.45290  Biso   1.000  H
  H295     1.0000 0.61290  0.56840  0.04710  Biso   1.000  H
  H296     1.0000 0.38710  0.93160  0.54710  Biso   1.000  H
  H297     1.0000 0.88710  0.06840  0.04710  Biso   1.000  H
  H298     1.0000 0.11290  0.43160  0.54710  Biso   1.000  H
  H299     1.0000 0.88710  0.93160  0.95290  Biso   1.000  H
  H300     1.0000 0.11290  0.56840  0.45290  Biso   1.000  H
  H301     1.0000 0.38710  0.56840  0.04710  Biso   1.000  H
  H302     1.0000 0.61290  0.93160  0.54710  Biso   1.000  H
  H303     1.0000 0.38710  0.43160  0.95290  Biso   1.000  H
  H304     1.0000 0.61290  0.06840  0.45290  Biso   1.000  H
  C417     1.0000 0.08081  0.95040  0.91870  Biso   1.000  C
  C418     1.0000 0.91919  0.54960  0.41870  Biso   1.000  C
  C419     1.0000 0.08081  0.04960  0.08130  Biso   1.000  C
  C420     1.0000 0.91919  0.45040  0.58130  Biso   1.000  C
  C421     1.0000 0.58081  0.45040  0.91870  Biso   1.000  C
  C422     1.0000 0.41919  0.04960  0.41870  Biso   1.000  C
  C423     1.0000 0.58081  0.54960  0.08130  Biso   1.000  C
  C424     1.0000 0.41919  0.95040  0.58130  Biso   1.000  C
  C425     1.0000 0.91919  0.04960  0.08130  Biso   1.000  C
  C426     1.0000 0.08081  0.45040  0.58130  Biso   1.000  C
  C427     1.0000 0.91919  0.95040  0.91870  Biso   1.000  C
  C428     1.0000 0.08081  0.54960  0.41870  Biso   1.000  C
  C429     1.0000 0.41919  0.54960  0.08130  Biso   1.000  C
  C430     1.0000 0.58081  0.95040  0.58130  Biso   1.000  C
  C431     1.0000 0.41919  0.45040  0.91870  Biso   1.000  C
  C432     1.0000 0.58081  0.04960  0.41870  Biso   1.000  C
  H305     1.0000 0.07350  0.93030  0.96110  Biso   1.000  H
  H306     1.0000 0.92650  0.56970  0.46110  Biso   1.000  H
  H307     1.0000 0.07350  0.06970  0.03890  Biso   1.000  H
  H308     1.0000 0.92650  0.43030  0.53890  Biso   1.000  H
  H309     1.0000 0.57350  0.43030  0.96110  Biso   1.000  H
  H310     1.0000 0.42650  0.06970  0.46110  Biso   1.000  H
  H311     1.0000 0.57350  0.56970  0.03890  Biso   1.000  H
  H312     1.0000 0.42650  0.93030  0.53890  Biso   1.000  H
  H313     1.0000 0.92650  0.06970  0.03890  Biso   1.000  H
  H314     1.0000 0.07350  0.43030  0.53890  Biso   1.000  H
  H315     1.0000 0.92650  0.93030  0.96110  Biso   1.000  H
  H316     1.0000 0.07350  0.56970  0.46110  Biso   1.000  H
  H317     1.0000 0.42650  0.56970  0.03890  Biso   1.000  H
  H318     1.0000 0.57350  0.93030  0.53890  Biso   1.000  H
  H319     1.0000 0.42650  0.43030  0.96110  Biso   1.000  H
  H320     1.0000 0.57350  0.06970  0.46110  Biso   1.000  H
