data_image0
_cell_length_a       28.1527
_cell_length_b       28.1527
_cell_length_c       41.07
_cell_angle_alpha    90
_cell_angle_beta     90
_cell_angle_gamma    90

_symmetry_space_group_name_H-M    "P 1"
_symmetry_int_tables_number       1

loop_
  _symmetry_equiv_pos_as_xyz
  'x, y, z'

loop_
  _atom_site_label
  _atom_site_occupancy
  _atom_site_fract_x
  _atom_site_fract_y
  _atom_site_fract_z
  _atom_site_thermal_displace_type
  _atom_site_B_iso_or_equiv
  _atom_site_type_symbol
  Cu1      1.0000 0.63314  0.90921  0.00000  Biso   1.000  Cu
  Cu2      1.0000 0.36686  0.09079  0.00000  Biso   1.000  Cu
  Cu3      1.0000 0.09079  0.63314  0.00000  Biso   1.000  Cu
  Cu4      1.0000 0.90921  0.36686  0.00000  Biso   1.000  Cu
  Cu5      1.0000 0.13314  0.40921  0.50000  Biso   1.000  Cu
  Cu6      1.0000 0.86686  0.59079  0.50000  Biso   1.000  Cu
  Cu7      1.0000 0.59079  0.13314  0.50000  Biso   1.000  Cu
  Cu8      1.0000 0.40921  0.86686  0.50000  Biso   1.000  Cu
  Cu9      1.0000 0.72477  0.93040  0.00000  Biso   1.000  Cu
  Cu10     1.0000 0.27523  0.06960  0.00000  Biso   1.000  Cu
  Cu11     1.0000 0.06960  0.72477  0.00000  Biso   1.000  Cu
  Cu12     1.0000 0.93040  0.27523  0.00000  Biso   1.000  Cu
  Cu13     1.0000 0.22477  0.43040  0.50000  Biso   1.000  Cu
  Cu14     1.0000 0.77523  0.56960  0.50000  Biso   1.000  Cu
  Cu15     1.0000 0.56960  0.22477  0.50000  Biso   1.000  Cu
  Cu16     1.0000 0.43040  0.77523  0.50000  Biso   1.000  Cu
  Cu17     1.0000 0.82744  0.10072  0.13690  Biso   1.000  Cu
  Cu18     1.0000 0.17256  0.89928  0.13690  Biso   1.000  Cu
  Cu19     1.0000 0.89928  0.82744  0.13690  Biso   1.000  Cu
  Cu20     1.0000 0.10072  0.17256  0.13690  Biso   1.000  Cu
  Cu21     1.0000 0.32744  0.60072  0.63690  Biso   1.000  Cu
  Cu22     1.0000 0.67256  0.39928  0.63690  Biso   1.000  Cu
  Cu23     1.0000 0.39928  0.32744  0.63690  Biso   1.000  Cu
  Cu24     1.0000 0.60072  0.67256  0.63690  Biso   1.000  Cu
  Cu25     1.0000 0.17256  0.89928  0.86310  Biso   1.000  Cu
  Cu26     1.0000 0.82744  0.10072  0.86310  Biso   1.000  Cu
  Cu27     1.0000 0.10072  0.17256  0.86310  Biso   1.000  Cu
  Cu28     1.0000 0.89928  0.82744  0.86310  Biso   1.000  Cu
  Cu29     1.0000 0.67256  0.39928  0.36310  Biso   1.000  Cu
  Cu30     1.0000 0.32744  0.60072  0.36310  Biso   1.000  Cu
  Cu31     1.0000 0.60072  0.67256  0.36310  Biso   1.000  Cu
  Cu32     1.0000 0.39928  0.32744  0.36310  Biso   1.000  Cu
  Cu33     1.0000 0.76972  0.13507  0.18213  Biso   1.000  Cu
  Cu34     1.0000 0.23028  0.86493  0.18213  Biso   1.000  Cu
  Cu35     1.0000 0.86493  0.76972  0.18213  Biso   1.000  Cu
  Cu36     1.0000 0.13507  0.23028  0.18213  Biso   1.000  Cu
  Cu37     1.0000 0.26972  0.63507  0.68213  Biso   1.000  Cu
  Cu38     1.0000 0.73028  0.36493  0.68213  Biso   1.000  Cu
  Cu39     1.0000 0.36493  0.26972  0.68213  Biso   1.000  Cu
  Cu40     1.0000 0.63507  0.73028  0.68213  Biso   1.000  Cu
  Cu41     1.0000 0.23028  0.86493  0.81787  Biso   1.000  Cu
  Cu42     1.0000 0.76972  0.13507  0.81787  Biso   1.000  Cu
  Cu43     1.0000 0.13507  0.23028  0.81787  Biso   1.000  Cu
  Cu44     1.0000 0.86493  0.76972  0.81787  Biso   1.000  Cu
  Cu45     1.0000 0.73028  0.36493  0.31787  Biso   1.000  Cu
  Cu46     1.0000 0.26972  0.63507  0.31787  Biso   1.000  Cu
  Cu47     1.0000 0.63507  0.73028  0.31787  Biso   1.000  Cu
  Cu48     1.0000 0.36493  0.26972  0.31787  Biso   1.000  Cu
  N1       1.0000 0.49800  0.19140  0.15290  Biso   1.000  N
  N2       1.0000 0.50200  0.80860  0.15290  Biso   1.000  N
  N3       1.0000 0.80860  0.49800  0.15290  Biso   1.000  N
  N4       1.0000 0.19140  0.50200  0.15290  Biso   1.000  N
  N5       1.0000 0.99800  0.69140  0.65290  Biso   1.000  N
  N6       1.0000 0.00200  0.30860  0.65290  Biso   1.000  N
  N7       1.0000 0.30860  0.99800  0.65290  Biso   1.000  N
  N8       1.0000 0.69140  0.00200  0.65290  Biso   1.000  N
  N9       1.0000 0.50200  0.80860  0.84710  Biso   1.000  N
  N10      1.0000 0.49800  0.19140  0.84710  Biso   1.000  N
  N11      1.0000 0.19140  0.50200  0.84710  Biso   1.000  N
  N12      1.0000 0.80860  0.49800  0.84710  Biso   1.000  N
  N13      1.0000 0.00200  0.30860  0.34710  Biso   1.000  N
  N14      1.0000 0.99800  0.69140  0.34710  Biso   1.000  N
  N15      1.0000 0.69140  0.00200  0.34710  Biso   1.000  N
  N16      1.0000 0.30860  0.99800  0.34710  Biso   1.000  N
  N17      1.0000 0.49210  0.13600  0.10970  Biso   1.000  N
  N18      1.0000 0.50790  0.86400  0.10970  Biso   1.000  N
  N19      1.0000 0.86400  0.49210  0.10970  Biso   1.000  N
  N20      1.0000 0.13600  0.50790  0.10970  Biso   1.000  N
  N21      1.0000 0.99210  0.63600  0.60970  Biso   1.000  N
  N22      1.0000 0.00790  0.36400  0.60970  Biso   1.000  N
  N23      1.0000 0.36400  0.99210  0.60970  Biso   1.000  N
  N24      1.0000 0.63600  0.00790  0.60970  Biso   1.000  N
  N25      1.0000 0.50790  0.86400  0.89030  Biso   1.000  N
  N26      1.0000 0.49210  0.13600  0.89030  Biso   1.000  N
  N27      1.0000 0.13600  0.50790  0.89030  Biso   1.000  N
  N28      1.0000 0.86400  0.49210  0.89030  Biso   1.000  N
  N29      1.0000 0.00790  0.36400  0.39030  Biso   1.000  N
  N30      1.0000 0.99210  0.63600  0.39030  Biso   1.000  N
  N31      1.0000 0.63600  0.00790  0.39030  Biso   1.000  N
  N32      1.0000 0.36400  0.99210  0.39030  Biso   1.000  N
  N33      1.0000 0.56470  0.14370  0.14080  Biso   1.000  N
  N34      1.0000 0.43530  0.85630  0.14080  Biso   1.000  N
  N35      1.0000 0.85630  0.56470  0.14080  Biso   1.000  N
  N36      1.0000 0.14370  0.43530  0.14080  Biso   1.000  N
  N37      1.0000 0.06470  0.64370  0.64080  Biso   1.000  N
  N38      1.0000 0.93530  0.35630  0.64080  Biso   1.000  N
  N39      1.0000 0.35630  0.06470  0.64080  Biso   1.000  N
  N40      1.0000 0.64370  0.93530  0.64080  Biso   1.000  N
  N41      1.0000 0.43530  0.85630  0.85920  Biso   1.000  N
  N42      1.0000 0.56470  0.14370  0.85920  Biso   1.000  N
  N43      1.0000 0.14370  0.43530  0.85920  Biso   1.000  N
  N44      1.0000 0.85630  0.56470  0.85920  Biso   1.000  N
  N45      1.0000 0.93530  0.35630  0.35920  Biso   1.000  N
  N46      1.0000 0.06470  0.64370  0.35920  Biso   1.000  N
  N47      1.0000 0.64370  0.93530  0.35920  Biso   1.000  N
  N48      1.0000 0.35630  0.06470  0.35920  Biso   1.000  N
  N49      1.0000 0.57040  0.19490  0.18110  Biso   1.000  N
  N50      1.0000 0.42960  0.80510  0.18110  Biso   1.000  N
  N51      1.0000 0.80510  0.57040  0.18110  Biso   1.000  N
  N52      1.0000 0.19490  0.42960  0.18110  Biso   1.000  N
  N53      1.0000 0.07040  0.69490  0.68110  Biso   1.000  N
  N54      1.0000 0.92960  0.30510  0.68110  Biso   1.000  N
  N55      1.0000 0.30510  0.07040  0.68110  Biso   1.000  N
  N56      1.0000 0.69490  0.92960  0.68110  Biso   1.000  N
  N57      1.0000 0.42960  0.80510  0.81890  Biso   1.000  N
  N58      1.0000 0.57040  0.19490  0.81890  Biso   1.000  N
  N59      1.0000 0.19490  0.42960  0.81890  Biso   1.000  N
  N60      1.0000 0.80510  0.57040  0.81890  Biso   1.000  N
  N61      1.0000 0.92960  0.30510  0.31890  Biso   1.000  N
  N62      1.0000 0.07040  0.69490  0.31890  Biso   1.000  N
  N63      1.0000 0.69490  0.92960  0.31890  Biso   1.000  N
  N64      1.0000 0.30510  0.07040  0.31890  Biso   1.000  N
  N65      1.0000 0.50190  0.24340  0.19850  Biso   1.000  N
  N66      1.0000 0.49810  0.75660  0.19850  Biso   1.000  N
  N67      1.0000 0.75660  0.50190  0.19850  Biso   1.000  N
  N68      1.0000 0.24340  0.49810  0.19850  Biso   1.000  N
  N69      1.0000 0.00190  0.74340  0.69850  Biso   1.000  N
  N70      1.0000 0.99810  0.25660  0.69850  Biso   1.000  N
  N71      1.0000 0.25660  0.00190  0.69850  Biso   1.000  N
  N72      1.0000 0.74340  0.99810  0.69850  Biso   1.000  N
  N73      1.0000 0.49810  0.75660  0.80150  Biso   1.000  N
  N74      1.0000 0.50190  0.24340  0.80150  Biso   1.000  N
  N75      1.0000 0.24340  0.49810  0.80150  Biso   1.000  N
  N76      1.0000 0.75660  0.50190  0.80150  Biso   1.000  N
  N77      1.0000 0.99810  0.25660  0.30150  Biso   1.000  N
  N78      1.0000 0.00190  0.74340  0.30150  Biso   1.000  N
  N79      1.0000 0.74340  0.99810  0.30150  Biso   1.000  N
  N80      1.0000 0.25660  0.00190  0.30150  Biso   1.000  N
  N81      1.0000 0.43520  0.24060  0.16810  Biso   1.000  N
  N82      1.0000 0.56480  0.75940  0.16810  Biso   1.000  N
  N83      1.0000 0.75940  0.43520  0.16810  Biso   1.000  N
  N84      1.0000 0.24060  0.56480  0.16810  Biso   1.000  N
  N85      1.0000 0.93520  0.74060  0.66810  Biso   1.000  N
  N86      1.0000 0.06480  0.25940  0.66810  Biso   1.000  N
  N87      1.0000 0.25940  0.93520  0.66810  Biso   1.000  N
  N88      1.0000 0.74060  0.06480  0.66810  Biso   1.000  N
  N89      1.0000 0.56480  0.75940  0.83190  Biso   1.000  N
  N90      1.0000 0.43520  0.24060  0.83190  Biso   1.000  N
  N91      1.0000 0.24060  0.56480  0.83190  Biso   1.000  N
  N92      1.0000 0.75940  0.43520  0.83190  Biso   1.000  N
  N93      1.0000 0.06480  0.25940  0.33190  Biso   1.000  N
  N94      1.0000 0.93520  0.74060  0.33190  Biso   1.000  N
  N95      1.0000 0.74060  0.06480  0.33190  Biso   1.000  N
  N96      1.0000 0.25940  0.93520  0.33190  Biso   1.000  N
  N97      1.0000 0.42810  0.18050  0.12310  Biso   1.000  N
  N98      1.0000 0.57190  0.81950  0.12310  Biso   1.000  N
  N99      1.0000 0.81950  0.42810  0.12310  Biso   1.000  N
  N100     1.0000 0.18050  0.57190  0.12310  Biso   1.000  N
  N101     1.0000 0.92810  0.68050  0.62310  Biso   1.000  N
  N102     1.0000 0.07190  0.31950  0.62310  Biso   1.000  N
  N103     1.0000 0.31950  0.92810  0.62310  Biso   1.000  N
  N104     1.0000 0.68050  0.07190  0.62310  Biso   1.000  N
  N105     1.0000 0.57190  0.81950  0.87690  Biso   1.000  N
  N106     1.0000 0.42810  0.18050  0.87690  Biso   1.000  N
  N107     1.0000 0.18050  0.57190  0.87690  Biso   1.000  N
  N108     1.0000 0.81950  0.42810  0.87690  Biso   1.000  N
  N109     1.0000 0.07190  0.31950  0.37690  Biso   1.000  N
  N110     1.0000 0.92810  0.68050  0.37690  Biso   1.000  N
  N111     1.0000 0.68050  0.07190  0.37690  Biso   1.000  N
  N112     1.0000 0.31950  0.92810  0.37690  Biso   1.000  N
  N113     1.0000 0.55730  0.08970  0.09710  Biso   1.000  N
  N114     1.0000 0.44270  0.91030  0.09710  Biso   1.000  N
  N115     1.0000 0.91030  0.55730  0.09710  Biso   1.000  N
  N116     1.0000 0.08970  0.44270  0.09710  Biso   1.000  N
  N117     1.0000 0.05730  0.58970  0.59710  Biso   1.000  N
  N118     1.0000 0.94270  0.41030  0.59710  Biso   1.000  N
  N119     1.0000 0.41030  0.05730  0.59710  Biso   1.000  N
  N120     1.0000 0.58970  0.94270  0.59710  Biso   1.000  N
  N121     1.0000 0.44270  0.91030  0.90290  Biso   1.000  N
  N122     1.0000 0.55730  0.08970  0.90290  Biso   1.000  N
  N123     1.0000 0.08970  0.44270  0.90290  Biso   1.000  N
  N124     1.0000 0.91030  0.55730  0.90290  Biso   1.000  N
  N125     1.0000 0.94270  0.41030  0.40290  Biso   1.000  N
  N126     1.0000 0.05730  0.58970  0.40290  Biso   1.000  N
  N127     1.0000 0.58970  0.94270  0.40290  Biso   1.000  N
  N128     1.0000 0.41030  0.05730  0.40290  Biso   1.000  N
  H1       1.0000 0.53760  0.07670  0.08380  Biso   1.000  H
  H2       1.0000 0.46240  0.92330  0.08380  Biso   1.000  H
  H3       1.0000 0.92330  0.53760  0.08380  Biso   1.000  H
  H4       1.0000 0.07670  0.46240  0.08380  Biso   1.000  H
  H5       1.0000 0.03760  0.57670  0.58380  Biso   1.000  H
  H6       1.0000 0.96240  0.42330  0.58380  Biso   1.000  H
  H7       1.0000 0.42330  0.03760  0.58380  Biso   1.000  H
  H8       1.0000 0.57670  0.96240  0.58380  Biso   1.000  H
  H9       1.0000 0.46240  0.92330  0.91620  Biso   1.000  H
  H10      1.0000 0.53760  0.07670  0.91620  Biso   1.000  H
  H11      1.0000 0.07670  0.46240  0.91620  Biso   1.000  H
  H12      1.0000 0.92330  0.53760  0.91620  Biso   1.000  H
  H13      1.0000 0.96240  0.42330  0.41620  Biso   1.000  H
  H14      1.0000 0.03760  0.57670  0.41620  Biso   1.000  H
  H15      1.0000 0.57670  0.96240  0.41620  Biso   1.000  H
  H16      1.0000 0.42330  0.03760  0.41620  Biso   1.000  H
  N129     1.0000 0.57320  0.24340  0.22530  Biso   1.000  N
  N130     1.0000 0.42680  0.75660  0.22530  Biso   1.000  N
  N131     1.0000 0.75660  0.57320  0.22530  Biso   1.000  N
  N132     1.0000 0.24340  0.42680  0.22530  Biso   1.000  N
  N133     1.0000 0.07320  0.74340  0.72530  Biso   1.000  N
  N134     1.0000 0.92680  0.25660  0.72530  Biso   1.000  N
  N135     1.0000 0.25660  0.07320  0.72530  Biso   1.000  N
  N136     1.0000 0.74340  0.92680  0.72530  Biso   1.000  N
  N137     1.0000 0.42680  0.75660  0.77470  Biso   1.000  N
  N138     1.0000 0.57320  0.24340  0.77470  Biso   1.000  N
  N139     1.0000 0.24340  0.42680  0.77470  Biso   1.000  N
  N140     1.0000 0.75660  0.57320  0.77470  Biso   1.000  N
  N141     1.0000 0.92680  0.25660  0.27470  Biso   1.000  N
  N142     1.0000 0.07320  0.74340  0.27470  Biso   1.000  N
  N143     1.0000 0.74340  0.92680  0.27470  Biso   1.000  N
  N144     1.0000 0.25660  0.07320  0.27470  Biso   1.000  N
  H17      1.0000 0.60270  0.23560  0.22490  Biso   1.000  H
  H18      1.0000 0.39730  0.76440  0.22490  Biso   1.000  H
  H19      1.0000 0.76440  0.60270  0.22490  Biso   1.000  H
  H20      1.0000 0.23560  0.39730  0.22490  Biso   1.000  H
  H21      1.0000 0.10270  0.73560  0.72490  Biso   1.000  H
  H22      1.0000 0.89730  0.26440  0.72490  Biso   1.000  H
  H23      1.0000 0.26440  0.10270  0.72490  Biso   1.000  H
  H24      1.0000 0.73560  0.89730  0.72490  Biso   1.000  H
  H25      1.0000 0.39730  0.76440  0.77510  Biso   1.000  H
  H26      1.0000 0.60270  0.23560  0.77510  Biso   1.000  H
  H27      1.0000 0.23560  0.39730  0.77510  Biso   1.000  H
  H28      1.0000 0.76440  0.60270  0.77510  Biso   1.000  H
  H29      1.0000 0.89730  0.26440  0.27510  Biso   1.000  H
  H30      1.0000 0.10270  0.73560  0.27510  Biso   1.000  H
  H31      1.0000 0.73560  0.89730  0.27510  Biso   1.000  H
  H32      1.0000 0.26440  0.10270  0.27510  Biso   1.000  H
  N145     1.0000 0.36600  0.23180  0.13830  Biso   1.000  N
  N146     1.0000 0.63400  0.76820  0.13830  Biso   1.000  N
  N147     1.0000 0.76820  0.36600  0.13830  Biso   1.000  N
  N148     1.0000 0.23180  0.63400  0.13830  Biso   1.000  N
  N149     1.0000 0.86600  0.73180  0.63830  Biso   1.000  N
  N150     1.0000 0.13400  0.26820  0.63830  Biso   1.000  N
  N151     1.0000 0.26820  0.86600  0.63830  Biso   1.000  N
  N152     1.0000 0.73180  0.13400  0.63830  Biso   1.000  N
  N153     1.0000 0.63400  0.76820  0.86170  Biso   1.000  N
  N154     1.0000 0.36600  0.23180  0.86170  Biso   1.000  N
  N155     1.0000 0.23180  0.63400  0.86170  Biso   1.000  N
  N156     1.0000 0.76820  0.36600  0.86170  Biso   1.000  N
  N157     1.0000 0.13400  0.26820  0.36170  Biso   1.000  N
  N158     1.0000 0.86600  0.73180  0.36170  Biso   1.000  N
  N159     1.0000 0.73180  0.13400  0.36170  Biso   1.000  N
  N160     1.0000 0.26820  0.86600  0.36170  Biso   1.000  N
  H33      1.0000 0.35940  0.25800  0.14810  Biso   1.000  H
  H34      1.0000 0.64060  0.74200  0.14810  Biso   1.000  H
  H35      1.0000 0.74200  0.35940  0.14810  Biso   1.000  H
  H36      1.0000 0.25800  0.64060  0.14810  Biso   1.000  H
  H37      1.0000 0.85940  0.75800  0.64810  Biso   1.000  H
  H38      1.0000 0.14060  0.24200  0.64810  Biso   1.000  H
  H39      1.0000 0.24200  0.85940  0.64810  Biso   1.000  H
  H40      1.0000 0.75800  0.14060  0.64810  Biso   1.000  H
  H41      1.0000 0.64060  0.74200  0.85190  Biso   1.000  H
  H42      1.0000 0.35940  0.25800  0.85190  Biso   1.000  H
  H43      1.0000 0.25800  0.64060  0.85190  Biso   1.000  H
  H44      1.0000 0.74200  0.35940  0.85190  Biso   1.000  H
  H45      1.0000 0.14060  0.24200  0.35190  Biso   1.000  H
  H46      1.0000 0.85940  0.75800  0.35190  Biso   1.000  H
  H47      1.0000 0.75800  0.14060  0.35190  Biso   1.000  H
  H48      1.0000 0.24200  0.85940  0.35190  Biso   1.000  H
  O1       1.0000 0.62710  0.95730  0.03253  Biso   1.000  O
  O2       1.0000 0.37290  0.04270  0.03253  Biso   1.000  O
  O3       1.0000 0.04270  0.62710  0.03253  Biso   1.000  O
  O4       1.0000 0.95730  0.37290  0.03253  Biso   1.000  O
  O5       1.0000 0.12710  0.45730  0.53253  Biso   1.000  O
  O6       1.0000 0.87290  0.54270  0.53253  Biso   1.000  O
  O7       1.0000 0.54270  0.12710  0.53253  Biso   1.000  O
  O8       1.0000 0.45730  0.87290  0.53253  Biso   1.000  O
  O9       1.0000 0.37290  0.04270  0.96747  Biso   1.000  O
  O10      1.0000 0.62710  0.95730  0.96747  Biso   1.000  O
  O11      1.0000 0.95730  0.37290  0.96747  Biso   1.000  O
  O12      1.0000 0.04270  0.62710  0.96747  Biso   1.000  O
  O13      1.0000 0.87290  0.54270  0.46747  Biso   1.000  O
  O14      1.0000 0.12710  0.45730  0.46747  Biso   1.000  O
  O15      1.0000 0.45730  0.87290  0.46747  Biso   1.000  O
  O16      1.0000 0.54270  0.12710  0.46747  Biso   1.000  O
  O17      1.0000 0.70490  0.97596  0.03320  Biso   1.000  O
  O18      1.0000 0.29510  0.02404  0.03320  Biso   1.000  O
  O19      1.0000 0.02404  0.70490  0.03320  Biso   1.000  O
  O20      1.0000 0.97596  0.29510  0.03320  Biso   1.000  O
  O21      1.0000 0.20490  0.47596  0.53320  Biso   1.000  O
  O22      1.0000 0.79510  0.52404  0.53320  Biso   1.000  O
  O23      1.0000 0.52404  0.20490  0.53320  Biso   1.000  O
  O24      1.0000 0.47596  0.79510  0.53320  Biso   1.000  O
  O25      1.0000 0.29510  0.02404  0.96680  Biso   1.000  O
  O26      1.0000 0.70490  0.97596  0.96680  Biso   1.000  O
  O27      1.0000 0.97596  0.29510  0.96680  Biso   1.000  O
  O28      1.0000 0.02404  0.70490  0.96680  Biso   1.000  O
  O29      1.0000 0.79510  0.52404  0.46680  Biso   1.000  O
  O30      1.0000 0.20490  0.47596  0.46680  Biso   1.000  O
  O31      1.0000 0.47596  0.79510  0.46680  Biso   1.000  O
  O32      1.0000 0.52404  0.20490  0.46680  Biso   1.000  O
  O33      1.0000 0.76800  0.07911  0.11675  Biso   1.000  O
  O34      1.0000 0.23200  0.92089  0.11675  Biso   1.000  O
  O35      1.0000 0.92089  0.76800  0.11675  Biso   1.000  O
  O36      1.0000 0.07911  0.23200  0.11675  Biso   1.000  O
  O37      1.0000 0.26800  0.57911  0.61675  Biso   1.000  O
  O38      1.0000 0.73200  0.42089  0.61675  Biso   1.000  O
  O39      1.0000 0.42089  0.26800  0.61675  Biso   1.000  O
  O40      1.0000 0.57911  0.73200  0.61675  Biso   1.000  O
  O41      1.0000 0.23200  0.92089  0.88325  Biso   1.000  O
  O42      1.0000 0.76800  0.07911  0.88325  Biso   1.000  O
  O43      1.0000 0.07911  0.23200  0.88325  Biso   1.000  O
  O44      1.0000 0.92089  0.76800  0.88325  Biso   1.000  O
  O45      1.0000 0.73200  0.42089  0.38325  Biso   1.000  O
  O46      1.0000 0.26800  0.57911  0.38325  Biso   1.000  O
  O47      1.0000 0.57911  0.73200  0.38325  Biso   1.000  O
  O48      1.0000 0.42089  0.26800  0.38325  Biso   1.000  O
  O49      1.0000 0.71874  0.11235  0.15359  Biso   1.000  O
  O50      1.0000 0.28126  0.88765  0.15359  Biso   1.000  O
  O51      1.0000 0.88765  0.71874  0.15359  Biso   1.000  O
  O52      1.0000 0.11235  0.28126  0.15359  Biso   1.000  O
  O53      1.0000 0.21874  0.61235  0.65359  Biso   1.000  O
  O54      1.0000 0.78126  0.38765  0.65359  Biso   1.000  O
  O55      1.0000 0.38765  0.21874  0.65359  Biso   1.000  O
  O56      1.0000 0.61235  0.78126  0.65359  Biso   1.000  O
  O57      1.0000 0.28126  0.88765  0.84641  Biso   1.000  O
  O58      1.0000 0.71874  0.11235  0.84641  Biso   1.000  O
  O59      1.0000 0.11235  0.28126  0.84641  Biso   1.000  O
  O60      1.0000 0.88765  0.71874  0.84641  Biso   1.000  O
  O61      1.0000 0.78126  0.38765  0.34641  Biso   1.000  O
  O62      1.0000 0.21874  0.61235  0.34641  Biso   1.000  O
  O63      1.0000 0.61235  0.78126  0.34641  Biso   1.000  O
  O64      1.0000 0.38765  0.21874  0.34641  Biso   1.000  O
  O65      1.0000 0.42868  0.27553  0.29861  Biso   1.000  O
  O66      1.0000 0.57132  0.72447  0.29861  Biso   1.000  O
  O67      1.0000 0.72447  0.42868  0.29861  Biso   1.000  O
  O68      1.0000 0.27553  0.57132  0.29861  Biso   1.000  O
  O69      1.0000 0.92868  0.77553  0.79861  Biso   1.000  O
  O70      1.0000 0.07132  0.22447  0.79861  Biso   1.000  O
  O71      1.0000 0.22447  0.92868  0.79861  Biso   1.000  O
  O72      1.0000 0.77553  0.07132  0.79861  Biso   1.000  O
  O73      1.0000 0.57132  0.72447  0.70139  Biso   1.000  O
  O74      1.0000 0.42868  0.27553  0.70139  Biso   1.000  O
  O75      1.0000 0.27553  0.57132  0.70139  Biso   1.000  O
  O76      1.0000 0.72447  0.42868  0.70139  Biso   1.000  O
  O77      1.0000 0.07132  0.22447  0.20139  Biso   1.000  O
  O78      1.0000 0.92868  0.77553  0.20139  Biso   1.000  O
  O79      1.0000 0.77553  0.07132  0.20139  Biso   1.000  O
  O80      1.0000 0.22447  0.92868  0.20139  Biso   1.000  O
  O81      1.0000 0.45581  0.32740  0.33526  Biso   1.000  O
  O82      1.0000 0.54419  0.67260  0.33526  Biso   1.000  O
  O83      1.0000 0.67260  0.45581  0.33526  Biso   1.000  O
  O84      1.0000 0.32740  0.54419  0.33526  Biso   1.000  O
  O85      1.0000 0.95581  0.82740  0.83526  Biso   1.000  O
  O86      1.0000 0.04419  0.17260  0.83526  Biso   1.000  O
  O87      1.0000 0.17260  0.95581  0.83526  Biso   1.000  O
  O88      1.0000 0.82740  0.04419  0.83526  Biso   1.000  O
  O89      1.0000 0.54419  0.67260  0.66474  Biso   1.000  O
  O90      1.0000 0.45581  0.32740  0.66474  Biso   1.000  O
  O91      1.0000 0.32740  0.54419  0.66474  Biso   1.000  O
  O92      1.0000 0.67260  0.45581  0.66474  Biso   1.000  O
  O93      1.0000 0.04419  0.17260  0.16474  Biso   1.000  O
  O94      1.0000 0.95581  0.82740  0.16474  Biso   1.000  O
  O95      1.0000 0.82740  0.04419  0.16474  Biso   1.000  O
  O96      1.0000 0.17260  0.95581  0.16474  Biso   1.000  O
  O97      1.0000 0.62240  0.37107  0.33670  Biso   1.000  O
  O98      1.0000 0.37760  0.62893  0.33670  Biso   1.000  O
  O99      1.0000 0.62893  0.62240  0.33670  Biso   1.000  O
  O100     1.0000 0.37107  0.37760  0.33670  Biso   1.000  O
  O101     1.0000 0.12240  0.87107  0.83670  Biso   1.000  O
  O102     1.0000 0.87760  0.12893  0.83670  Biso   1.000  O
  O103     1.0000 0.12893  0.12240  0.83670  Biso   1.000  O
  O104     1.0000 0.87107  0.87760  0.83670  Biso   1.000  O
  O105     1.0000 0.37760  0.62893  0.66330  Biso   1.000  O
  O106     1.0000 0.62240  0.37107  0.66330  Biso   1.000  O
  O107     1.0000 0.37107  0.37760  0.66330  Biso   1.000  O
  O108     1.0000 0.62893  0.62240  0.66330  Biso   1.000  O
  O109     1.0000 0.87760  0.12893  0.16330  Biso   1.000  O
  O110     1.0000 0.12240  0.87107  0.16330  Biso   1.000  O
  O111     1.0000 0.87107  0.87760  0.16330  Biso   1.000  O
  O112     1.0000 0.12893  0.12240  0.16330  Biso   1.000  O
  O113     1.0000 0.67178  0.34614  0.29673  Biso   1.000  O
  O114     1.0000 0.32822  0.65386  0.29673  Biso   1.000  O
  O115     1.0000 0.65386  0.67178  0.29673  Biso   1.000  O
  O116     1.0000 0.34614  0.32822  0.29673  Biso   1.000  O
  O117     1.0000 0.17178  0.84614  0.79673  Biso   1.000  O
  O118     1.0000 0.82822  0.15386  0.79673  Biso   1.000  O
  O119     1.0000 0.15386  0.17178  0.79673  Biso   1.000  O
  O120     1.0000 0.84614  0.82822  0.79673  Biso   1.000  O
  O121     1.0000 0.32822  0.65386  0.70327  Biso   1.000  O
  O122     1.0000 0.67178  0.34614  0.70327  Biso   1.000  O
  O123     1.0000 0.34614  0.32822  0.70327  Biso   1.000  O
  O124     1.0000 0.65386  0.67178  0.70327  Biso   1.000  O
  O125     1.0000 0.82822  0.15386  0.20327  Biso   1.000  O
  O126     1.0000 0.17178  0.84614  0.20327  Biso   1.000  O
  O127     1.0000 0.84614  0.82822  0.20327  Biso   1.000  O
  O128     1.0000 0.15386  0.17178  0.20327  Biso   1.000  O
  O129     1.0000 0.34710  0.13461  0.03473  Biso   1.000  O
  O130     1.0000 0.65290  0.86539  0.03473  Biso   1.000  O
  O131     1.0000 0.86539  0.34710  0.03473  Biso   1.000  O
  O132     1.0000 0.13461  0.65290  0.03473  Biso   1.000  O
  O133     1.0000 0.84710  0.63461  0.53473  Biso   1.000  O
  O134     1.0000 0.15290  0.36539  0.53473  Biso   1.000  O
  O135     1.0000 0.36539  0.84710  0.53473  Biso   1.000  O
  O136     1.0000 0.63461  0.15290  0.53473  Biso   1.000  O
  O137     1.0000 0.65290  0.86539  0.96527  Biso   1.000  O
  O138     1.0000 0.34710  0.13461  0.96527  Biso   1.000  O
  O139     1.0000 0.13461  0.65290  0.96527  Biso   1.000  O
  O140     1.0000 0.86539  0.34710  0.96527  Biso   1.000  O
  O141     1.0000 0.15290  0.36539  0.46527  Biso   1.000  O
  O142     1.0000 0.84710  0.63461  0.46527  Biso   1.000  O
  O143     1.0000 0.63461  0.15290  0.46527  Biso   1.000  O
  O144     1.0000 0.36539  0.84710  0.46527  Biso   1.000  O
  O145     1.0000 0.27120  0.11830  0.03369  Biso   1.000  O
  O146     1.0000 0.72880  0.88170  0.03369  Biso   1.000  O
  O147     1.0000 0.88170  0.27120  0.03369  Biso   1.000  O
  O148     1.0000 0.11830  0.72880  0.03369  Biso   1.000  O
  O149     1.0000 0.77120  0.61830  0.53369  Biso   1.000  O
  O150     1.0000 0.22880  0.38170  0.53369  Biso   1.000  O
  O151     1.0000 0.38170  0.77120  0.53369  Biso   1.000  O
  O152     1.0000 0.61830  0.22880  0.53369  Biso   1.000  O
  O153     1.0000 0.72880  0.88170  0.96631  Biso   1.000  O
  O154     1.0000 0.27120  0.11830  0.96631  Biso   1.000  O
  O155     1.0000 0.11830  0.72880  0.96631  Biso   1.000  O
  O156     1.0000 0.88170  0.27120  0.96631  Biso   1.000  O
  O157     1.0000 0.22880  0.38170  0.46631  Biso   1.000  O
  O158     1.0000 0.77120  0.61830  0.46631  Biso   1.000  O
  O159     1.0000 0.61830  0.22880  0.46631  Biso   1.000  O
  O160     1.0000 0.38170  0.77120  0.46631  Biso   1.000  O
  O161     1.0000 0.16460  0.18110  0.11711  Biso   1.000  O
  O162     1.0000 0.83540  0.81890  0.11711  Biso   1.000  O
  O163     1.0000 0.81890  0.16460  0.11711  Biso   1.000  O
  O164     1.0000 0.18110  0.83540  0.11711  Biso   1.000  O
  O165     1.0000 0.66460  0.68110  0.61711  Biso   1.000  O
  O166     1.0000 0.33540  0.31890  0.61711  Biso   1.000  O
  O167     1.0000 0.31890  0.66460  0.61711  Biso   1.000  O
  O168     1.0000 0.68110  0.33540  0.61711  Biso   1.000  O
  O169     1.0000 0.83540  0.81890  0.88289  Biso   1.000  O
  O170     1.0000 0.16460  0.18110  0.88289  Biso   1.000  O
  O171     1.0000 0.18110  0.83540  0.88289  Biso   1.000  O
  O172     1.0000 0.81890  0.16460  0.88289  Biso   1.000  O
  O173     1.0000 0.33540  0.31890  0.38289  Biso   1.000  O
  O174     1.0000 0.66460  0.68110  0.38289  Biso   1.000  O
  O175     1.0000 0.68110  0.33540  0.38289  Biso   1.000  O
  O176     1.0000 0.31890  0.66460  0.38289  Biso   1.000  O
  O177     1.0000 0.19320  0.22620  0.15719  Biso   1.000  O
  O178     1.0000 0.80680  0.77380  0.15719  Biso   1.000  O
  O179     1.0000 0.77380  0.19320  0.15719  Biso   1.000  O
  O180     1.0000 0.22620  0.80680  0.15719  Biso   1.000  O
  O181     1.0000 0.69320  0.72620  0.65719  Biso   1.000  O
  O182     1.0000 0.30680  0.27380  0.65719  Biso   1.000  O
  O183     1.0000 0.27380  0.69320  0.65719  Biso   1.000  O
  O184     1.0000 0.72620  0.30680  0.65719  Biso   1.000  O
  O185     1.0000 0.80680  0.77380  0.84281  Biso   1.000  O
  O186     1.0000 0.19320  0.22620  0.84281  Biso   1.000  O
  O187     1.0000 0.22620  0.80680  0.84281  Biso   1.000  O
  O188     1.0000 0.77380  0.19320  0.84281  Biso   1.000  O
  O189     1.0000 0.30680  0.27380  0.34281  Biso   1.000  O
  O190     1.0000 0.69320  0.72620  0.34281  Biso   1.000  O
  O191     1.0000 0.72620  0.30680  0.34281  Biso   1.000  O
  O192     1.0000 0.27380  0.69320  0.34281  Biso   1.000  O
  O193     1.0000 0.55961  0.88710  0.00000  Biso   1.000  O
  O194     1.0000 0.44039  0.11290  0.00000  Biso   1.000  O
  O195     1.0000 0.11290  0.55961  0.00000  Biso   1.000  O
  O196     1.0000 0.88710  0.44039  0.00000  Biso   1.000  O
  O197     1.0000 0.05961  0.38710  0.50000  Biso   1.000  O
  O198     1.0000 0.94039  0.61290  0.50000  Biso   1.000  O
  O199     1.0000 0.61290  0.05961  0.50000  Biso   1.000  O
  O200     1.0000 0.38710  0.94039  0.50000  Biso   1.000  O
  O201     1.0000 0.79780  0.95020  0.00000  Biso   1.000  O
  O202     1.0000 0.20220  0.04980  0.00000  Biso   1.000  O
  O203     1.0000 0.04980  0.79780  0.00000  Biso   1.000  O
  O204     1.0000 0.95020  0.20220  0.00000  Biso   1.000  O
  O205     1.0000 0.29780  0.45020  0.50000  Biso   1.000  O
  O206     1.0000 0.70220  0.54980  0.50000  Biso   1.000  O
  O207     1.0000 0.54980  0.29780  0.50000  Biso   1.000  O
  O208     1.0000 0.45020  0.70220  0.50000  Biso   1.000  O
  O209     1.0000 0.87430  0.07360  0.09931  Biso   1.000  O
  O210     1.0000 0.12570  0.92640  0.09931  Biso   1.000  O
  O211     1.0000 0.92640  0.87430  0.09931  Biso   1.000  O
  O212     1.0000 0.07360  0.12570  0.09931  Biso   1.000  O
  O213     1.0000 0.37430  0.57360  0.59931  Biso   1.000  O
  O214     1.0000 0.62570  0.42640  0.59931  Biso   1.000  O
  O215     1.0000 0.42640  0.37430  0.59931  Biso   1.000  O
  O216     1.0000 0.57360  0.62570  0.59931  Biso   1.000  O
  O217     1.0000 0.12570  0.92640  0.90069  Biso   1.000  O
  O218     1.0000 0.87430  0.07360  0.90069  Biso   1.000  O
  O219     1.0000 0.07360  0.12570  0.90069  Biso   1.000  O
  O220     1.0000 0.92640  0.87430  0.90069  Biso   1.000  O
  O221     1.0000 0.62570  0.42640  0.40069  Biso   1.000  O
  O222     1.0000 0.37430  0.57360  0.40069  Biso   1.000  O
  O223     1.0000 0.57360  0.62570  0.40069  Biso   1.000  O
  O224     1.0000 0.42640  0.37430  0.40069  Biso   1.000  O
  O225     1.0000 0.72160  0.16390  0.21946  Biso   1.000  O
  O226     1.0000 0.27840  0.83610  0.21946  Biso   1.000  O
  O227     1.0000 0.83610  0.72160  0.21946  Biso   1.000  O
  O228     1.0000 0.16390  0.27840  0.21946  Biso   1.000  O
  O229     1.0000 0.22160  0.66390  0.71946  Biso   1.000  O
  O230     1.0000 0.77840  0.33610  0.71946  Biso   1.000  O
  O231     1.0000 0.33610  0.22160  0.71946  Biso   1.000  O
  O232     1.0000 0.66390  0.77840  0.71946  Biso   1.000  O
  O233     1.0000 0.27840  0.83610  0.78054  Biso   1.000  O
  O234     1.0000 0.72160  0.16390  0.78054  Biso   1.000  O
  O235     1.0000 0.16390  0.27840  0.78054  Biso   1.000  O
  O236     1.0000 0.83610  0.72160  0.78054  Biso   1.000  O
  O237     1.0000 0.77840  0.33610  0.28054  Biso   1.000  O
  O238     1.0000 0.22160  0.66390  0.28054  Biso   1.000  O
  O239     1.0000 0.66390  0.77840  0.28054  Biso   1.000  O
  O240     1.0000 0.33610  0.22160  0.28054  Biso   1.000  O
  C1       1.0000 0.47120  0.16630  0.12740  Biso   1.000  C
  C2       1.0000 0.52880  0.83370  0.12740  Biso   1.000  C
  C3       1.0000 0.83370  0.47120  0.12740  Biso   1.000  C
  C4       1.0000 0.16630  0.52880  0.12740  Biso   1.000  C
  C5       1.0000 0.97120  0.66630  0.62740  Biso   1.000  C
  C6       1.0000 0.02880  0.33370  0.62740  Biso   1.000  C
  C7       1.0000 0.33370  0.97120  0.62740  Biso   1.000  C
  C8       1.0000 0.66630  0.02880  0.62740  Biso   1.000  C
  C9       1.0000 0.52880  0.83370  0.87260  Biso   1.000  C
  C10      1.0000 0.47120  0.16630  0.87260  Biso   1.000  C
  C11      1.0000 0.16630  0.52880  0.87260  Biso   1.000  C
  C12      1.0000 0.83370  0.47120  0.87260  Biso   1.000  C
  C13      1.0000 0.02880  0.33370  0.37260  Biso   1.000  C
  C14      1.0000 0.97120  0.66630  0.37260  Biso   1.000  C
  C15      1.0000 0.66630  0.02880  0.37260  Biso   1.000  C
  C16      1.0000 0.33370  0.97120  0.37260  Biso   1.000  C
  C17      1.0000 0.53900  0.12240  0.11570  Biso   1.000  C
  C18      1.0000 0.46100  0.87760  0.11570  Biso   1.000  C
  C19      1.0000 0.87760  0.53900  0.11570  Biso   1.000  C
  C20      1.0000 0.12240  0.46100  0.11570  Biso   1.000  C
  C21      1.0000 0.03900  0.62240  0.61570  Biso   1.000  C
  C22      1.0000 0.96100  0.37760  0.61570  Biso   1.000  C
  C23      1.0000 0.37760  0.03900  0.61570  Biso   1.000  C
  C24      1.0000 0.62240  0.96100  0.61570  Biso   1.000  C
  C25      1.0000 0.46100  0.87760  0.88430  Biso   1.000  C
  C26      1.0000 0.53900  0.12240  0.88430  Biso   1.000  C
  C27      1.0000 0.12240  0.46100  0.88430  Biso   1.000  C
  C28      1.0000 0.87760  0.53900  0.88430  Biso   1.000  C
  C29      1.0000 0.96100  0.37760  0.38430  Biso   1.000  C
  C30      1.0000 0.03900  0.62240  0.38430  Biso   1.000  C
  C31      1.0000 0.62240  0.96100  0.38430  Biso   1.000  C
  C32      1.0000 0.37760  0.03900  0.38430  Biso   1.000  C
  C33      1.0000 0.54650  0.17760  0.15790  Biso   1.000  C
  C34      1.0000 0.45350  0.82240  0.15790  Biso   1.000  C
  C35      1.0000 0.82240  0.54650  0.15790  Biso   1.000  C
  C36      1.0000 0.17760  0.45350  0.15790  Biso   1.000  C
  C37      1.0000 0.04650  0.67760  0.65790  Biso   1.000  C
  C38      1.0000 0.95350  0.32240  0.65790  Biso   1.000  C
  C39      1.0000 0.32240  0.04650  0.65790  Biso   1.000  C
  C40      1.0000 0.67760  0.95350  0.65790  Biso   1.000  C
  C41      1.0000 0.45350  0.82240  0.84210  Biso   1.000  C
  C42      1.0000 0.54650  0.17760  0.84210  Biso   1.000  C
  C43      1.0000 0.17760  0.45350  0.84210  Biso   1.000  C
  C44      1.0000 0.82240  0.54650  0.84210  Biso   1.000  C
  C45      1.0000 0.95350  0.32240  0.34210  Biso   1.000  C
  C46      1.0000 0.04650  0.67760  0.34210  Biso   1.000  C
  C47      1.0000 0.67760  0.95350  0.34210  Biso   1.000  C
  C48      1.0000 0.32240  0.04650  0.34210  Biso   1.000  C
  C49      1.0000 0.54760  0.22540  0.20110  Biso   1.000  C
  C50      1.0000 0.45240  0.77460  0.20110  Biso   1.000  C
  C51      1.0000 0.77460  0.54760  0.20110  Biso   1.000  C
  C52      1.0000 0.22540  0.45240  0.20110  Biso   1.000  C
  C53      1.0000 0.04760  0.72540  0.70110  Biso   1.000  C
  C54      1.0000 0.95240  0.27460  0.70110  Biso   1.000  C
  C55      1.0000 0.27460  0.04760  0.70110  Biso   1.000  C
  C56      1.0000 0.72540  0.95240  0.70110  Biso   1.000  C
  C57      1.0000 0.45240  0.77460  0.79890  Biso   1.000  C
  C58      1.0000 0.54760  0.22540  0.79890  Biso   1.000  C
  C59      1.0000 0.22540  0.45240  0.79890  Biso   1.000  C
  C60      1.0000 0.77460  0.54760  0.79890  Biso   1.000  C
  C61      1.0000 0.95240  0.27460  0.29890  Biso   1.000  C
  C62      1.0000 0.04760  0.72540  0.29890  Biso   1.000  C
  C63      1.0000 0.72540  0.95240  0.29890  Biso   1.000  C
  C64      1.0000 0.27460  0.04760  0.29890  Biso   1.000  C
  C65      1.0000 0.47790  0.22470  0.17400  Biso   1.000  C
  C66      1.0000 0.52210  0.77530  0.17400  Biso   1.000  C
  C67      1.0000 0.77530  0.47790  0.17400  Biso   1.000  C
  C68      1.0000 0.22470  0.52210  0.17400  Biso   1.000  C
  C69      1.0000 0.97790  0.72470  0.67400  Biso   1.000  C
  C70      1.0000 0.02210  0.27530  0.67400  Biso   1.000  C
  C71      1.0000 0.27530  0.97790  0.67400  Biso   1.000  C
  C72      1.0000 0.72470  0.02210  0.67400  Biso   1.000  C
  C73      1.0000 0.52210  0.77530  0.82600  Biso   1.000  C
  C74      1.0000 0.47790  0.22470  0.82600  Biso   1.000  C
  C75      1.0000 0.22470  0.52210  0.82600  Biso   1.000  C
  C76      1.0000 0.77530  0.47790  0.82600  Biso   1.000  C
  C77      1.0000 0.02210  0.27530  0.32600  Biso   1.000  C
  C78      1.0000 0.97790  0.72470  0.32600  Biso   1.000  C
  C79      1.0000 0.72470  0.02210  0.32600  Biso   1.000  C
  C80      1.0000 0.27530  0.97790  0.32600  Biso   1.000  C
  C81      1.0000 0.41080  0.21620  0.14320  Biso   1.000  C
  C82      1.0000 0.58920  0.78380  0.14320  Biso   1.000  C
  C83      1.0000 0.78380  0.41080  0.14320  Biso   1.000  C
  C84      1.0000 0.21620  0.58920  0.14320  Biso   1.000  C
  C85      1.0000 0.91080  0.71620  0.64320  Biso   1.000  C
  C86      1.0000 0.08920  0.28380  0.64320  Biso   1.000  C
  C87      1.0000 0.28380  0.91080  0.64320  Biso   1.000  C
  C88      1.0000 0.71620  0.08920  0.64320  Biso   1.000  C
  C89      1.0000 0.58920  0.78380  0.85680  Biso   1.000  C
  C90      1.0000 0.41080  0.21620  0.85680  Biso   1.000  C
  C91      1.0000 0.21620  0.58920  0.85680  Biso   1.000  C
  C92      1.0000 0.78380  0.41080  0.85680  Biso   1.000  C
  C93      1.0000 0.08920  0.28380  0.35680  Biso   1.000  C
  C94      1.0000 0.91080  0.71620  0.35680  Biso   1.000  C
  C95      1.0000 0.71620  0.08920  0.35680  Biso   1.000  C
  C96      1.0000 0.28380  0.91080  0.35680  Biso   1.000  C
  C97      1.0000 0.60220  0.07270  0.09530  Biso   1.000  C
  C98      1.0000 0.39780  0.92730  0.09530  Biso   1.000  C
  C99      1.0000 0.92730  0.60220  0.09530  Biso   1.000  C
  C100     1.0000 0.07270  0.39780  0.09530  Biso   1.000  C
  C101     1.0000 0.10220  0.57270  0.59530  Biso   1.000  C
  C102     1.0000 0.89780  0.42730  0.59530  Biso   1.000  C
  C103     1.0000 0.42730  0.10220  0.59530  Biso   1.000  C
  C104     1.0000 0.57270  0.89780  0.59530  Biso   1.000  C
  C105     1.0000 0.39780  0.92730  0.90470  Biso   1.000  C
  C106     1.0000 0.60220  0.07270  0.90470  Biso   1.000  C
  C107     1.0000 0.07270  0.39780  0.90470  Biso   1.000  C
  C108     1.0000 0.92730  0.60220  0.90470  Biso   1.000  C
  C109     1.0000 0.89780  0.42730  0.40470  Biso   1.000  C
  C110     1.0000 0.10220  0.57270  0.40470  Biso   1.000  C
  C111     1.0000 0.57270  0.89780  0.40470  Biso   1.000  C
  C112     1.0000 0.42730  0.10220  0.40470  Biso   1.000  C
  C113     1.0000 0.60950  0.03650  0.07310  Biso   1.000  C
  C114     1.0000 0.39050  0.96350  0.07310  Biso   1.000  C
  C115     1.0000 0.96350  0.60950  0.07310  Biso   1.000  C
  C116     1.0000 0.03650  0.39050  0.07310  Biso   1.000  C
  C117     1.0000 0.10950  0.53650  0.57310  Biso   1.000  C
  C118     1.0000 0.89050  0.46350  0.57310  Biso   1.000  C
  C119     1.0000 0.46350  0.10950  0.57310  Biso   1.000  C
  C120     1.0000 0.53650  0.89050  0.57310  Biso   1.000  C
  C121     1.0000 0.39050  0.96350  0.92690  Biso   1.000  C
  C122     1.0000 0.60950  0.03650  0.92690  Biso   1.000  C
  C123     1.0000 0.03650  0.39050  0.92690  Biso   1.000  C
  C124     1.0000 0.96350  0.60950  0.92690  Biso   1.000  C
  C125     1.0000 0.89050  0.46350  0.42690  Biso   1.000  C
  C126     1.0000 0.10950  0.53650  0.42690  Biso   1.000  C
  C127     1.0000 0.53650  0.89050  0.42690  Biso   1.000  C
  C128     1.0000 0.46350  0.10950  0.42690  Biso   1.000  C
  H49      1.0000 0.58360  0.02330  0.06240  Biso   1.000  H
  H50      1.0000 0.41640  0.97670  0.06240  Biso   1.000  H
  H51      1.0000 0.97670  0.58360  0.06240  Biso   1.000  H
  H52      1.0000 0.02330  0.41640  0.06240  Biso   1.000  H
  H53      1.0000 0.08360  0.52330  0.56240  Biso   1.000  H
  H54      1.0000 0.91640  0.47670  0.56240  Biso   1.000  H
  H55      1.0000 0.47670  0.08360  0.56240  Biso   1.000  H
  H56      1.0000 0.52330  0.91640  0.56240  Biso   1.000  H
  H57      1.0000 0.41640  0.97670  0.93760  Biso   1.000  H
  H58      1.0000 0.58360  0.02330  0.93760  Biso   1.000  H
  H59      1.0000 0.02330  0.41640  0.93760  Biso   1.000  H
  H60      1.0000 0.97670  0.58360  0.93760  Biso   1.000  H
  H61      1.0000 0.91640  0.47670  0.43760  Biso   1.000  H
  H62      1.0000 0.08360  0.52330  0.43760  Biso   1.000  H
  H63      1.0000 0.52330  0.91640  0.43760  Biso   1.000  H
  H64      1.0000 0.47670  0.08360  0.43760  Biso   1.000  H
  C129     1.0000 0.65580  0.01940  0.06650  Biso   1.000  C
  C130     1.0000 0.34420  0.98060  0.06650  Biso   1.000  C
  C131     1.0000 0.98060  0.65580  0.06650  Biso   1.000  C
  C132     1.0000 0.01940  0.34420  0.06650  Biso   1.000  C
  C133     1.0000 0.15580  0.51940  0.56650  Biso   1.000  C
  C134     1.0000 0.84420  0.48060  0.56650  Biso   1.000  C
  C135     1.0000 0.48060  0.15580  0.56650  Biso   1.000  C
  C136     1.0000 0.51940  0.84420  0.56650  Biso   1.000  C
  C137     1.0000 0.34420  0.98060  0.93350  Biso   1.000  C
  C138     1.0000 0.65580  0.01940  0.93350  Biso   1.000  C
  C139     1.0000 0.01940  0.34420  0.93350  Biso   1.000  C
  C140     1.0000 0.98060  0.65580  0.93350  Biso   1.000  C
  C141     1.0000 0.84420  0.48060  0.43350  Biso   1.000  C
  C142     1.0000 0.15580  0.51940  0.43350  Biso   1.000  C
  C143     1.0000 0.51940  0.84420  0.43350  Biso   1.000  C
  C144     1.0000 0.48060  0.15580  0.43350  Biso   1.000  C
  C145     1.0000 0.69350  0.03910  0.08470  Biso   1.000  C
  C146     1.0000 0.30650  0.96090  0.08470  Biso   1.000  C
  C147     1.0000 0.96090  0.69350  0.08470  Biso   1.000  C
  C148     1.0000 0.03910  0.30650  0.08470  Biso   1.000  C
  C149     1.0000 0.19350  0.53910  0.58470  Biso   1.000  C
  C150     1.0000 0.80650  0.46090  0.58470  Biso   1.000  C
  C151     1.0000 0.46090  0.19350  0.58470  Biso   1.000  C
  C152     1.0000 0.53910  0.80650  0.58470  Biso   1.000  C
  C153     1.0000 0.30650  0.96090  0.91530  Biso   1.000  C
  C154     1.0000 0.69350  0.03910  0.91530  Biso   1.000  C
  C155     1.0000 0.03910  0.30650  0.91530  Biso   1.000  C
  C156     1.0000 0.96090  0.69350  0.91530  Biso   1.000  C
  C157     1.0000 0.80650  0.46090  0.41530  Biso   1.000  C
  C158     1.0000 0.19350  0.53910  0.41530  Biso   1.000  C
  C159     1.0000 0.53910  0.80650  0.41530  Biso   1.000  C
  C160     1.0000 0.46090  0.19350  0.41530  Biso   1.000  C
  H65      1.0000 0.72450  0.02900  0.08090  Biso   1.000  H
  H66      1.0000 0.27550  0.97100  0.08090  Biso   1.000  H
  H67      1.0000 0.97100  0.72450  0.08090  Biso   1.000  H
  H68      1.0000 0.02900  0.27550  0.08090  Biso   1.000  H
  H69      1.0000 0.22450  0.52900  0.58090  Biso   1.000  H
  H70      1.0000 0.77550  0.47100  0.58090  Biso   1.000  H
  H71      1.0000 0.47100  0.22450  0.58090  Biso   1.000  H
  H72      1.0000 0.52900  0.77550  0.58090  Biso   1.000  H
  H73      1.0000 0.27550  0.97100  0.91910  Biso   1.000  H
  H74      1.0000 0.72450  0.02900  0.91910  Biso   1.000  H
  H75      1.0000 0.02900  0.27550  0.91910  Biso   1.000  H
  H76      1.0000 0.97100  0.72450  0.91910  Biso   1.000  H
  H77      1.0000 0.77550  0.47100  0.41910  Biso   1.000  H
  H78      1.0000 0.22450  0.52900  0.41910  Biso   1.000  H
  H79      1.0000 0.52900  0.77550  0.41910  Biso   1.000  H
  H80      1.0000 0.47100  0.22450  0.41910  Biso   1.000  H
  C161     1.0000 0.68490  0.07320  0.10820  Biso   1.000  C
  C162     1.0000 0.31510  0.92680  0.10820  Biso   1.000  C
  C163     1.0000 0.92680  0.68490  0.10820  Biso   1.000  C
  C164     1.0000 0.07320  0.31510  0.10820  Biso   1.000  C
  C165     1.0000 0.18490  0.57320  0.60820  Biso   1.000  C
  C166     1.0000 0.81510  0.42680  0.60820  Biso   1.000  C
  C167     1.0000 0.42680  0.18490  0.60820  Biso   1.000  C
  C168     1.0000 0.57320  0.81510  0.60820  Biso   1.000  C
  C169     1.0000 0.31510  0.92680  0.89180  Biso   1.000  C
  C170     1.0000 0.68490  0.07320  0.89180  Biso   1.000  C
  C171     1.0000 0.07320  0.31510  0.89180  Biso   1.000  C
  C172     1.0000 0.92680  0.68490  0.89180  Biso   1.000  C
  C173     1.0000 0.81510  0.42680  0.39180  Biso   1.000  C
  C174     1.0000 0.18490  0.57320  0.39180  Biso   1.000  C
  C175     1.0000 0.57320  0.81510  0.39180  Biso   1.000  C
  C176     1.0000 0.42680  0.18490  0.39180  Biso   1.000  C
  C177     1.0000 0.63940  0.08970  0.11360  Biso   1.000  C
  C178     1.0000 0.36060  0.91030  0.11360  Biso   1.000  C
  C179     1.0000 0.91030  0.63940  0.11360  Biso   1.000  C
  C180     1.0000 0.08970  0.36060  0.11360  Biso   1.000  C
  C181     1.0000 0.13940  0.58970  0.61360  Biso   1.000  C
  C182     1.0000 0.86060  0.41030  0.61360  Biso   1.000  C
  C183     1.0000 0.41030  0.13940  0.61360  Biso   1.000  C
  C184     1.0000 0.58970  0.86060  0.61360  Biso   1.000  C
  C185     1.0000 0.36060  0.91030  0.88640  Biso   1.000  C
  C186     1.0000 0.63940  0.08970  0.88640  Biso   1.000  C
  C187     1.0000 0.08970  0.36060  0.88640  Biso   1.000  C
  C188     1.0000 0.91030  0.63940  0.88640  Biso   1.000  C
  C189     1.0000 0.86060  0.41030  0.38640  Biso   1.000  C
  C190     1.0000 0.13940  0.58970  0.38640  Biso   1.000  C
  C191     1.0000 0.58970  0.86060  0.38640  Biso   1.000  C
  C192     1.0000 0.41030  0.13940  0.38640  Biso   1.000  C
  H81      1.0000 0.63390  0.11240  0.12960  Biso   1.000  H
  H82      1.0000 0.36610  0.88760  0.12960  Biso   1.000  H
  H83      1.0000 0.88760  0.63390  0.12960  Biso   1.000  H
  H84      1.0000 0.11240  0.36610  0.12960  Biso   1.000  H
  H85      1.0000 0.13390  0.61240  0.62960  Biso   1.000  H
  H86      1.0000 0.86610  0.38760  0.62960  Biso   1.000  H
  H87      1.0000 0.38760  0.13390  0.62960  Biso   1.000  H
  H88      1.0000 0.61240  0.86610  0.62960  Biso   1.000  H
  H89      1.0000 0.36610  0.88760  0.87040  Biso   1.000  H
  H90      1.0000 0.63390  0.11240  0.87040  Biso   1.000  H
  H91      1.0000 0.11240  0.36610  0.87040  Biso   1.000  H
  H92      1.0000 0.88760  0.63390  0.87040  Biso   1.000  H
  H93      1.0000 0.86610  0.38760  0.37040  Biso   1.000  H
  H94      1.0000 0.13390  0.61240  0.37040  Biso   1.000  H
  H95      1.0000 0.61240  0.86610  0.37040  Biso   1.000  H
  H96      1.0000 0.38760  0.13390  0.37040  Biso   1.000  H
  C193     1.0000 0.66090  0.98100  0.04280  Biso   1.000  C
  C194     1.0000 0.33910  0.01900  0.04280  Biso   1.000  C
  C195     1.0000 0.01900  0.66090  0.04280  Biso   1.000  C
  C196     1.0000 0.98100  0.33910  0.04280  Biso   1.000  C
  C197     1.0000 0.16090  0.48100  0.54280  Biso   1.000  C
  C198     1.0000 0.83910  0.51900  0.54280  Biso   1.000  C
  C199     1.0000 0.51900  0.16090  0.54280  Biso   1.000  C
  C200     1.0000 0.48100  0.83910  0.54280  Biso   1.000  C
  C201     1.0000 0.33910  0.01900  0.95720  Biso   1.000  C
  C202     1.0000 0.66090  0.98100  0.95720  Biso   1.000  C
  C203     1.0000 0.98100  0.33910  0.95720  Biso   1.000  C
  C204     1.0000 0.01900  0.66090  0.95720  Biso   1.000  C
  C205     1.0000 0.83910  0.51900  0.45720  Biso   1.000  C
  C206     1.0000 0.16090  0.48100  0.45720  Biso   1.000  C
  C207     1.0000 0.48100  0.83910  0.45720  Biso   1.000  C
  C208     1.0000 0.51900  0.16090  0.45720  Biso   1.000  C
  C209     1.0000 0.72610  0.08910  0.12900  Biso   1.000  C
  C210     1.0000 0.27390  0.91090  0.12900  Biso   1.000  C
  C211     1.0000 0.91090  0.72610  0.12900  Biso   1.000  C
  C212     1.0000 0.08910  0.27390  0.12900  Biso   1.000  C
  C213     1.0000 0.22610  0.58910  0.62900  Biso   1.000  C
  C214     1.0000 0.77390  0.41090  0.62900  Biso   1.000  C
  C215     1.0000 0.41090  0.22610  0.62900  Biso   1.000  C
  C216     1.0000 0.58910  0.77390  0.62900  Biso   1.000  C
  C217     1.0000 0.27390  0.91090  0.87100  Biso   1.000  C
  C218     1.0000 0.72610  0.08910  0.87100  Biso   1.000  C
  C219     1.0000 0.08910  0.27390  0.87100  Biso   1.000  C
  C220     1.0000 0.91090  0.72610  0.87100  Biso   1.000  C
  C221     1.0000 0.77390  0.41090  0.37100  Biso   1.000  C
  C222     1.0000 0.22610  0.58910  0.37100  Biso   1.000  C
  C223     1.0000 0.58910  0.77390  0.37100  Biso   1.000  C
  C224     1.0000 0.41090  0.22610  0.37100  Biso   1.000  C
  C225     1.0000 0.56010  0.27340  0.25200  Biso   1.000  C
  C226     1.0000 0.43990  0.72660  0.25200  Biso   1.000  C
  C227     1.0000 0.72660  0.56010  0.25200  Biso   1.000  C
  C228     1.0000 0.27340  0.43990  0.25200  Biso   1.000  C
  C229     1.0000 0.06010  0.77340  0.75200  Biso   1.000  C
  C230     1.0000 0.93990  0.22660  0.75200  Biso   1.000  C
  C231     1.0000 0.22660  0.06010  0.75200  Biso   1.000  C
  C232     1.0000 0.77340  0.93990  0.75200  Biso   1.000  C
  C233     1.0000 0.43990  0.72660  0.74800  Biso   1.000  C
  C234     1.0000 0.56010  0.27340  0.74800  Biso   1.000  C
  C235     1.0000 0.27340  0.43990  0.74800  Biso   1.000  C
  C236     1.0000 0.72660  0.56010  0.74800  Biso   1.000  C
  C237     1.0000 0.93990  0.22660  0.24800  Biso   1.000  C
  C238     1.0000 0.06010  0.77340  0.24800  Biso   1.000  C
  C239     1.0000 0.77340  0.93990  0.24800  Biso   1.000  C
  C240     1.0000 0.22660  0.06010  0.24800  Biso   1.000  C
  C241     1.0000 0.51450  0.27720  0.26700  Biso   1.000  C
  C242     1.0000 0.48550  0.72280  0.26700  Biso   1.000  C
  C243     1.0000 0.72280  0.51450  0.26700  Biso   1.000  C
  C244     1.0000 0.27720  0.48550  0.26700  Biso   1.000  C
  C245     1.0000 0.01450  0.77720  0.76700  Biso   1.000  C
  C246     1.0000 0.98550  0.22280  0.76700  Biso   1.000  C
  C247     1.0000 0.22280  0.01450  0.76700  Biso   1.000  C
  C248     1.0000 0.77720  0.98550  0.76700  Biso   1.000  C
  C249     1.0000 0.48550  0.72280  0.73300  Biso   1.000  C
  C250     1.0000 0.51450  0.27720  0.73300  Biso   1.000  C
  C251     1.0000 0.27720  0.48550  0.73300  Biso   1.000  C
  C252     1.0000 0.72280  0.51450  0.73300  Biso   1.000  C
  C253     1.0000 0.98550  0.22280  0.23300  Biso   1.000  C
  C254     1.0000 0.01450  0.77720  0.23300  Biso   1.000  C
  C255     1.0000 0.77720  0.98550  0.23300  Biso   1.000  C
  C256     1.0000 0.22280  0.01450  0.23300  Biso   1.000  C
  H97      1.0000 0.48810  0.26240  0.25800  Biso   1.000  H
  H98      1.0000 0.51190  0.73760  0.25800  Biso   1.000  H
  H99      1.0000 0.73760  0.48810  0.25800  Biso   1.000  H
  H100     1.0000 0.26240  0.51190  0.25800  Biso   1.000  H
  H101     1.0000 0.98810  0.76240  0.75800  Biso   1.000  H
  H102     1.0000 0.01190  0.23760  0.75800  Biso   1.000  H
  H103     1.0000 0.23760  0.98810  0.75800  Biso   1.000  H
  H104     1.0000 0.76240  0.01190  0.75800  Biso   1.000  H
  H105     1.0000 0.51190  0.73760  0.74200  Biso   1.000  H
  H106     1.0000 0.48810  0.26240  0.74200  Biso   1.000  H
  H107     1.0000 0.26240  0.51190  0.74200  Biso   1.000  H
  H108     1.0000 0.73760  0.48810  0.74200  Biso   1.000  H
  H109     1.0000 0.01190  0.23760  0.24200  Biso   1.000  H
  H110     1.0000 0.98810  0.76240  0.24200  Biso   1.000  H
  H111     1.0000 0.76240  0.01190  0.24200  Biso   1.000  H
  H112     1.0000 0.23760  0.98810  0.24200  Biso   1.000  H
  C257     1.0000 0.51080  0.30360  0.29520  Biso   1.000  C
  C258     1.0000 0.48920  0.69640  0.29520  Biso   1.000  C
  C259     1.0000 0.69640  0.51080  0.29520  Biso   1.000  C
  C260     1.0000 0.30360  0.48920  0.29520  Biso   1.000  C
  C261     1.0000 0.01080  0.80360  0.79520  Biso   1.000  C
  C262     1.0000 0.98920  0.19640  0.79520  Biso   1.000  C
  C263     1.0000 0.19640  0.01080  0.79520  Biso   1.000  C
  C264     1.0000 0.80360  0.98920  0.79520  Biso   1.000  C
  C265     1.0000 0.48920  0.69640  0.70480  Biso   1.000  C
  C266     1.0000 0.51080  0.30360  0.70480  Biso   1.000  C
  C267     1.0000 0.30360  0.48920  0.70480  Biso   1.000  C
  C268     1.0000 0.69640  0.51080  0.70480  Biso   1.000  C
  C269     1.0000 0.98920  0.19640  0.20480  Biso   1.000  C
  C270     1.0000 0.01080  0.80360  0.20480  Biso   1.000  C
  C271     1.0000 0.80360  0.98920  0.20480  Biso   1.000  C
  C272     1.0000 0.19640  0.01080  0.20480  Biso   1.000  C
  C273     1.0000 0.54620  0.32840  0.30843  Biso   1.000  C
  C274     1.0000 0.45380  0.67160  0.30843  Biso   1.000  C
  C275     1.0000 0.67160  0.54620  0.30843  Biso   1.000  C
  C276     1.0000 0.32840  0.45380  0.30843  Biso   1.000  C
  C277     1.0000 0.04620  0.82840  0.80843  Biso   1.000  C
  C278     1.0000 0.95380  0.17160  0.80843  Biso   1.000  C
  C279     1.0000 0.17160  0.04620  0.80843  Biso   1.000  C
  C280     1.0000 0.82840  0.95380  0.80843  Biso   1.000  C
  C281     1.0000 0.45380  0.67160  0.69157  Biso   1.000  C
  C282     1.0000 0.54620  0.32840  0.69157  Biso   1.000  C
  C283     1.0000 0.32840  0.45380  0.69157  Biso   1.000  C
  C284     1.0000 0.67160  0.54620  0.69157  Biso   1.000  C
  C285     1.0000 0.95380  0.17160  0.19157  Biso   1.000  C
  C286     1.0000 0.04620  0.82840  0.19157  Biso   1.000  C
  C287     1.0000 0.82840  0.95380  0.19157  Biso   1.000  C
  C288     1.0000 0.17160  0.04620  0.19157  Biso   1.000  C
  H113     1.0000 0.54130  0.34660  0.32700  Biso   1.000  H
  H114     1.0000 0.45870  0.65340  0.32700  Biso   1.000  H
  H115     1.0000 0.65340  0.54130  0.32700  Biso   1.000  H
  H116     1.0000 0.34660  0.45870  0.32700  Biso   1.000  H
  H117     1.0000 0.04130  0.84660  0.82700  Biso   1.000  H
  H118     1.0000 0.95870  0.15340  0.82700  Biso   1.000  H
  H119     1.0000 0.15340  0.04130  0.82700  Biso   1.000  H
  H120     1.0000 0.84660  0.95870  0.82700  Biso   1.000  H
  H121     1.0000 0.45870  0.65340  0.67300  Biso   1.000  H
  H122     1.0000 0.54130  0.34660  0.67300  Biso   1.000  H
  H123     1.0000 0.34660  0.45870  0.67300  Biso   1.000  H
  H124     1.0000 0.65340  0.54130  0.67300  Biso   1.000  H
  H125     1.0000 0.95870  0.15340  0.17300  Biso   1.000  H
  H126     1.0000 0.04130  0.84660  0.17300  Biso   1.000  H
  H127     1.0000 0.84660  0.95870  0.17300  Biso   1.000  H
  H128     1.0000 0.15340  0.04130  0.17300  Biso   1.000  H
  C289     1.0000 0.58970  0.32650  0.29400  Biso   1.000  C
  C290     1.0000 0.41030  0.67350  0.29400  Biso   1.000  C
  C291     1.0000 0.67350  0.58970  0.29400  Biso   1.000  C
  C292     1.0000 0.32650  0.41030  0.29400  Biso   1.000  C
  C293     1.0000 0.08970  0.82650  0.79400  Biso   1.000  C
  C294     1.0000 0.91030  0.17350  0.79400  Biso   1.000  C
  C295     1.0000 0.17350  0.08970  0.79400  Biso   1.000  C
  C296     1.0000 0.82650  0.91030  0.79400  Biso   1.000  C
  C297     1.0000 0.41030  0.67350  0.70600  Biso   1.000  C
  C298     1.0000 0.58970  0.32650  0.70600  Biso   1.000  C
  C299     1.0000 0.32650  0.41030  0.70600  Biso   1.000  C
  C300     1.0000 0.67350  0.58970  0.70600  Biso   1.000  C
  C301     1.0000 0.91030  0.17350  0.20600  Biso   1.000  C
  C302     1.0000 0.08970  0.82650  0.20600  Biso   1.000  C
  C303     1.0000 0.82650  0.91030  0.20600  Biso   1.000  C
  C304     1.0000 0.17350  0.08970  0.20600  Biso   1.000  C
  C305     1.0000 0.59780  0.29880  0.26760  Biso   1.000  C
  C306     1.0000 0.40220  0.70120  0.26760  Biso   1.000  C
  C307     1.0000 0.70120  0.59780  0.26760  Biso   1.000  C
  C308     1.0000 0.29880  0.40220  0.26760  Biso   1.000  C
  C309     1.0000 0.09780  0.79880  0.76760  Biso   1.000  C
  C310     1.0000 0.90220  0.20120  0.76760  Biso   1.000  C
  C311     1.0000 0.20120  0.09780  0.76760  Biso   1.000  C
  C312     1.0000 0.79880  0.90220  0.76760  Biso   1.000  C
  C313     1.0000 0.40220  0.70120  0.73240  Biso   1.000  C
  C314     1.0000 0.59780  0.29880  0.73240  Biso   1.000  C
  C315     1.0000 0.29880  0.40220  0.73240  Biso   1.000  C
  C316     1.0000 0.70120  0.59780  0.73240  Biso   1.000  C
  C317     1.0000 0.90220  0.20120  0.23240  Biso   1.000  C
  C318     1.0000 0.09780  0.79880  0.23240  Biso   1.000  C
  C319     1.0000 0.79880  0.90220  0.23240  Biso   1.000  C
  C320     1.0000 0.20120  0.09780  0.23240  Biso   1.000  C
  H129     1.0000 0.62850  0.29620  0.25940  Biso   1.000  H
  H130     1.0000 0.37150  0.70380  0.25940  Biso   1.000  H
  H131     1.0000 0.70380  0.62850  0.25940  Biso   1.000  H
  H132     1.0000 0.29620  0.37150  0.25940  Biso   1.000  H
  H133     1.0000 0.12850  0.79620  0.75940  Biso   1.000  H
  H134     1.0000 0.87150  0.20380  0.75940  Biso   1.000  H
  H135     1.0000 0.20380  0.12850  0.75940  Biso   1.000  H
  H136     1.0000 0.79620  0.87150  0.75940  Biso   1.000  H
  H137     1.0000 0.37150  0.70380  0.74060  Biso   1.000  H
  H138     1.0000 0.62850  0.29620  0.74060  Biso   1.000  H
  H139     1.0000 0.29620  0.37150  0.74060  Biso   1.000  H
  H140     1.0000 0.70380  0.62850  0.74060  Biso   1.000  H
  H141     1.0000 0.87150  0.20380  0.24060  Biso   1.000  H
  H142     1.0000 0.12850  0.79620  0.24060  Biso   1.000  H
  H143     1.0000 0.79620  0.87150  0.24060  Biso   1.000  H
  H144     1.0000 0.20380  0.12850  0.24060  Biso   1.000  H
  C321     1.0000 0.46210  0.30230  0.31040  Biso   1.000  C
  C322     1.0000 0.53790  0.69770  0.31040  Biso   1.000  C
  C323     1.0000 0.69770  0.46210  0.31040  Biso   1.000  C
  C324     1.0000 0.30230  0.53790  0.31040  Biso   1.000  C
  C325     1.0000 0.96210  0.80230  0.81040  Biso   1.000  C
  C326     1.0000 0.03790  0.19770  0.81040  Biso   1.000  C
  C327     1.0000 0.19770  0.96210  0.81040  Biso   1.000  C
  C328     1.0000 0.80230  0.03790  0.81040  Biso   1.000  C
  C329     1.0000 0.53790  0.69770  0.68960  Biso   1.000  C
  C330     1.0000 0.46210  0.30230  0.68960  Biso   1.000  C
  C331     1.0000 0.30230  0.53790  0.68960  Biso   1.000  C
  C332     1.0000 0.69770  0.46210  0.68960  Biso   1.000  C
  C333     1.0000 0.03790  0.19770  0.18960  Biso   1.000  C
  C334     1.0000 0.96210  0.80230  0.18960  Biso   1.000  C
  C335     1.0000 0.80230  0.03790  0.18960  Biso   1.000  C
  C336     1.0000 0.19770  0.96210  0.18960  Biso   1.000  C
  C337     1.0000 0.63150  0.34890  0.31010  Biso   1.000  C
  C338     1.0000 0.36850  0.65110  0.31010  Biso   1.000  C
  C339     1.0000 0.65110  0.63150  0.31010  Biso   1.000  C
  C340     1.0000 0.34890  0.36850  0.31010  Biso   1.000  C
  C341     1.0000 0.13150  0.84890  0.81010  Biso   1.000  C
  C342     1.0000 0.86850  0.15110  0.81010  Biso   1.000  C
  C343     1.0000 0.15110  0.13150  0.81010  Biso   1.000  C
  C344     1.0000 0.84890  0.86850  0.81010  Biso   1.000  C
  C345     1.0000 0.36850  0.65110  0.68990  Biso   1.000  C
  C346     1.0000 0.63150  0.34890  0.68990  Biso   1.000  C
  C347     1.0000 0.34890  0.36850  0.68990  Biso   1.000  C
  C348     1.0000 0.65110  0.63150  0.68990  Biso   1.000  C
  C349     1.0000 0.86850  0.15110  0.18990  Biso   1.000  C
  C350     1.0000 0.13150  0.84890  0.18990  Biso   1.000  C
  C351     1.0000 0.84890  0.86850  0.18990  Biso   1.000  C
  C352     1.0000 0.15110  0.13150  0.18990  Biso   1.000  C
  C353     1.0000 0.32820  0.21290  0.11990  Biso   1.000  C
  C354     1.0000 0.67180  0.78710  0.11990  Biso   1.000  C
  C355     1.0000 0.78710  0.32820  0.11990  Biso   1.000  C
  C356     1.0000 0.21290  0.67180  0.11990  Biso   1.000  C
  C357     1.0000 0.82820  0.71290  0.61990  Biso   1.000  C
  C358     1.0000 0.17180  0.28710  0.61990  Biso   1.000  C
  C359     1.0000 0.28710  0.82820  0.61990  Biso   1.000  C
  C360     1.0000 0.71290  0.17180  0.61990  Biso   1.000  C
  C361     1.0000 0.67180  0.78710  0.88010  Biso   1.000  C
  C362     1.0000 0.32820  0.21290  0.88010  Biso   1.000  C
  C363     1.0000 0.21290  0.67180  0.88010  Biso   1.000  C
  C364     1.0000 0.78710  0.32820  0.88010  Biso   1.000  C
  C365     1.0000 0.17180  0.28710  0.38010  Biso   1.000  C
  C366     1.0000 0.82820  0.71290  0.38010  Biso   1.000  C
  C367     1.0000 0.71290  0.17180  0.38010  Biso   1.000  C
  C368     1.0000 0.28710  0.82820  0.38010  Biso   1.000  C
  C369     1.0000 0.33620  0.18840  0.09010  Biso   1.000  C
  C370     1.0000 0.66380  0.81160  0.09010  Biso   1.000  C
  C371     1.0000 0.81160  0.33620  0.09010  Biso   1.000  C
  C372     1.0000 0.18840  0.66380  0.09010  Biso   1.000  C
  C373     1.0000 0.83620  0.68840  0.59010  Biso   1.000  C
  C374     1.0000 0.16380  0.31160  0.59010  Biso   1.000  C
  C375     1.0000 0.31160  0.83620  0.59010  Biso   1.000  C
  C376     1.0000 0.68840  0.16380  0.59010  Biso   1.000  C
  C377     1.0000 0.66380  0.81160  0.90990  Biso   1.000  C
  C378     1.0000 0.33620  0.18840  0.90990  Biso   1.000  C
  C379     1.0000 0.18840  0.66380  0.90990  Biso   1.000  C
  C380     1.0000 0.81160  0.33620  0.90990  Biso   1.000  C
  C381     1.0000 0.16380  0.31160  0.40990  Biso   1.000  C
  C382     1.0000 0.83620  0.68840  0.40990  Biso   1.000  C
  C383     1.0000 0.68840  0.16380  0.40990  Biso   1.000  C
  C384     1.0000 0.31160  0.83620  0.40990  Biso   1.000  C
  H145     1.0000 0.36640  0.18600  0.08100  Biso   1.000  H
  H146     1.0000 0.63360  0.81400  0.08100  Biso   1.000  H
  H147     1.0000 0.81400  0.36640  0.08100  Biso   1.000  H
  H148     1.0000 0.18600  0.63360  0.08100  Biso   1.000  H
  H149     1.0000 0.86640  0.68600  0.58100  Biso   1.000  H
  H150     1.0000 0.13360  0.31400  0.58100  Biso   1.000  H
  H151     1.0000 0.31400  0.86640  0.58100  Biso   1.000  H
  H152     1.0000 0.68600  0.13360  0.58100  Biso   1.000  H
  H153     1.0000 0.63360  0.81400  0.91900  Biso   1.000  H
  H154     1.0000 0.36640  0.18600  0.91900  Biso   1.000  H
  H155     1.0000 0.18600  0.63360  0.91900  Biso   1.000  H
  H156     1.0000 0.81400  0.36640  0.91900  Biso   1.000  H
  H157     1.0000 0.13360  0.31400  0.41900  Biso   1.000  H
  H158     1.0000 0.86640  0.68600  0.41900  Biso   1.000  H
  H159     1.0000 0.68600  0.13360  0.41900  Biso   1.000  H
  H160     1.0000 0.31400  0.86640  0.41900  Biso   1.000  H
  C385     1.0000 0.29790  0.16850  0.07550  Biso   1.000  C
  C386     1.0000 0.70210  0.83150  0.07550  Biso   1.000  C
  C387     1.0000 0.83150  0.29790  0.07550  Biso   1.000  C
  C388     1.0000 0.16850  0.70210  0.07550  Biso   1.000  C
  C389     1.0000 0.79790  0.66850  0.57550  Biso   1.000  C
  C390     1.0000 0.20210  0.33150  0.57550  Biso   1.000  C
  C391     1.0000 0.33150  0.79790  0.57550  Biso   1.000  C
  C392     1.0000 0.66850  0.20210  0.57550  Biso   1.000  C
  C393     1.0000 0.70210  0.83150  0.92450  Biso   1.000  C
  C394     1.0000 0.29790  0.16850  0.92450  Biso   1.000  C
  C395     1.0000 0.16850  0.70210  0.92450  Biso   1.000  C
  C396     1.0000 0.83150  0.29790  0.92450  Biso   1.000  C
  C397     1.0000 0.20210  0.33150  0.42450  Biso   1.000  C
  C398     1.0000 0.79790  0.66850  0.42450  Biso   1.000  C
  C399     1.0000 0.66850  0.20210  0.42450  Biso   1.000  C
  C400     1.0000 0.33150  0.79790  0.42450  Biso   1.000  C
  C401     1.0000 0.25200  0.17330  0.08790  Biso   1.000  C
  C402     1.0000 0.74800  0.82670  0.08790  Biso   1.000  C
  C403     1.0000 0.82670  0.25200  0.08790  Biso   1.000  C
  C404     1.0000 0.17330  0.74800  0.08790  Biso   1.000  C
  C405     1.0000 0.75200  0.67330  0.58790  Biso   1.000  C
  C406     1.0000 0.24800  0.32670  0.58790  Biso   1.000  C
  C407     1.0000 0.32670  0.75200  0.58790  Biso   1.000  C
  C408     1.0000 0.67330  0.24800  0.58790  Biso   1.000  C
  C409     1.0000 0.74800  0.82670  0.91210  Biso   1.000  C
  C410     1.0000 0.25200  0.17330  0.91210  Biso   1.000  C
  C411     1.0000 0.17330  0.74800  0.91210  Biso   1.000  C
  C412     1.0000 0.82670  0.25200  0.91210  Biso   1.000  C
  C413     1.0000 0.24800  0.32670  0.41210  Biso   1.000  C
  C414     1.0000 0.75200  0.67330  0.41210  Biso   1.000  C
  C415     1.0000 0.67330  0.24800  0.41210  Biso   1.000  C
  C416     1.0000 0.32670  0.75200  0.41210  Biso   1.000  C
  H161     1.0000 0.22640  0.15930  0.07730  Biso   1.000  H
  H162     1.0000 0.77360  0.84070  0.07730  Biso   1.000  H
  H163     1.0000 0.84070  0.22640  0.07730  Biso   1.000  H
  H164     1.0000 0.15930  0.77360  0.07730  Biso   1.000  H
  H165     1.0000 0.72640  0.65930  0.57730  Biso   1.000  H
  H166     1.0000 0.27360  0.34070  0.57730  Biso   1.000  H
  H167     1.0000 0.34070  0.72640  0.57730  Biso   1.000  H
  H168     1.0000 0.65930  0.27360  0.57730  Biso   1.000  H
  H169     1.0000 0.77360  0.84070  0.92270  Biso   1.000  H
  H170     1.0000 0.22640  0.15930  0.92270  Biso   1.000  H
  H171     1.0000 0.15930  0.77360  0.92270  Biso   1.000  H
  H172     1.0000 0.84070  0.22640  0.92270  Biso   1.000  H
  H173     1.0000 0.27360  0.34070  0.42270  Biso   1.000  H
  H174     1.0000 0.72640  0.65930  0.42270  Biso   1.000  H
  H175     1.0000 0.65930  0.27360  0.42270  Biso   1.000  H
  H176     1.0000 0.34070  0.72640  0.42270  Biso   1.000  H
  C417     1.0000 0.24500  0.19830  0.11530  Biso   1.000  C
  C418     1.0000 0.75500  0.80170  0.11530  Biso   1.000  C
  C419     1.0000 0.80170  0.24500  0.11530  Biso   1.000  C
  C420     1.0000 0.19830  0.75500  0.11530  Biso   1.000  C
  C421     1.0000 0.74500  0.69830  0.61530  Biso   1.000  C
  C422     1.0000 0.25500  0.30170  0.61530  Biso   1.000  C
  C423     1.0000 0.30170  0.74500  0.61530  Biso   1.000  C
  C424     1.0000 0.69830  0.25500  0.61530  Biso   1.000  C
  C425     1.0000 0.75500  0.80170  0.88470  Biso   1.000  C
  C426     1.0000 0.24500  0.19830  0.88470  Biso   1.000  C
  C427     1.0000 0.19830  0.75500  0.88470  Biso   1.000  C
  C428     1.0000 0.80170  0.24500  0.88470  Biso   1.000  C
  C429     1.0000 0.25500  0.30170  0.38470  Biso   1.000  C
  C430     1.0000 0.74500  0.69830  0.38470  Biso   1.000  C
  C431     1.0000 0.69830  0.25500  0.38470  Biso   1.000  C
  C432     1.0000 0.30170  0.74500  0.38470  Biso   1.000  C
  C433     1.0000 0.28320  0.21760  0.13170  Biso   1.000  C
  C434     1.0000 0.71680  0.78240  0.13170  Biso   1.000  C
  C435     1.0000 0.78240  0.28320  0.13170  Biso   1.000  C
  C436     1.0000 0.21760  0.71680  0.13170  Biso   1.000  C
  C437     1.0000 0.78320  0.71760  0.63170  Biso   1.000  C
  C438     1.0000 0.21680  0.28240  0.63170  Biso   1.000  C
  C439     1.0000 0.28240  0.78320  0.63170  Biso   1.000  C
  C440     1.0000 0.71760  0.21680  0.63170  Biso   1.000  C
  C441     1.0000 0.71680  0.78240  0.86830  Biso   1.000  C
  C442     1.0000 0.28320  0.21760  0.86830  Biso   1.000  C
  C443     1.0000 0.21760  0.71680  0.86830  Biso   1.000  C
  C444     1.0000 0.78240  0.28320  0.86830  Biso   1.000  C
  C445     1.0000 0.21680  0.28240  0.36830  Biso   1.000  C
  C446     1.0000 0.78320  0.71760  0.36830  Biso   1.000  C
  C447     1.0000 0.71760  0.21680  0.36830  Biso   1.000  C
  C448     1.0000 0.28240  0.78320  0.36830  Biso   1.000  C
  H177     1.0000 0.27820  0.23400  0.15110  Biso   1.000  H
  H178     1.0000 0.72180  0.76600  0.15110  Biso   1.000  H
  H179     1.0000 0.76600  0.27820  0.15110  Biso   1.000  H
  H180     1.0000 0.23400  0.72180  0.15110  Biso   1.000  H
  H181     1.0000 0.77820  0.73400  0.65110  Biso   1.000  H
  H182     1.0000 0.22180  0.26600  0.65110  Biso   1.000  H
  H183     1.0000 0.26600  0.77820  0.65110  Biso   1.000  H
  H184     1.0000 0.73400  0.22180  0.65110  Biso   1.000  H
  H185     1.0000 0.72180  0.76600  0.84890  Biso   1.000  H
  H186     1.0000 0.27820  0.23400  0.84890  Biso   1.000  H
  H187     1.0000 0.23400  0.72180  0.84890  Biso   1.000  H
  H188     1.0000 0.76600  0.27820  0.84890  Biso   1.000  H
  H189     1.0000 0.22180  0.26600  0.34890  Biso   1.000  H
  H190     1.0000 0.77820  0.73400  0.34890  Biso   1.000  H
  H191     1.0000 0.73400  0.22180  0.34890  Biso   1.000  H
  H192     1.0000 0.26600  0.77820  0.34890  Biso   1.000  H
  C449     1.0000 0.30660  0.13880  0.04580  Biso   1.000  C
  C450     1.0000 0.69340  0.86120  0.04580  Biso   1.000  C
  C451     1.0000 0.86120  0.30660  0.04580  Biso   1.000  C
  C452     1.0000 0.13880  0.69340  0.04580  Biso   1.000  C
  C453     1.0000 0.80660  0.63880  0.54580  Biso   1.000  C
  C454     1.0000 0.19340  0.36120  0.54580  Biso   1.000  C
  C455     1.0000 0.36120  0.80660  0.54580  Biso   1.000  C
  C456     1.0000 0.63880  0.19340  0.54580  Biso   1.000  C
  C457     1.0000 0.69340  0.86120  0.95420  Biso   1.000  C
  C458     1.0000 0.30660  0.13880  0.95420  Biso   1.000  C
  C459     1.0000 0.13880  0.69340  0.95420  Biso   1.000  C
  C460     1.0000 0.86120  0.30660  0.95420  Biso   1.000  C
  C461     1.0000 0.19340  0.36120  0.45420  Biso   1.000  C
  C462     1.0000 0.80660  0.63880  0.45420  Biso   1.000  C
  C463     1.0000 0.63880  0.19340  0.45420  Biso   1.000  C
  C464     1.0000 0.36120  0.80660  0.45420  Biso   1.000  C
  C465     1.0000 0.19830  0.20480  0.13300  Biso   1.000  C
  C466     1.0000 0.80170  0.79520  0.13300  Biso   1.000  C
  C467     1.0000 0.79520  0.19830  0.13300  Biso   1.000  C
  C468     1.0000 0.20480  0.80170  0.13300  Biso   1.000  C
  C469     1.0000 0.69830  0.70480  0.63300  Biso   1.000  C
  C470     1.0000 0.30170  0.29520  0.63300  Biso   1.000  C
  C471     1.0000 0.29520  0.69830  0.63300  Biso   1.000  C
  C472     1.0000 0.70480  0.30170  0.63300  Biso   1.000  C
  C473     1.0000 0.80170  0.79520  0.86700  Biso   1.000  C
  C474     1.0000 0.19830  0.20480  0.86700  Biso   1.000  C
  C475     1.0000 0.20480  0.80170  0.86700  Biso   1.000  C
  C476     1.0000 0.79520  0.19830  0.86700  Biso   1.000  C
  C477     1.0000 0.30170  0.29520  0.36700  Biso   1.000  C
  C478     1.0000 0.69830  0.70480  0.36700  Biso   1.000  C
  C479     1.0000 0.70480  0.30170  0.36700  Biso   1.000  C
  C480     1.0000 0.29520  0.69830  0.36700  Biso   1.000  C
