data_image0
_cell_length_a       18.7125
_cell_length_b       18.7125
_cell_length_c       38.299
_cell_angle_alpha    90
_cell_angle_beta     90
_cell_angle_gamma    120

_symmetry_space_group_name_H-M    "P 1"
_symmetry_int_tables_number       1

loop_
  _symmetry_equiv_pos_as_xyz
  'x, y, z'

loop_
  _atom_site_label
  _atom_site_occupancy
  _atom_site_fract_x
  _atom_site_fract_y
  _atom_site_fract_z
  _atom_site_thermal_displace_type
  _atom_site_B_iso_or_equiv
  _atom_site_type_symbol
  Cu1      1.0000 0.85681  0.14319  0.13797  Biso   1.000  Cu
  Cu2      1.0000 0.85681  0.71362  0.13797  Biso   1.000  Cu
  Cu3      1.0000 0.28638  0.14319  0.13797  Biso   1.000  Cu
  Cu4      1.0000 0.14319  0.85681  0.86203  Biso   1.000  Cu
  Cu5      1.0000 0.14319  0.28638  0.86203  Biso   1.000  Cu
  Cu6      1.0000 0.71362  0.85681  0.86203  Biso   1.000  Cu
  Cu7      1.0000 0.52348  0.47652  0.47130  Biso   1.000  Cu
  Cu8      1.0000 0.52348  0.04695  0.47130  Biso   1.000  Cu
  Cu9      1.0000 0.95305  0.47652  0.47130  Biso   1.000  Cu
  Cu10     1.0000 0.80986  0.19014  0.19536  Biso   1.000  Cu
  Cu11     1.0000 0.80986  0.61971  0.19536  Biso   1.000  Cu
  Cu12     1.0000 0.38029  0.19014  0.19536  Biso   1.000  Cu
  Cu13     1.0000 0.19014  0.80986  0.80464  Biso   1.000  Cu
  Cu14     1.0000 0.19014  0.38029  0.80464  Biso   1.000  Cu
  Cu15     1.0000 0.61971  0.80986  0.80464  Biso   1.000  Cu
  Cu16     1.0000 0.47652  0.52348  0.52870  Biso   1.000  Cu
  Cu17     1.0000 0.47652  0.95305  0.52870  Biso   1.000  Cu
  Cu18     1.0000 0.04695  0.52348  0.52870  Biso   1.000  Cu
  O1       1.0000 0.74385  0.10845  0.12254  Biso   1.000  O
  O2       1.0000 0.89155  0.63540  0.12254  Biso   1.000  O
  O3       1.0000 0.36460  0.25615  0.12254  Biso   1.000  O
  O4       1.0000 0.10845  0.74385  0.87746  Biso   1.000  O
  O5       1.0000 0.25615  0.36460  0.87746  Biso   1.000  O
  O6       1.0000 0.63540  0.89155  0.87746  Biso   1.000  O
  O7       1.0000 0.41052  0.44178  0.45587  Biso   1.000  O
  O8       1.0000 0.55822  0.96873  0.45587  Biso   1.000  O
  O9       1.0000 0.03127  0.58948  0.45587  Biso   1.000  O
  O10      1.0000 0.77512  0.07718  0.21079  Biso   1.000  O
  O11      1.0000 0.92282  0.69793  0.21079  Biso   1.000  O
  O12      1.0000 0.30207  0.22488  0.21079  Biso   1.000  O
  O13      1.0000 0.07718  0.77512  0.78921  Biso   1.000  O
  O14      1.0000 0.22488  0.30207  0.78921  Biso   1.000  O
  O15      1.0000 0.69793  0.92282  0.78921  Biso   1.000  O
  O16      1.0000 0.44178  0.41052  0.54413  Biso   1.000  O
  O17      1.0000 0.58948  0.03127  0.54413  Biso   1.000  O
  O18      1.0000 0.96873  0.55822  0.54413  Biso   1.000  O
  O19      1.0000 0.25615  0.89155  0.87746  Biso   1.000  O
  O20      1.0000 0.10845  0.36460  0.87746  Biso   1.000  O
  O21      1.0000 0.63540  0.74385  0.87746  Biso   1.000  O
  O22      1.0000 0.89155  0.25615  0.12254  Biso   1.000  O
  O23      1.0000 0.74385  0.63540  0.12254  Biso   1.000  O
  O24      1.0000 0.36460  0.10845  0.12254  Biso   1.000  O
  O25      1.0000 0.92282  0.22488  0.21079  Biso   1.000  O
  O26      1.0000 0.77512  0.69793  0.21079  Biso   1.000  O
  O27      1.0000 0.30207  0.07718  0.21079  Biso   1.000  O
  O28      1.0000 0.55822  0.58948  0.45587  Biso   1.000  O
  O29      1.0000 0.41052  0.96873  0.45587  Biso   1.000  O
  O30      1.0000 0.03127  0.44178  0.45587  Biso   1.000  O
  O31      1.0000 0.58948  0.55822  0.54413  Biso   1.000  O
  O32      1.0000 0.44178  0.03127  0.54413  Biso   1.000  O
  O33      1.0000 0.96873  0.41052  0.54413  Biso   1.000  O
  O34      1.0000 0.22488  0.92282  0.78921  Biso   1.000  O
  O35      1.0000 0.07718  0.30207  0.78921  Biso   1.000  O
  O36      1.0000 0.69793  0.77512  0.78921  Biso   1.000  O
  O37      1.0000 0.70466  0.14889  0.17079  Biso   1.000  O
  O38      1.0000 0.85111  0.55577  0.17079  Biso   1.000  O
  O39      1.0000 0.44423  0.29534  0.17079  Biso   1.000  O
  O40      1.0000 0.14889  0.70466  0.82921  Biso   1.000  O
  O41      1.0000 0.29534  0.44423  0.82921  Biso   1.000  O
  O42      1.0000 0.55577  0.85111  0.82921  Biso   1.000  O
  O43      1.0000 0.37133  0.48222  0.50412  Biso   1.000  O
  O44      1.0000 0.51778  0.88910  0.50412  Biso   1.000  O
  O45      1.0000 0.11090  0.62867  0.50412  Biso   1.000  O
  O46      1.0000 0.81556  0.03799  0.16254  Biso   1.000  O
  O47      1.0000 0.96201  0.77756  0.16254  Biso   1.000  O
  O48      1.0000 0.22244  0.18444  0.16254  Biso   1.000  O
  O49      1.0000 0.03799  0.81556  0.83746  Biso   1.000  O
  O50      1.0000 0.18444  0.22244  0.83746  Biso   1.000  O
  O51      1.0000 0.77756  0.96201  0.83746  Biso   1.000  O
  O52      1.0000 0.48222  0.37133  0.49588  Biso   1.000  O
  O53      1.0000 0.62867  0.11090  0.49588  Biso   1.000  O
  O54      1.0000 0.88910  0.51778  0.49588  Biso   1.000  O
  O55      1.0000 0.29534  0.85111  0.82921  Biso   1.000  O
  O56      1.0000 0.14889  0.44423  0.82921  Biso   1.000  O
  O57      1.0000 0.55577  0.70466  0.82921  Biso   1.000  O
  O58      1.0000 0.85111  0.29534  0.17079  Biso   1.000  O
  O59      1.0000 0.70466  0.55577  0.17079  Biso   1.000  O
  O60      1.0000 0.44423  0.14889  0.17079  Biso   1.000  O
  O61      1.0000 0.96201  0.18444  0.16254  Biso   1.000  O
  O62      1.0000 0.81556  0.77756  0.16254  Biso   1.000  O
  O63      1.0000 0.22244  0.03799  0.16254  Biso   1.000  O
  O64      1.0000 0.51778  0.62867  0.50412  Biso   1.000  O
  O65      1.0000 0.37133  0.88910  0.50412  Biso   1.000  O
  O66      1.0000 0.11090  0.48222  0.50412  Biso   1.000  O
  O67      1.0000 0.62867  0.51778  0.49588  Biso   1.000  O
  O68      1.0000 0.48222  0.11090  0.49588  Biso   1.000  O
  O69      1.0000 0.88910  0.37133  0.49588  Biso   1.000  O
  O70      1.0000 0.18444  0.96201  0.83746  Biso   1.000  O
  O71      1.0000 0.03799  0.22244  0.83746  Biso   1.000  O
  O72      1.0000 0.77756  0.81556  0.83746  Biso   1.000  O
  O73      1.0000 0.89022  0.10978  0.08960  Biso   1.000  O
  O74      1.0000 0.89022  0.78044  0.08960  Biso   1.000  O
  O75      1.0000 0.21956  0.10978  0.08960  Biso   1.000  O
  O76      1.0000 0.10978  0.89022  0.91040  Biso   1.000  O
  O77      1.0000 0.10978  0.21956  0.91040  Biso   1.000  O
  O78      1.0000 0.78044  0.89022  0.91040  Biso   1.000  O
  O79      1.0000 0.55689  0.44311  0.42293  Biso   1.000  O
  O80      1.0000 0.55689  0.11377  0.42293  Biso   1.000  O
  O81      1.0000 0.88623  0.44311  0.42293  Biso   1.000  O
  O82      1.0000 0.77645  0.22355  0.24373  Biso   1.000  O
  O83      1.0000 0.77645  0.55289  0.24373  Biso   1.000  O
  O84      1.0000 0.44711  0.22355  0.24373  Biso   1.000  O
  O85      1.0000 0.22355  0.77645  0.75627  Biso   1.000  O
  O86      1.0000 0.22355  0.44711  0.75627  Biso   1.000  O
  O87      1.0000 0.55289  0.77645  0.75627  Biso   1.000  O
  O88      1.0000 0.44311  0.55689  0.57707  Biso   1.000  O
  O89      1.0000 0.44311  0.88623  0.57707  Biso   1.000  O
  O90      1.0000 0.11377  0.55689  0.57707  Biso   1.000  O
  H1       1.0000 0.85790  0.06090  0.08550  Biso   1.000  H
  H2       1.0000 0.93910  0.79700  0.08550  Biso   1.000  H
  H3       1.0000 0.20300  0.14210  0.08550  Biso   1.000  H
  H4       1.0000 0.06090  0.85790  0.91450  Biso   1.000  H
  H5       1.0000 0.14210  0.20300  0.91450  Biso   1.000  H
  H6       1.0000 0.79700  0.93910  0.91450  Biso   1.000  H
  H7       1.0000 0.52457  0.39423  0.41883  Biso   1.000  H
  H8       1.0000 0.60577  0.13033  0.41883  Biso   1.000  H
  H9       1.0000 0.86967  0.47543  0.41883  Biso   1.000  H
  H10      1.0000 0.72757  0.19123  0.24783  Biso   1.000  H
  H11      1.0000 0.80877  0.53633  0.24783  Biso   1.000  H
  H12      1.0000 0.46367  0.27243  0.24783  Biso   1.000  H
  H13      1.0000 0.19123  0.72757  0.75217  Biso   1.000  H
  H14      1.0000 0.27243  0.46367  0.75217  Biso   1.000  H
  H15      1.0000 0.53633  0.80877  0.75217  Biso   1.000  H
  H16      1.0000 0.39423  0.52457  0.58117  Biso   1.000  H
  H17      1.0000 0.47543  0.86967  0.58117  Biso   1.000  H
  H18      1.0000 0.13033  0.60577  0.58117  Biso   1.000  H
  H19      1.0000 0.14210  0.93910  0.91450  Biso   1.000  H
  H20      1.0000 0.06090  0.20300  0.91450  Biso   1.000  H
  H21      1.0000 0.79700  0.85790  0.91450  Biso   1.000  H
  H22      1.0000 0.93910  0.14210  0.08550  Biso   1.000  H
  H23      1.0000 0.85790  0.79700  0.08550  Biso   1.000  H
  H24      1.0000 0.20300  0.06090  0.08550  Biso   1.000  H
  H25      1.0000 0.80877  0.27243  0.24783  Biso   1.000  H
  H26      1.0000 0.72757  0.53633  0.24783  Biso   1.000  H
  H27      1.0000 0.46367  0.19123  0.24783  Biso   1.000  H
  H28      1.0000 0.60577  0.47543  0.41883  Biso   1.000  H
  H29      1.0000 0.52457  0.13033  0.41883  Biso   1.000  H
  H30      1.0000 0.86967  0.39423  0.41883  Biso   1.000  H
  H31      1.0000 0.47543  0.60577  0.58117  Biso   1.000  H
  H32      1.0000 0.39423  0.86967  0.58117  Biso   1.000  H
  H33      1.0000 0.13033  0.52457  0.58117  Biso   1.000  H
  H34      1.0000 0.27243  0.80877  0.75217  Biso   1.000  H
  H35      1.0000 0.19123  0.46367  0.75217  Biso   1.000  H
  H36      1.0000 0.53633  0.72757  0.75217  Biso   1.000  H
  C1       1.0000 0.69393  0.11994  0.14001  Biso   1.000  C
  C2       1.0000 0.88006  0.57399  0.14001  Biso   1.000  C
  C3       1.0000 0.42601  0.30607  0.14001  Biso   1.000  C
  C4       1.0000 0.11994  0.69393  0.85999  Biso   1.000  C
  C5       1.0000 0.30607  0.42601  0.85999  Biso   1.000  C
  C6       1.0000 0.57399  0.88006  0.85999  Biso   1.000  C
  C7       1.0000 0.36060  0.45327  0.47334  Biso   1.000  C
  C8       1.0000 0.54673  0.90732  0.47334  Biso   1.000  C
  C9       1.0000 0.09268  0.63940  0.47334  Biso   1.000  C
  C10      1.0000 0.78661  0.02726  0.19332  Biso   1.000  C
  C11      1.0000 0.97274  0.75934  0.19332  Biso   1.000  C
  C12      1.0000 0.24066  0.21339  0.19332  Biso   1.000  C
  C13      1.0000 0.02726  0.78661  0.80668  Biso   1.000  C
  C14      1.0000 0.21339  0.24066  0.80668  Biso   1.000  C
  C15      1.0000 0.75934  0.97274  0.80668  Biso   1.000  C
  C16      1.0000 0.45327  0.36060  0.52666  Biso   1.000  C
  C17      1.0000 0.63940  0.09268  0.52666  Biso   1.000  C
  C18      1.0000 0.90732  0.54673  0.52666  Biso   1.000  C
  C19      1.0000 0.30607  0.88006  0.85999  Biso   1.000  C
  C20      1.0000 0.11994  0.42601  0.85999  Biso   1.000  C
  C21      1.0000 0.57399  0.69393  0.85999  Biso   1.000  C
  C22      1.0000 0.88006  0.30607  0.14001  Biso   1.000  C
  C23      1.0000 0.69393  0.57399  0.14001  Biso   1.000  C
  C24      1.0000 0.42601  0.11994  0.14001  Biso   1.000  C
  C25      1.0000 0.97274  0.21339  0.19332  Biso   1.000  C
  C26      1.0000 0.78661  0.75934  0.19332  Biso   1.000  C
  C27      1.0000 0.24066  0.02726  0.19332  Biso   1.000  C
  C28      1.0000 0.54673  0.63940  0.47334  Biso   1.000  C
  C29      1.0000 0.36060  0.90732  0.47334  Biso   1.000  C
  C30      1.0000 0.09268  0.45327  0.47334  Biso   1.000  C
  C31      1.0000 0.63940  0.54673  0.52666  Biso   1.000  C
  C32      1.0000 0.45327  0.09268  0.52666  Biso   1.000  C
  C33      1.0000 0.90732  0.36060  0.52666  Biso   1.000  C
  C34      1.0000 0.21339  0.97274  0.80668  Biso   1.000  C
  C35      1.0000 0.02726  0.24066  0.80668  Biso   1.000  C
  C36      1.0000 0.75934  0.78661  0.80668  Biso   1.000  C
  C37      1.0000 0.61305  0.09804  0.12296  Biso   1.000  C
  C38      1.0000 0.90196  0.51501  0.12296  Biso   1.000  C
  C39      1.0000 0.48499  0.38695  0.12296  Biso   1.000  C
  C40      1.0000 0.09804  0.61305  0.87704  Biso   1.000  C
  C41      1.0000 0.38695  0.48499  0.87704  Biso   1.000  C
  C42      1.0000 0.51501  0.90196  0.87704  Biso   1.000  C
  C43      1.0000 0.27972  0.43137  0.45629  Biso   1.000  C
  C44      1.0000 0.56863  0.84834  0.45629  Biso   1.000  C
  C45      1.0000 0.15166  0.72028  0.45629  Biso   1.000  C
  C46      1.0000 0.76471  0.94638  0.21037  Biso   1.000  C
  C47      1.0000 0.05362  0.81832  0.21037  Biso   1.000  C
  C48      1.0000 0.18168  0.23529  0.21037  Biso   1.000  C
  C49      1.0000 0.94638  0.76471  0.78963  Biso   1.000  C
  C50      1.0000 0.23529  0.18168  0.78963  Biso   1.000  C
  C51      1.0000 0.81832  0.05362  0.78963  Biso   1.000  C
  C52      1.0000 0.43137  0.27972  0.54371  Biso   1.000  C
  C53      1.0000 0.72028  0.15166  0.54371  Biso   1.000  C
  C54      1.0000 0.84834  0.56863  0.54371  Biso   1.000  C
  C55      1.0000 0.38695  0.90196  0.87704  Biso   1.000  C
  C56      1.0000 0.09804  0.48499  0.87704  Biso   1.000  C
  C57      1.0000 0.51501  0.61305  0.87704  Biso   1.000  C
  C58      1.0000 0.90196  0.38695  0.12296  Biso   1.000  C
  C59      1.0000 0.61305  0.51501  0.12296  Biso   1.000  C
  C60      1.0000 0.48499  0.09804  0.12296  Biso   1.000  C
  C61      1.0000 0.05362  0.23529  0.21037  Biso   1.000  C
  C62      1.0000 0.76471  0.81832  0.21037  Biso   1.000  C
  C63      1.0000 0.18168  0.94638  0.21037  Biso   1.000  C
  C64      1.0000 0.56863  0.72028  0.45629  Biso   1.000  C
  C65      1.0000 0.27972  0.84834  0.45629  Biso   1.000  C
  C66      1.0000 0.15166  0.43137  0.45629  Biso   1.000  C
  C67      1.0000 0.72028  0.56863  0.54371  Biso   1.000  C
  C68      1.0000 0.43137  0.15166  0.54371  Biso   1.000  C
  C69      1.0000 0.84834  0.27972  0.54371  Biso   1.000  C
  C70      1.0000 0.23529  0.05362  0.78963  Biso   1.000  C
  C71      1.0000 0.94638  0.18168  0.78963  Biso   1.000  C
  C72      1.0000 0.81832  0.76471  0.78963  Biso   1.000  C
  C73      1.0000 0.55658  0.11320  0.13987  Biso   1.000  C
  C74      1.0000 0.88680  0.44338  0.13987  Biso   1.000  C
  C75      1.0000 0.55662  0.44342  0.13987  Biso   1.000  C
  C76      1.0000 0.11320  0.55658  0.86013  Biso   1.000  C
  C77      1.0000 0.44342  0.55662  0.86013  Biso   1.000  C
  C78      1.0000 0.44338  0.88680  0.86013  Biso   1.000  C
  C79      1.0000 0.22325  0.44653  0.47320  Biso   1.000  C
  C80      1.0000 0.55347  0.77671  0.47320  Biso   1.000  C
  C81      1.0000 0.22329  0.77675  0.47320  Biso   1.000  C
  C82      1.0000 0.77987  0.88991  0.19346  Biso   1.000  C
  C83      1.0000 0.11009  0.88995  0.19346  Biso   1.000  C
  C84      1.0000 0.11005  0.22013  0.19346  Biso   1.000  C
  C85      1.0000 0.88991  0.77987  0.80654  Biso   1.000  C
  C86      1.0000 0.22013  0.11005  0.80654  Biso   1.000  C
  C87      1.0000 0.88995  0.11009  0.80654  Biso   1.000  C
  C88      1.0000 0.44653  0.22325  0.52680  Biso   1.000  C
  C89      1.0000 0.77675  0.22329  0.52680  Biso   1.000  C
  C90      1.0000 0.77671  0.55347  0.52680  Biso   1.000  C
  H37      1.0000 0.56960  0.13910  0.16290  Biso   1.000  H
  H38      1.0000 0.86090  0.43050  0.16290  Biso   1.000  H
  H39      1.0000 0.56950  0.43040  0.16290  Biso   1.000  H
  H40      1.0000 0.13910  0.56960  0.83710  Biso   1.000  H
  H41      1.0000 0.43040  0.56950  0.83710  Biso   1.000  H
  H42      1.0000 0.43050  0.86090  0.83710  Biso   1.000  H
  H43      1.0000 0.23627  0.47243  0.49623  Biso   1.000  H
  H44      1.0000 0.52757  0.76383  0.49623  Biso   1.000  H
  H45      1.0000 0.23617  0.76373  0.49623  Biso   1.000  H
  H46      1.0000 0.80577  0.90293  0.17043  Biso   1.000  H
  H47      1.0000 0.09707  0.90283  0.17043  Biso   1.000  H
  H48      1.0000 0.09717  0.19423  0.17043  Biso   1.000  H
  H49      1.0000 0.90293  0.80577  0.82957  Biso   1.000  H
  H50      1.0000 0.19423  0.09717  0.82957  Biso   1.000  H
  H51      1.0000 0.90283  0.09707  0.82957  Biso   1.000  H
  H52      1.0000 0.47243  0.23627  0.50377  Biso   1.000  H
  H53      1.0000 0.76373  0.23617  0.50377  Biso   1.000  H
  H54      1.0000 0.76383  0.52757  0.50377  Biso   1.000  H
  C91      1.0000 0.59862  0.06820  0.08859  Biso   1.000  C
  C92      1.0000 0.93180  0.53042  0.08859  Biso   1.000  C
  C93      1.0000 0.46958  0.40138  0.08859  Biso   1.000  C
  C94      1.0000 0.06820  0.59862  0.91141  Biso   1.000  C
  C95      1.0000 0.40138  0.46958  0.91141  Biso   1.000  C
  C96      1.0000 0.53042  0.93180  0.91141  Biso   1.000  C
  C97      1.0000 0.26529  0.40153  0.42192  Biso   1.000  C
  C98      1.0000 0.59847  0.86375  0.42192  Biso   1.000  C
  C99      1.0000 0.13625  0.73471  0.42192  Biso   1.000  C
  C100     1.0000 0.73487  0.93195  0.24474  Biso   1.000  C
  C101     1.0000 0.06805  0.80291  0.24474  Biso   1.000  C
  C102     1.0000 0.19709  0.26513  0.24474  Biso   1.000  C
  C103     1.0000 0.93195  0.73487  0.75526  Biso   1.000  C
  C104     1.0000 0.26513  0.19709  0.75526  Biso   1.000  C
  C105     1.0000 0.80291  0.06805  0.75526  Biso   1.000  C
  C106     1.0000 0.40153  0.26529  0.57808  Biso   1.000  C
  C107     1.0000 0.73471  0.13625  0.57808  Biso   1.000  C
  C108     1.0000 0.86375  0.59847  0.57808  Biso   1.000  C
  C109     1.0000 0.40138  0.93180  0.91141  Biso   1.000  C
  C110     1.0000 0.06820  0.46958  0.91141  Biso   1.000  C
  C111     1.0000 0.53042  0.59862  0.91141  Biso   1.000  C
  C112     1.0000 0.93180  0.40138  0.08859  Biso   1.000  C
  C113     1.0000 0.59862  0.53042  0.08859  Biso   1.000  C
  C114     1.0000 0.46958  0.06820  0.08859  Biso   1.000  C
  C115     1.0000 0.06805  0.26513  0.24474  Biso   1.000  C
  C116     1.0000 0.73487  0.80291  0.24474  Biso   1.000  C
  C117     1.0000 0.19709  0.93195  0.24474  Biso   1.000  C
  C118     1.0000 0.59847  0.73471  0.42192  Biso   1.000  C
  C119     1.0000 0.26529  0.86375  0.42192  Biso   1.000  C
  C120     1.0000 0.13625  0.40153  0.42192  Biso   1.000  C
  C121     1.0000 0.73471  0.59847  0.57808  Biso   1.000  C
  C122     1.0000 0.40153  0.13625  0.57808  Biso   1.000  C
  C123     1.0000 0.86375  0.26529  0.57808  Biso   1.000  C
  C124     1.0000 0.26513  0.06805  0.75526  Biso   1.000  C
  C125     1.0000 0.93195  0.19709  0.75526  Biso   1.000  C
  C126     1.0000 0.80291  0.73487  0.75526  Biso   1.000  C
  H55      1.0000 0.63830  0.05930  0.07690  Biso   1.000  H
  H56      1.0000 0.94070  0.57900  0.07690  Biso   1.000  H
  H57      1.0000 0.42100  0.36170  0.07690  Biso   1.000  H
  H58      1.0000 0.05930  0.63830  0.92310  Biso   1.000  H
  H59      1.0000 0.36170  0.42100  0.92310  Biso   1.000  H
  H60      1.0000 0.57900  0.94070  0.92310  Biso   1.000  H
  H61      1.0000 0.30497  0.39263  0.41023  Biso   1.000  H
  H62      1.0000 0.60737  0.91233  0.41023  Biso   1.000  H
  H63      1.0000 0.08767  0.69503  0.41023  Biso   1.000  H
  H64      1.0000 0.72597  0.97163  0.25643  Biso   1.000  H
  H65      1.0000 0.02837  0.75433  0.25643  Biso   1.000  H
  H66      1.0000 0.24567  0.27403  0.25643  Biso   1.000  H
  H67      1.0000 0.97163  0.72597  0.74357  Biso   1.000  H
  H68      1.0000 0.27403  0.24567  0.74357  Biso   1.000  H
  H69      1.0000 0.75433  0.02837  0.74357  Biso   1.000  H
  H70      1.0000 0.39263  0.30497  0.58977  Biso   1.000  H
  H71      1.0000 0.69503  0.08767  0.58977  Biso   1.000  H
  H72      1.0000 0.91233  0.60737  0.58977  Biso   1.000  H
  H73      1.0000 0.36170  0.94070  0.92310  Biso   1.000  H
  H74      1.0000 0.05930  0.42100  0.92310  Biso   1.000  H
  H75      1.0000 0.57900  0.63830  0.92310  Biso   1.000  H
  H76      1.0000 0.94070  0.36170  0.07690  Biso   1.000  H
  H77      1.0000 0.63830  0.57900  0.07690  Biso   1.000  H
  H78      1.0000 0.42100  0.05930  0.07690  Biso   1.000  H
  H79      1.0000 0.02837  0.27403  0.25643  Biso   1.000  H
  H80      1.0000 0.72597  0.75433  0.25643  Biso   1.000  H
  H81      1.0000 0.24567  0.97163  0.25643  Biso   1.000  H
  H82      1.0000 0.60737  0.69503  0.41023  Biso   1.000  H
  H83      1.0000 0.30497  0.91233  0.41023  Biso   1.000  H
  H84      1.0000 0.08767  0.39263  0.41023  Biso   1.000  H
  H85      1.0000 0.69503  0.60737  0.58977  Biso   1.000  H
  H86      1.0000 0.39263  0.08767  0.58977  Biso   1.000  H
  H87      1.0000 0.91233  0.30497  0.58977  Biso   1.000  H
  H88      1.0000 0.27403  0.02837  0.74357  Biso   1.000  H
  H89      1.0000 0.97163  0.24567  0.74357  Biso   1.000  H
  H90      1.0000 0.75433  0.72597  0.74357  Biso   1.000  H
  C127     1.0000 0.52571  0.05140  0.07139  Biso   1.000  C
  C128     1.0000 0.94860  0.47431  0.07139  Biso   1.000  C
  C129     1.0000 0.52569  0.47429  0.07139  Biso   1.000  C
  C130     1.0000 0.05140  0.52571  0.92861  Biso   1.000  C
  C131     1.0000 0.47429  0.52569  0.92861  Biso   1.000  C
  C132     1.0000 0.47431  0.94860  0.92861  Biso   1.000  C
  C133     1.0000 0.19238  0.38473  0.40472  Biso   1.000  C
  C134     1.0000 0.61527  0.80764  0.40472  Biso   1.000  C
  C135     1.0000 0.19236  0.80762  0.40472  Biso   1.000  C
  C136     1.0000 0.71807  0.85904  0.26194  Biso   1.000  C
  C137     1.0000 0.14096  0.85902  0.26194  Biso   1.000  C
  C138     1.0000 0.14098  0.28193  0.26194  Biso   1.000  C
  C139     1.0000 0.85904  0.71807  0.73806  Biso   1.000  C
  C140     1.0000 0.28193  0.14098  0.73806  Biso   1.000  C
  C141     1.0000 0.85902  0.14096  0.73806  Biso   1.000  C
  C142     1.0000 0.38473  0.19238  0.59528  Biso   1.000  C
  C143     1.0000 0.80762  0.19236  0.59528  Biso   1.000  C
  C144     1.0000 0.80764  0.61527  0.59528  Biso   1.000  C
  C145     1.0000 0.51250  0.02490  0.03399  Biso   1.000  C
  C146     1.0000 0.97510  0.48760  0.03399  Biso   1.000  C
  C147     1.0000 0.51240  0.48750  0.03399  Biso   1.000  C
  C148     1.0000 0.02490  0.51250  0.96601  Biso   1.000  C
  C149     1.0000 0.48750  0.51240  0.96601  Biso   1.000  C
  C150     1.0000 0.48760  0.97510  0.96601  Biso   1.000  C
  C151     1.0000 0.17917  0.35823  0.36732  Biso   1.000  C
  C152     1.0000 0.64177  0.82093  0.36732  Biso   1.000  C
  C153     1.0000 0.17907  0.82083  0.36732  Biso   1.000  C
  C154     1.0000 0.69157  0.84583  0.29934  Biso   1.000  C
  C155     1.0000 0.15417  0.84573  0.29934  Biso   1.000  C
  C156     1.0000 0.15427  0.30843  0.29934  Biso   1.000  C
  C157     1.0000 0.84583  0.69157  0.70066  Biso   1.000  C
  C158     1.0000 0.30843  0.15427  0.70066  Biso   1.000  C
  C159     1.0000 0.84573  0.15417  0.70066  Biso   1.000  C
  C160     1.0000 0.35823  0.17917  0.63268  Biso   1.000  C
  C161     1.0000 0.82083  0.17907  0.63268  Biso   1.000  C
  C162     1.0000 0.82093  0.64177  0.63268  Biso   1.000  C
  C163     1.0000 0.52480  0.96130  0.02400  Biso   1.000  C
  C164     1.0000 0.03870  0.56350  0.02400  Biso   1.000  C
  C165     1.0000 0.43650  0.47520  0.02400  Biso   1.000  C
  C166     1.0000 0.96130  0.52480  0.97600  Biso   1.000  C
  C167     1.0000 0.47520  0.43650  0.97600  Biso   1.000  C
  C168     1.0000 0.56350  0.03870  0.97600  Biso   1.000  C
  C169     1.0000 0.19147  0.29463  0.35733  Biso   1.000  C
  C170     1.0000 0.70537  0.89683  0.35733  Biso   1.000  C
  C171     1.0000 0.10317  0.80853  0.35733  Biso   1.000  C
  C172     1.0000 0.62797  0.85813  0.30933  Biso   1.000  C
  C173     1.0000 0.14187  0.76983  0.30933  Biso   1.000  C
  C174     1.0000 0.23017  0.37203  0.30933  Biso   1.000  C
  C175     1.0000 0.85813  0.62797  0.69067  Biso   1.000  C
  C176     1.0000 0.37203  0.23017  0.69067  Biso   1.000  C
  C177     1.0000 0.76983  0.14187  0.69067  Biso   1.000  C
  C178     1.0000 0.29463  0.19147  0.64267  Biso   1.000  C
  C179     1.0000 0.80853  0.10317  0.64267  Biso   1.000  C
  C180     1.0000 0.89683  0.70537  0.64267  Biso   1.000  C
  C181     1.0000 0.47520  0.03870  0.97600  Biso   1.000  C
  C182     1.0000 0.96130  0.43650  0.97600  Biso   1.000  C
  C183     1.0000 0.56350  0.52480  0.97600  Biso   1.000  C
  C184     1.0000 0.03870  0.47520  0.02400  Biso   1.000  C
  C185     1.0000 0.52480  0.56350  0.02400  Biso   1.000  C
  C186     1.0000 0.43650  0.96130  0.02400  Biso   1.000  C
  C187     1.0000 0.14187  0.37203  0.30933  Biso   1.000  C
  C188     1.0000 0.62797  0.76983  0.30933  Biso   1.000  C
  C189     1.0000 0.23017  0.85813  0.30933  Biso   1.000  C
  C190     1.0000 0.70537  0.80853  0.35733  Biso   1.000  C
  C191     1.0000 0.19147  0.89683  0.35733  Biso   1.000  C
  C192     1.0000 0.10317  0.29463  0.35733  Biso   1.000  C
  C193     1.0000 0.80853  0.70537  0.64267  Biso   1.000  C
  C194     1.0000 0.29463  0.10317  0.64267  Biso   1.000  C
  C195     1.0000 0.89683  0.19147  0.64267  Biso   1.000  C
  C196     1.0000 0.37203  0.14187  0.69067  Biso   1.000  C
  C197     1.0000 0.85813  0.23017  0.69067  Biso   1.000  C
  C198     1.0000 0.76983  0.62797  0.69067  Biso   1.000  C
  H91      1.0000 0.54080  0.93270  0.04120  Biso   1.000  H
  H92      1.0000 0.06730  0.60810  0.04120  Biso   1.000  H
  H93      1.0000 0.39190  0.45920  0.04120  Biso   1.000  H
  H94      1.0000 0.93270  0.54080  0.95880  Biso   1.000  H
  H95      1.0000 0.45920  0.39190  0.95880  Biso   1.000  H
  H96      1.0000 0.60810  0.06730  0.95880  Biso   1.000  H
  H97      1.0000 0.20747  0.26603  0.37453  Biso   1.000  H
  H98      1.0000 0.73397  0.94143  0.37453  Biso   1.000  H
  H99      1.0000 0.05857  0.79253  0.37453  Biso   1.000  H
  H100     1.0000 0.59937  0.87413  0.29213  Biso   1.000  H
  H101     1.0000 0.12587  0.72523  0.29213  Biso   1.000  H
  H102     1.0000 0.27477  0.40063  0.29213  Biso   1.000  H
  H103     1.0000 0.87413  0.59937  0.70787  Biso   1.000  H
  H104     1.0000 0.40063  0.27477  0.70787  Biso   1.000  H
  H105     1.0000 0.72523  0.12587  0.70787  Biso   1.000  H
  H106     1.0000 0.26603  0.20747  0.62547  Biso   1.000  H
  H107     1.0000 0.79253  0.05857  0.62547  Biso   1.000  H
  H108     1.0000 0.94143  0.73397  0.62547  Biso   1.000  H
  H109     1.0000 0.45920  0.06730  0.95880  Biso   1.000  H
  H110     1.0000 0.93270  0.39190  0.95880  Biso   1.000  H
  H111     1.0000 0.60810  0.54080  0.95880  Biso   1.000  H
  H112     1.0000 0.06730  0.45920  0.04120  Biso   1.000  H
  H113     1.0000 0.54080  0.60810  0.04120  Biso   1.000  H
  H114     1.0000 0.39190  0.93270  0.04120  Biso   1.000  H
  H115     1.0000 0.12587  0.40063  0.29213  Biso   1.000  H
  H116     1.0000 0.59937  0.72523  0.29213  Biso   1.000  H
  H117     1.0000 0.27477  0.87413  0.29213  Biso   1.000  H
  H118     1.0000 0.73397  0.79253  0.37453  Biso   1.000  H
  H119     1.0000 0.20747  0.94143  0.37453  Biso   1.000  H
  H120     1.0000 0.05857  0.26603  0.37453  Biso   1.000  H
  H121     1.0000 0.79253  0.73397  0.62547  Biso   1.000  H
  H122     1.0000 0.26603  0.05857  0.62547  Biso   1.000  H
  H123     1.0000 0.94143  0.20747  0.62547  Biso   1.000  H
  H124     1.0000 0.40063  0.12587  0.70787  Biso   1.000  H
  H125     1.0000 0.87413  0.27477  0.70787  Biso   1.000  H
  H126     1.0000 0.72523  0.59937  0.70787  Biso   1.000  H
  N1       1.0000 0.48620  0.06150  0.01056  Biso   1.000  N
  N2       1.0000 0.93850  0.42470  0.01056  Biso   1.000  N
  N3       1.0000 0.57530  0.51380  0.01056  Biso   1.000  N
  N4       1.0000 0.06150  0.48620  0.98944  Biso   1.000  N
  N5       1.0000 0.51380  0.57530  0.98944  Biso   1.000  N
  N6       1.0000 0.42470  0.93850  0.98944  Biso   1.000  N
  N7       1.0000 0.15287  0.39483  0.34389  Biso   1.000  N
  N8       1.0000 0.60517  0.75803  0.34389  Biso   1.000  N
  N9       1.0000 0.24197  0.84713  0.34389  Biso   1.000  N
  N10      1.0000 0.72817  0.81953  0.32277  Biso   1.000  N
  N11      1.0000 0.18047  0.90863  0.32277  Biso   1.000  N
  N12      1.0000 0.09137  0.27183  0.32277  Biso   1.000  N
  N13      1.0000 0.81953  0.72817  0.67723  Biso   1.000  N
  N14      1.0000 0.27183  0.09137  0.67723  Biso   1.000  N
  N15      1.0000 0.90863  0.18047  0.67723  Biso   1.000  N
  N16      1.0000 0.39483  0.15287  0.65611  Biso   1.000  N
  N17      1.0000 0.84713  0.24197  0.65611  Biso   1.000  N
  N18      1.0000 0.75803  0.60517  0.65611  Biso   1.000  N
  N19      1.0000 0.51380  0.93850  0.98944  Biso   1.000  N
  N20      1.0000 0.06150  0.57530  0.98944  Biso   1.000  N
  N21      1.0000 0.42470  0.48620  0.98944  Biso   1.000  N
  N22      1.0000 0.93850  0.51380  0.01056  Biso   1.000  N
  N23      1.0000 0.48620  0.42470  0.01056  Biso   1.000  N
  N24      1.0000 0.57530  0.06150  0.01056  Biso   1.000  N
  N25      1.0000 0.18047  0.27183  0.32277  Biso   1.000  N
  N26      1.0000 0.72817  0.90863  0.32277  Biso   1.000  N
  N27      1.0000 0.09137  0.81953  0.32277  Biso   1.000  N
  N28      1.0000 0.60517  0.84713  0.34389  Biso   1.000  N
  N29      1.0000 0.15287  0.75803  0.34389  Biso   1.000  N
  N30      1.0000 0.24197  0.39483  0.34389  Biso   1.000  N
  N31      1.0000 0.84713  0.60517  0.65611  Biso   1.000  N
  N32      1.0000 0.39483  0.24197  0.65611  Biso   1.000  N
  N33      1.0000 0.75803  0.15287  0.65611  Biso   1.000  N
  N34      1.0000 0.27183  0.18047  0.67723  Biso   1.000  N
  N35      1.0000 0.81953  0.09137  0.67723  Biso   1.000  N
  N36      1.0000 0.90863  0.72817  0.67723  Biso   1.000  N
  N37      1.0000 0.46560  0.13160  0.01450  Biso   1.000  N
  N38      1.0000 0.86840  0.33400  0.01450  Biso   1.000  N
  N39      1.0000 0.66600  0.53440  0.01450  Biso   1.000  N
  N40      1.0000 0.13160  0.46560  0.98550  Biso   1.000  N
  N41      1.0000 0.53440  0.66600  0.98550  Biso   1.000  N
  N42      1.0000 0.33400  0.86840  0.98550  Biso   1.000  N
  N43      1.0000 0.13227  0.46493  0.34783  Biso   1.000  N
  N44      1.0000 0.53507  0.66733  0.34783  Biso   1.000  N
  N45      1.0000 0.33267  0.86773  0.34783  Biso   1.000  N
  N46      1.0000 0.79827  0.79893  0.31883  Biso   1.000  N
  N47      1.0000 0.20107  0.99933  0.31883  Biso   1.000  N
  N48      1.0000 0.00067  0.20173  0.31883  Biso   1.000  N
  N49      1.0000 0.79893  0.79827  0.68117  Biso   1.000  N
  N50      1.0000 0.20173  0.00067  0.68117  Biso   1.000  N
  N51      1.0000 0.99933  0.20107  0.68117  Biso   1.000  N
  N52      1.0000 0.46493  0.13227  0.65217  Biso   1.000  N
  N53      1.0000 0.86773  0.33267  0.65217  Biso   1.000  N
  N54      1.0000 0.66733  0.53507  0.65217  Biso   1.000  N
  N55      1.0000 0.53440  0.86840  0.98550  Biso   1.000  N
  N56      1.0000 0.13160  0.66600  0.98550  Biso   1.000  N
  N57      1.0000 0.33400  0.46560  0.98550  Biso   1.000  N
  N58      1.0000 0.86840  0.53440  0.01450  Biso   1.000  N
  N59      1.0000 0.46560  0.33400  0.01450  Biso   1.000  N
  N60      1.0000 0.66600  0.13160  0.01450  Biso   1.000  N
  N61      1.0000 0.20107  0.20173  0.31883  Biso   1.000  N
  N62      1.0000 0.79827  0.99933  0.31883  Biso   1.000  N
  N63      1.0000 0.00067  0.79893  0.31883  Biso   1.000  N
  N64      1.0000 0.53507  0.86773  0.34783  Biso   1.000  N
  N65      1.0000 0.13227  0.66733  0.34783  Biso   1.000  N
  N66      1.0000 0.33267  0.46493  0.34783  Biso   1.000  N
  N67      1.0000 0.86773  0.53507  0.65217  Biso   1.000  N
  N68      1.0000 0.46493  0.33267  0.65217  Biso   1.000  N
  N69      1.0000 0.66733  0.13227  0.65217  Biso   1.000  N
  N70      1.0000 0.20173  0.20107  0.68117  Biso   1.000  N
  N71      1.0000 0.79893  0.00067  0.68117  Biso   1.000  N
  N72      1.0000 0.99933  0.79827  0.68117  Biso   1.000  N
  H127     1.0000 0.45030  0.14900  0.99620  Biso   1.000  H
  H128     1.0000 0.85100  0.30130  0.99620  Biso   1.000  H
  H129     1.0000 0.69870  0.54970  0.99620  Biso   1.000  H
  H130     1.0000 0.14900  0.45030  0.00380  Biso   1.000  H
  H131     1.0000 0.54970  0.69870  0.00380  Biso   1.000  H
  H132     1.0000 0.30130  0.85100  0.00380  Biso   1.000  H
  H133     1.0000 0.11697  0.48233  0.32953  Biso   1.000  H
  H134     1.0000 0.51767  0.63463  0.32953  Biso   1.000  H
  H135     1.0000 0.36537  0.88303  0.32953  Biso   1.000  H
  H136     1.0000 0.81567  0.78363  0.33713  Biso   1.000  H
  H137     1.0000 0.21637  0.03203  0.33713  Biso   1.000  H
  H138     1.0000 0.96797  0.18433  0.33713  Biso   1.000  H
  H139     1.0000 0.78363  0.81567  0.66287  Biso   1.000  H
  H140     1.0000 0.18433  0.96797  0.66287  Biso   1.000  H
  H141     1.0000 0.03203  0.21637  0.66287  Biso   1.000  H
  H142     1.0000 0.48233  0.11697  0.67047  Biso   1.000  H
  H143     1.0000 0.88303  0.36537  0.67047  Biso   1.000  H
  H144     1.0000 0.63463  0.51767  0.67047  Biso   1.000  H
  H145     1.0000 0.54970  0.85100  0.00380  Biso   1.000  H
  H146     1.0000 0.14900  0.69870  0.00380  Biso   1.000  H
  H147     1.0000 0.30130  0.45030  0.00380  Biso   1.000  H
  H148     1.0000 0.85100  0.54970  0.99620  Biso   1.000  H
  H149     1.0000 0.45030  0.30130  0.99620  Biso   1.000  H
  H150     1.0000 0.69870  0.14900  0.99620  Biso   1.000  H
  H151     1.0000 0.21637  0.18433  0.33713  Biso   1.000  H
  H152     1.0000 0.81567  0.03203  0.33713  Biso   1.000  H
  H153     1.0000 0.96797  0.78363  0.33713  Biso   1.000  H
  H154     1.0000 0.51767  0.88303  0.32953  Biso   1.000  H
  H155     1.0000 0.11697  0.63463  0.32953  Biso   1.000  H
  H156     1.0000 0.36537  0.48233  0.32953  Biso   1.000  H
  H157     1.0000 0.88303  0.51767  0.67047  Biso   1.000  H
  H158     1.0000 0.48233  0.36537  0.67047  Biso   1.000  H
  H159     1.0000 0.63463  0.11697  0.67047  Biso   1.000  H
  H160     1.0000 0.18433  0.21637  0.66287  Biso   1.000  H
  H161     1.0000 0.78363  0.96797  0.66287  Biso   1.000  H
  H162     1.0000 0.03203  0.81567  0.66287  Biso   1.000  H
  H163     1.0000 0.46930  0.15410  0.03510  Biso   1.000  H
  H164     1.0000 0.84590  0.31520  0.03510  Biso   1.000  H
  H165     1.0000 0.68480  0.53070  0.03510  Biso   1.000  H
  H166     1.0000 0.15410  0.46930  0.96490  Biso   1.000  H
  H167     1.0000 0.53070  0.68480  0.96490  Biso   1.000  H
  H168     1.0000 0.31520  0.84590  0.96490  Biso   1.000  H
  H169     1.0000 0.13597  0.48743  0.36843  Biso   1.000  H
  H170     1.0000 0.51257  0.64853  0.36843  Biso   1.000  H
  H171     1.0000 0.35147  0.86403  0.36843  Biso   1.000  H
  H172     1.0000 0.82077  0.80263  0.29823  Biso   1.000  H
  H173     1.0000 0.19737  0.01813  0.29823  Biso   1.000  H
  H174     1.0000 0.98187  0.17923  0.29823  Biso   1.000  H
  H175     1.0000 0.80263  0.82077  0.70177  Biso   1.000  H
  H176     1.0000 0.17923  0.98187  0.70177  Biso   1.000  H
  H177     1.0000 0.01813  0.19737  0.70177  Biso   1.000  H
  H178     1.0000 0.48743  0.13597  0.63157  Biso   1.000  H
  H179     1.0000 0.86403  0.35147  0.63157  Biso   1.000  H
  H180     1.0000 0.64853  0.51257  0.63157  Biso   1.000  H
  H181     1.0000 0.53070  0.84590  0.96490  Biso   1.000  H
  H182     1.0000 0.15410  0.68480  0.96490  Biso   1.000  H
  H183     1.0000 0.31520  0.46930  0.96490  Biso   1.000  H
  H184     1.0000 0.84590  0.53070  0.03510  Biso   1.000  H
  H185     1.0000 0.46930  0.31520  0.03510  Biso   1.000  H
  H186     1.0000 0.68480  0.15410  0.03510  Biso   1.000  H
  H187     1.0000 0.19737  0.17923  0.29823  Biso   1.000  H
  H188     1.0000 0.82077  0.01813  0.29823  Biso   1.000  H
  H189     1.0000 0.98187  0.80263  0.29823  Biso   1.000  H
  H190     1.0000 0.51257  0.86403  0.36843  Biso   1.000  H
  H191     1.0000 0.13597  0.64853  0.36843  Biso   1.000  H
  H192     1.0000 0.35147  0.48743  0.36843  Biso   1.000  H
  H193     1.0000 0.86403  0.51257  0.63157  Biso   1.000  H
  H194     1.0000 0.48743  0.35147  0.63157  Biso   1.000  H
  H195     1.0000 0.64853  0.13597  0.63157  Biso   1.000  H
  H196     1.0000 0.17923  0.19737  0.70177  Biso   1.000  H
  H197     1.0000 0.80263  0.98187  0.70177  Biso   1.000  H
  H198     1.0000 0.01813  0.82077  0.70177  Biso   1.000  H
  N73      1.0000 0.54210  0.90310  0.04860  Biso   1.000  N
  N74      1.0000 0.09690  0.63900  0.04860  Biso   1.000  N
  N75      1.0000 0.36100  0.45790  0.04860  Biso   1.000  N
  N76      1.0000 0.90310  0.54210  0.95140  Biso   1.000  N
  N77      1.0000 0.45790  0.36100  0.95140  Biso   1.000  N
  N78      1.0000 0.63900  0.09690  0.95140  Biso   1.000  N
  N79      1.0000 0.20877  0.23643  0.38193  Biso   1.000  N
  N80      1.0000 0.76357  0.97233  0.38193  Biso   1.000  N
  N81      1.0000 0.02767  0.79123  0.38193  Biso   1.000  N
  N82      1.0000 0.56977  0.87543  0.28473  Biso   1.000  N
  N83      1.0000 0.12457  0.69433  0.28473  Biso   1.000  N
  N84      1.0000 0.30567  0.43023  0.28473  Biso   1.000  N
  N85      1.0000 0.87543  0.56977  0.71527  Biso   1.000  N
  N86      1.0000 0.43023  0.30567  0.71527  Biso   1.000  N
  N87      1.0000 0.69433  0.12457  0.71527  Biso   1.000  N
  N88      1.0000 0.23643  0.20877  0.61807  Biso   1.000  N
  N89      1.0000 0.79123  0.02767  0.61807  Biso   1.000  N
  N90      1.0000 0.97233  0.76357  0.61807  Biso   1.000  N
  N91      1.0000 0.45790  0.09690  0.95140  Biso   1.000  N
  N92      1.0000 0.90310  0.36100  0.95140  Biso   1.000  N
  N93      1.0000 0.63900  0.54210  0.95140  Biso   1.000  N
  N94      1.0000 0.09690  0.45790  0.04860  Biso   1.000  N
  N95      1.0000 0.54210  0.63900  0.04860  Biso   1.000  N
  N96      1.0000 0.36100  0.90310  0.04860  Biso   1.000  N
  N97      1.0000 0.12457  0.43023  0.28473  Biso   1.000  N
  N98      1.0000 0.56977  0.69433  0.28473  Biso   1.000  N
  N99      1.0000 0.30567  0.87543  0.28473  Biso   1.000  N
  N100     1.0000 0.76357  0.79123  0.38193  Biso   1.000  N
  N101     1.0000 0.20877  0.97233  0.38193  Biso   1.000  N
  N102     1.0000 0.02767  0.23643  0.38193  Biso   1.000  N
  N103     1.0000 0.79123  0.76357  0.61807  Biso   1.000  N
  N104     1.0000 0.23643  0.02767  0.61807  Biso   1.000  N
  N105     1.0000 0.97233  0.20877  0.61807  Biso   1.000  N
  N106     1.0000 0.43023  0.12457  0.71527  Biso   1.000  N
  N107     1.0000 0.87543  0.30567  0.71527  Biso   1.000  N
  N108     1.0000 0.69433  0.56977  0.71527  Biso   1.000  N
  H199     1.0000 0.54470  0.91010  0.07140  Biso   1.000  H
  H200     1.0000 0.08990  0.63460  0.07140  Biso   1.000  H
  H201     1.0000 0.36540  0.45530  0.07140  Biso   1.000  H
  H202     1.0000 0.91010  0.54470  0.92860  Biso   1.000  H
  H203     1.0000 0.45530  0.36540  0.92860  Biso   1.000  H
  H204     1.0000 0.63460  0.08990  0.92860  Biso   1.000  H
  H205     1.0000 0.21137  0.24343  0.40473  Biso   1.000  H
  H206     1.0000 0.75657  0.96793  0.40473  Biso   1.000  H
  H207     1.0000 0.03207  0.78863  0.40473  Biso   1.000  H
  H208     1.0000 0.57677  0.87803  0.26193  Biso   1.000  H
  H209     1.0000 0.12197  0.69873  0.26193  Biso   1.000  H
  H210     1.0000 0.30127  0.42323  0.26193  Biso   1.000  H
  H211     1.0000 0.87803  0.57677  0.73807  Biso   1.000  H
  H212     1.0000 0.42323  0.30127  0.73807  Biso   1.000  H
  H213     1.0000 0.69873  0.12197  0.73807  Biso   1.000  H
  H214     1.0000 0.24343  0.21137  0.59527  Biso   1.000  H
  H215     1.0000 0.78863  0.03207  0.59527  Biso   1.000  H
  H216     1.0000 0.96793  0.75657  0.59527  Biso   1.000  H
  H217     1.0000 0.45530  0.08990  0.92860  Biso   1.000  H
  H218     1.0000 0.91010  0.36540  0.92860  Biso   1.000  H
  H219     1.0000 0.63460  0.54470  0.92860  Biso   1.000  H
  H220     1.0000 0.08990  0.45530  0.07140  Biso   1.000  H
  H221     1.0000 0.54470  0.63460  0.07140  Biso   1.000  H
  H222     1.0000 0.36540  0.91010  0.07140  Biso   1.000  H
  H223     1.0000 0.12197  0.42323  0.26193  Biso   1.000  H
  H224     1.0000 0.57677  0.69873  0.26193  Biso   1.000  H
  H225     1.0000 0.30127  0.87803  0.26193  Biso   1.000  H
  H226     1.0000 0.75657  0.78863  0.40473  Biso   1.000  H
  H227     1.0000 0.21137  0.96793  0.40473  Biso   1.000  H
  H228     1.0000 0.03207  0.24343  0.40473  Biso   1.000  H
  H229     1.0000 0.78863  0.75657  0.59527  Biso   1.000  H
  H230     1.0000 0.24343  0.03207  0.59527  Biso   1.000  H
  H231     1.0000 0.96793  0.21137  0.59527  Biso   1.000  H
  H232     1.0000 0.42323  0.12197  0.73807  Biso   1.000  H
  H233     1.0000 0.87803  0.30127  0.73807  Biso   1.000  H
  H234     1.0000 0.69873  0.57677  0.73807  Biso   1.000  H
  H235     1.0000 0.54920  0.86390  0.03940  Biso   1.000  H
  H236     1.0000 0.13610  0.68530  0.03940  Biso   1.000  H
  H237     1.0000 0.31470  0.45080  0.03940  Biso   1.000  H
  H238     1.0000 0.86390  0.54920  0.96060  Biso   1.000  H
  H239     1.0000 0.45080  0.31470  0.96060  Biso   1.000  H
  H240     1.0000 0.68530  0.13610  0.96060  Biso   1.000  H
  H241     1.0000 0.21587  0.19723  0.37273  Biso   1.000  H
  H242     1.0000 0.80277  0.01863  0.37273  Biso   1.000  H
  H243     1.0000 0.98137  0.78413  0.37273  Biso   1.000  H
  H244     1.0000 0.53057  0.88253  0.29393  Biso   1.000  H
  H245     1.0000 0.11747  0.64803  0.29393  Biso   1.000  H
  H246     1.0000 0.35197  0.46943  0.29393  Biso   1.000  H
  H247     1.0000 0.88253  0.53057  0.70607  Biso   1.000  H
  H248     1.0000 0.46943  0.35197  0.70607  Biso   1.000  H
  H249     1.0000 0.64803  0.11747  0.70607  Biso   1.000  H
  H250     1.0000 0.19723  0.21587  0.62727  Biso   1.000  H
  H251     1.0000 0.78413  0.98137  0.62727  Biso   1.000  H
  H252     1.0000 0.01863  0.80277  0.62727  Biso   1.000  H
  H253     1.0000 0.45080  0.13610  0.96060  Biso   1.000  H
  H254     1.0000 0.86390  0.31470  0.96060  Biso   1.000  H
  H255     1.0000 0.68530  0.54920  0.96060  Biso   1.000  H
  H256     1.0000 0.13610  0.45080  0.03940  Biso   1.000  H
  H257     1.0000 0.54920  0.68530  0.03940  Biso   1.000  H
  H258     1.0000 0.31470  0.86390  0.03940  Biso   1.000  H
  H259     1.0000 0.11747  0.46943  0.29393  Biso   1.000  H
  H260     1.0000 0.53057  0.64803  0.29393  Biso   1.000  H
  H261     1.0000 0.35197  0.88253  0.29393  Biso   1.000  H
  H262     1.0000 0.80277  0.78413  0.37273  Biso   1.000  H
  H263     1.0000 0.21587  0.01863  0.37273  Biso   1.000  H
  H264     1.0000 0.98137  0.19723  0.37273  Biso   1.000  H
  H265     1.0000 0.78413  0.80277  0.62727  Biso   1.000  H
  H266     1.0000 0.19723  0.98137  0.62727  Biso   1.000  H
  H267     1.0000 0.01863  0.21587  0.62727  Biso   1.000  H
  H268     1.0000 0.46943  0.11747  0.70607  Biso   1.000  H
  H269     1.0000 0.88253  0.35197  0.70607  Biso   1.000  H
  H270     1.0000 0.64803  0.53057  0.70607  Biso   1.000  H
  H271     1.0000 0.46660  0.09670  0.01930  Biso   1.000  H
  H272     1.0000 0.90330  0.36990  0.01930  Biso   1.000  H
  H273     1.0000 0.63010  0.53340  0.01930  Biso   1.000  H
  H274     1.0000 0.09670  0.46660  0.98070  Biso   1.000  H
  H275     1.0000 0.53340  0.63010  0.98070  Biso   1.000  H
  H276     1.0000 0.36990  0.90330  0.98070  Biso   1.000  H
  H277     1.0000 0.13327  0.43003  0.35263  Biso   1.000  H
  H278     1.0000 0.56997  0.70323  0.35263  Biso   1.000  H
  H279     1.0000 0.29677  0.86673  0.35263  Biso   1.000  H
  H280     1.0000 0.76337  0.79993  0.31403  Biso   1.000  H
  H281     1.0000 0.20007  0.96343  0.31403  Biso   1.000  H
  H282     1.0000 0.03657  0.23663  0.31403  Biso   1.000  H
  H283     1.0000 0.79993  0.76337  0.68597  Biso   1.000  H
  H284     1.0000 0.23663  0.03657  0.68597  Biso   1.000  H
  H285     1.0000 0.96343  0.20007  0.68597  Biso   1.000  H
  H286     1.0000 0.43003  0.13327  0.64737  Biso   1.000  H
  H287     1.0000 0.86673  0.29677  0.64737  Biso   1.000  H
  H288     1.0000 0.70323  0.56997  0.64737  Biso   1.000  H
  H289     1.0000 0.53340  0.90330  0.98070  Biso   1.000  H
  H290     1.0000 0.09670  0.63010  0.98070  Biso   1.000  H
  H291     1.0000 0.36990  0.46660  0.98070  Biso   1.000  H
  H292     1.0000 0.90330  0.53340  0.01930  Biso   1.000  H
  H293     1.0000 0.46660  0.36990  0.01930  Biso   1.000  H
  H294     1.0000 0.63010  0.09670  0.01930  Biso   1.000  H
  H295     1.0000 0.20007  0.23663  0.31403  Biso   1.000  H
  H296     1.0000 0.76337  0.96343  0.31403  Biso   1.000  H
  H297     1.0000 0.03657  0.79993  0.31403  Biso   1.000  H
  H298     1.0000 0.56997  0.86673  0.35263  Biso   1.000  H
  H299     1.0000 0.13327  0.70323  0.35263  Biso   1.000  H
  H300     1.0000 0.29677  0.43003  0.35263  Biso   1.000  H
  H301     1.0000 0.86673  0.56997  0.64737  Biso   1.000  H
  H302     1.0000 0.43003  0.29677  0.64737  Biso   1.000  H
  H303     1.0000 0.70323  0.13327  0.64737  Biso   1.000  H
  H304     1.0000 0.23663  0.20007  0.68597  Biso   1.000  H
  H305     1.0000 0.79993  0.03657  0.68597  Biso   1.000  H
  H306     1.0000 0.96343  0.76337  0.68597  Biso   1.000  H
