data_image0
_cell_length_a       27.9999
_cell_length_b       27.9999
_cell_length_c       43.9692
_cell_angle_alpha    90
_cell_angle_beta     90
_cell_angle_gamma    90

_symmetry_space_group_name_H-M    "P 1"
_symmetry_int_tables_number       1

loop_
  _symmetry_equiv_pos_as_xyz
  'x, y, z'

loop_
  _atom_site_label
  _atom_site_occupancy
  _atom_site_fract_x
  _atom_site_fract_y
  _atom_site_fract_z
  _atom_site_thermal_displace_type
  _atom_site_B_iso_or_equiv
  _atom_site_type_symbol
  C1       1.0000 0.96290  0.15350  0.99210  Biso   1.000  C
  C2       1.0000 0.40350  0.71290  0.25790  Biso   1.000  C
  C3       1.0000 0.40350  0.28710  0.74210  Biso   1.000  C
  C4       1.0000 0.09650  0.71290  0.24210  Biso   1.000  C
  C5       1.0000 0.46290  0.65350  0.49210  Biso   1.000  C
  C6       1.0000 0.90350  0.21290  0.75790  Biso   1.000  C
  C7       1.0000 0.90350  0.78710  0.24210  Biso   1.000  C
  C8       1.0000 0.59650  0.21290  0.74210  Biso   1.000  C
  C9       1.0000 0.96290  0.84650  0.00790  Biso   1.000  C
  C10      1.0000 0.53710  0.84650  0.49210  Biso   1.000  C
  C11      1.0000 0.53710  0.15350  0.50790  Biso   1.000  C
  C12      1.0000 0.09650  0.28710  0.75790  Biso   1.000  C
  C13      1.0000 0.46290  0.34650  0.50790  Biso   1.000  C
  C14      1.0000 0.03710  0.34650  0.99210  Biso   1.000  C
  C15      1.0000 0.03710  0.65350  0.00790  Biso   1.000  C
  C16      1.0000 0.59650  0.78710  0.25790  Biso   1.000  C
  C17      1.0000 0.03710  0.84650  0.00790  Biso   1.000  C
  C18      1.0000 0.09650  0.78710  0.24210  Biso   1.000  C
  C19      1.0000 0.09650  0.21290  0.75790  Biso   1.000  C
  C20      1.0000 0.40350  0.78710  0.25790  Biso   1.000  C
  C21      1.0000 0.53710  0.34650  0.50790  Biso   1.000  C
  C22      1.0000 0.59650  0.28710  0.74210  Biso   1.000  C
  C23      1.0000 0.59650  0.71290  0.25790  Biso   1.000  C
  C24      1.0000 0.90350  0.28710  0.75790  Biso   1.000  C
  C25      1.0000 0.03710  0.15350  0.99210  Biso   1.000  C
  C26      1.0000 0.46290  0.15350  0.50790  Biso   1.000  C
  C27      1.0000 0.46290  0.84650  0.49210  Biso   1.000  C
  C28      1.0000 0.40350  0.21290  0.74210  Biso   1.000  C
  C29      1.0000 0.53710  0.65350  0.49210  Biso   1.000  C
  C30      1.0000 0.96290  0.65350  0.00790  Biso   1.000  C
  C31      1.0000 0.96290  0.34650  0.99210  Biso   1.000  C
  C32      1.0000 0.90350  0.71290  0.24210  Biso   1.000  C
  H1       1.0000 0.94380  0.13670  0.97850  Biso   1.000  H
  H2       1.0000 0.38670  0.69380  0.27150  Biso   1.000  H
  H3       1.0000 0.38670  0.30620  0.72850  Biso   1.000  H
  H4       1.0000 0.11330  0.69380  0.22850  Biso   1.000  H
  H5       1.0000 0.44380  0.63670  0.47850  Biso   1.000  H
  H6       1.0000 0.88670  0.19380  0.77150  Biso   1.000  H
  H7       1.0000 0.88670  0.80620  0.22850  Biso   1.000  H
  H8       1.0000 0.61330  0.19380  0.72850  Biso   1.000  H
  H9       1.0000 0.94380  0.86330  0.02150  Biso   1.000  H
  H10      1.0000 0.55620  0.86330  0.47850  Biso   1.000  H
  H11      1.0000 0.55620  0.13670  0.52150  Biso   1.000  H
  H12      1.0000 0.11330  0.30620  0.77150  Biso   1.000  H
  H13      1.0000 0.44380  0.36330  0.52150  Biso   1.000  H
  H14      1.0000 0.05620  0.36330  0.97850  Biso   1.000  H
  H15      1.0000 0.05620  0.63670  0.02150  Biso   1.000  H
  H16      1.0000 0.61330  0.80620  0.27150  Biso   1.000  H
  H17      1.0000 0.05620  0.86330  0.02150  Biso   1.000  H
  H18      1.0000 0.11330  0.80620  0.22850  Biso   1.000  H
  H19      1.0000 0.11330  0.19380  0.77150  Biso   1.000  H
  H20      1.0000 0.38670  0.80620  0.27150  Biso   1.000  H
  H21      1.0000 0.55620  0.36330  0.52150  Biso   1.000  H
  H22      1.0000 0.61330  0.30620  0.72850  Biso   1.000  H
  H23      1.0000 0.61330  0.69380  0.27150  Biso   1.000  H
  H24      1.0000 0.88670  0.30620  0.77150  Biso   1.000  H
  H25      1.0000 0.05620  0.13670  0.97850  Biso   1.000  H
  H26      1.0000 0.44380  0.13670  0.52150  Biso   1.000  H
  H27      1.0000 0.44380  0.86330  0.47850  Biso   1.000  H
  H28      1.0000 0.38670  0.19380  0.72850  Biso   1.000  H
  H29      1.0000 0.55620  0.63670  0.47850  Biso   1.000  H
  H30      1.0000 0.94380  0.63670  0.02150  Biso   1.000  H
  H31      1.0000 0.94380  0.36330  0.97850  Biso   1.000  H
  H32      1.0000 0.88670  0.69380  0.22850  Biso   1.000  H
  C33      1.0000 0.97080  0.15160  0.02290  Biso   1.000  C
  C34      1.0000 0.40160  0.72080  0.22710  Biso   1.000  C
  C35      1.0000 0.40160  0.27920  0.77290  Biso   1.000  C
  C36      1.0000 0.09840  0.72080  0.27290  Biso   1.000  C
  C37      1.0000 0.47080  0.65160  0.52290  Biso   1.000  C
  C38      1.0000 0.90160  0.22080  0.72710  Biso   1.000  C
  C39      1.0000 0.90160  0.77920  0.27290  Biso   1.000  C
  C40      1.0000 0.59840  0.22080  0.77290  Biso   1.000  C
  C41      1.0000 0.97080  0.84840  0.97710  Biso   1.000  C
  C42      1.0000 0.52920  0.84840  0.52290  Biso   1.000  C
  C43      1.0000 0.52920  0.15160  0.47710  Biso   1.000  C
  C44      1.0000 0.09840  0.27920  0.72710  Biso   1.000  C
  C45      1.0000 0.47080  0.34840  0.47710  Biso   1.000  C
  C46      1.0000 0.02920  0.34840  0.02290  Biso   1.000  C
  C47      1.0000 0.02920  0.65160  0.97710  Biso   1.000  C
  C48      1.0000 0.59840  0.77920  0.22710  Biso   1.000  C
  C49      1.0000 0.02920  0.84840  0.97710  Biso   1.000  C
  C50      1.0000 0.09840  0.77920  0.27290  Biso   1.000  C
  C51      1.0000 0.09840  0.22080  0.72710  Biso   1.000  C
  C52      1.0000 0.40160  0.77920  0.22710  Biso   1.000  C
  C53      1.0000 0.52920  0.34840  0.47710  Biso   1.000  C
  C54      1.0000 0.59840  0.27920  0.77290  Biso   1.000  C
  C55      1.0000 0.59840  0.72080  0.22710  Biso   1.000  C
  C56      1.0000 0.90160  0.27920  0.72710  Biso   1.000  C
  C57      1.0000 0.02920  0.15160  0.02290  Biso   1.000  C
  C58      1.0000 0.47080  0.15160  0.47710  Biso   1.000  C
  C59      1.0000 0.47080  0.84840  0.52290  Biso   1.000  C
  C60      1.0000 0.40160  0.22080  0.77290  Biso   1.000  C
  C61      1.0000 0.52920  0.65160  0.52290  Biso   1.000  C
  C62      1.0000 0.97080  0.65160  0.97710  Biso   1.000  C
  C63      1.0000 0.97080  0.34840  0.02290  Biso   1.000  C
  C64      1.0000 0.90160  0.72080  0.27290  Biso   1.000  C
  H33      1.0000 0.94750  0.13700  0.03470  Biso   1.000  H
  H34      1.0000 0.38700  0.69750  0.21530  Biso   1.000  H
  H35      1.0000 0.38700  0.30250  0.78470  Biso   1.000  H
  H36      1.0000 0.11300  0.69750  0.28470  Biso   1.000  H
  H37      1.0000 0.44750  0.63700  0.53470  Biso   1.000  H
  H38      1.0000 0.88700  0.19750  0.71530  Biso   1.000  H
  H39      1.0000 0.88700  0.80250  0.28470  Biso   1.000  H
  H40      1.0000 0.61300  0.19750  0.78470  Biso   1.000  H
  H41      1.0000 0.94750  0.86300  0.96530  Biso   1.000  H
  H42      1.0000 0.55250  0.86300  0.53470  Biso   1.000  H
  H43      1.0000 0.55250  0.13700  0.46530  Biso   1.000  H
  H44      1.0000 0.11300  0.30250  0.71530  Biso   1.000  H
  H45      1.0000 0.44750  0.36300  0.46530  Biso   1.000  H
  H46      1.0000 0.05250  0.36300  0.03470  Biso   1.000  H
  H47      1.0000 0.05250  0.63700  0.96530  Biso   1.000  H
  H48      1.0000 0.61300  0.80250  0.21530  Biso   1.000  H
  H49      1.0000 0.05250  0.86300  0.96530  Biso   1.000  H
  H50      1.0000 0.11300  0.80250  0.28470  Biso   1.000  H
  H51      1.0000 0.11300  0.19750  0.71530  Biso   1.000  H
  H52      1.0000 0.38700  0.80250  0.21530  Biso   1.000  H
  H53      1.0000 0.55250  0.36300  0.46530  Biso   1.000  H
  H54      1.0000 0.61300  0.30250  0.78470  Biso   1.000  H
  H55      1.0000 0.61300  0.69750  0.21530  Biso   1.000  H
  H56      1.0000 0.88700  0.30250  0.71530  Biso   1.000  H
  H57      1.0000 0.05250  0.13700  0.03470  Biso   1.000  H
  H58      1.0000 0.44750  0.13700  0.46530  Biso   1.000  H
  H59      1.0000 0.44750  0.86300  0.53470  Biso   1.000  H
  H60      1.0000 0.38700  0.19750  0.78470  Biso   1.000  H
  H61      1.0000 0.55250  0.63700  0.53470  Biso   1.000  H
  H62      1.0000 0.94750  0.63700  0.96530  Biso   1.000  H
  H63      1.0000 0.94750  0.36300  0.03470  Biso   1.000  H
  H64      1.0000 0.88700  0.69750  0.28470  Biso   1.000  H
  C65      1.0000 0.95630  0.19860  0.99360  Biso   1.000  C
  C66      1.0000 0.44860  0.70630  0.25640  Biso   1.000  C
  C67      1.0000 0.44860  0.29370  0.74360  Biso   1.000  C
  C68      1.0000 0.05140  0.70630  0.24360  Biso   1.000  C
  C69      1.0000 0.45630  0.69860  0.49360  Biso   1.000  C
  C70      1.0000 0.94860  0.20630  0.75640  Biso   1.000  C
  C71      1.0000 0.94860  0.79370  0.24360  Biso   1.000  C
  C72      1.0000 0.55140  0.20630  0.74360  Biso   1.000  C
  C73      1.0000 0.95630  0.80140  0.00640  Biso   1.000  C
  C74      1.0000 0.54370  0.80140  0.49360  Biso   1.000  C
  C75      1.0000 0.54370  0.19860  0.50640  Biso   1.000  C
  C76      1.0000 0.05140  0.29370  0.75640  Biso   1.000  C
  C77      1.0000 0.45630  0.30140  0.50640  Biso   1.000  C
  C78      1.0000 0.04370  0.30140  0.99360  Biso   1.000  C
  C79      1.0000 0.04370  0.69860  0.00640  Biso   1.000  C
  C80      1.0000 0.55140  0.79370  0.25640  Biso   1.000  C
  C81      1.0000 0.04370  0.80140  0.00640  Biso   1.000  C
  C82      1.0000 0.05140  0.79370  0.24360  Biso   1.000  C
  C83      1.0000 0.05140  0.20630  0.75640  Biso   1.000  C
  C84      1.0000 0.44860  0.79370  0.25640  Biso   1.000  C
  C85      1.0000 0.54370  0.30140  0.50640  Biso   1.000  C
  C86      1.0000 0.55140  0.29370  0.74360  Biso   1.000  C
  C87      1.0000 0.55140  0.70630  0.25640  Biso   1.000  C
  C88      1.0000 0.94860  0.29370  0.75640  Biso   1.000  C
  C89      1.0000 0.04370  0.19860  0.99360  Biso   1.000  C
  C90      1.0000 0.45630  0.19860  0.50640  Biso   1.000  C
  C91      1.0000 0.45630  0.80140  0.49360  Biso   1.000  C
  C92      1.0000 0.44860  0.20630  0.74360  Biso   1.000  C
  C93      1.0000 0.54370  0.69860  0.49360  Biso   1.000  C
  C94      1.0000 0.95630  0.69860  0.00640  Biso   1.000  C
  C95      1.0000 0.95630  0.30140  0.99360  Biso   1.000  C
  C96      1.0000 0.94860  0.70630  0.24360  Biso   1.000  C
  H65      1.0000 0.93020  0.21490  0.98550  Biso   1.000  H
  H66      1.0000 0.46490  0.68020  0.26450  Biso   1.000  H
  H67      1.0000 0.46490  0.31980  0.73550  Biso   1.000  H
  H68      1.0000 0.03510  0.68020  0.23550  Biso   1.000  H
  H69      1.0000 0.43020  0.71490  0.48550  Biso   1.000  H
  H70      1.0000 0.96490  0.18020  0.76450  Biso   1.000  H
  H71      1.0000 0.96490  0.81980  0.23550  Biso   1.000  H
  H72      1.0000 0.53510  0.18020  0.73550  Biso   1.000  H
  H73      1.0000 0.93020  0.78510  0.01450  Biso   1.000  H
  H74      1.0000 0.56980  0.78510  0.48550  Biso   1.000  H
  H75      1.0000 0.56980  0.21490  0.51450  Biso   1.000  H
  H76      1.0000 0.03510  0.31980  0.76450  Biso   1.000  H
  H77      1.0000 0.43020  0.28510  0.51450  Biso   1.000  H
  H78      1.0000 0.06980  0.28510  0.98550  Biso   1.000  H
  H79      1.0000 0.06980  0.71490  0.01450  Biso   1.000  H
  H80      1.0000 0.53510  0.81980  0.26450  Biso   1.000  H
  H81      1.0000 0.06980  0.78510  0.01450  Biso   1.000  H
  H82      1.0000 0.03510  0.81980  0.23550  Biso   1.000  H
  H83      1.0000 0.03510  0.18020  0.76450  Biso   1.000  H
  H84      1.0000 0.46490  0.81980  0.26450  Biso   1.000  H
  H85      1.0000 0.56980  0.28510  0.51450  Biso   1.000  H
  H86      1.0000 0.53510  0.31980  0.73550  Biso   1.000  H
  H87      1.0000 0.53510  0.68020  0.26450  Biso   1.000  H
  H88      1.0000 0.96490  0.31980  0.76450  Biso   1.000  H
  H89      1.0000 0.06980  0.21490  0.98550  Biso   1.000  H
  H90      1.0000 0.43020  0.21490  0.51450  Biso   1.000  H
  H91      1.0000 0.43020  0.78510  0.48550  Biso   1.000  H
  H92      1.0000 0.46490  0.18020  0.73550  Biso   1.000  H
  H93      1.0000 0.56980  0.71490  0.48550  Biso   1.000  H
  H94      1.0000 0.93020  0.71490  0.01450  Biso   1.000  H
  H95      1.0000 0.93020  0.28510  0.98550  Biso   1.000  H
  H96      1.0000 0.96490  0.68020  0.23550  Biso   1.000  H
  C97      1.0000 0.96770  0.19860  0.02150  Biso   1.000  C
  C98      1.0000 0.44860  0.71770  0.22850  Biso   1.000  C
  C99      1.0000 0.44860  0.28230  0.77150  Biso   1.000  C
  C100     1.0000 0.05140  0.71770  0.27150  Biso   1.000  C
  C101     1.0000 0.46770  0.69860  0.52150  Biso   1.000  C
  C102     1.0000 0.94860  0.21770  0.72850  Biso   1.000  C
  C103     1.0000 0.94860  0.78230  0.27150  Biso   1.000  C
  C104     1.0000 0.55140  0.21770  0.77150  Biso   1.000  C
  C105     1.0000 0.96770  0.80140  0.97850  Biso   1.000  C
  C106     1.0000 0.53230  0.80140  0.52150  Biso   1.000  C
  C107     1.0000 0.53230  0.19860  0.47850  Biso   1.000  C
  C108     1.0000 0.05140  0.28230  0.72850  Biso   1.000  C
  C109     1.0000 0.46770  0.30140  0.47850  Biso   1.000  C
  C110     1.0000 0.03230  0.30140  0.02150  Biso   1.000  C
  C111     1.0000 0.03230  0.69860  0.97850  Biso   1.000  C
  C112     1.0000 0.55140  0.78230  0.22850  Biso   1.000  C
  C113     1.0000 0.03230  0.80140  0.97850  Biso   1.000  C
  C114     1.0000 0.05140  0.78230  0.27150  Biso   1.000  C
  C115     1.0000 0.05140  0.21770  0.72850  Biso   1.000  C
  C116     1.0000 0.44860  0.78230  0.22850  Biso   1.000  C
  C117     1.0000 0.53230  0.30140  0.47850  Biso   1.000  C
  C118     1.0000 0.55140  0.28230  0.77150  Biso   1.000  C
  C119     1.0000 0.55140  0.71770  0.22850  Biso   1.000  C
  C120     1.0000 0.94860  0.28230  0.72850  Biso   1.000  C
  C121     1.0000 0.03230  0.19860  0.02150  Biso   1.000  C
  C122     1.0000 0.46770  0.19860  0.47850  Biso   1.000  C
  C123     1.0000 0.46770  0.80140  0.52150  Biso   1.000  C
  C124     1.0000 0.44860  0.21770  0.77150  Biso   1.000  C
  C125     1.0000 0.53230  0.69860  0.52150  Biso   1.000  C
  C126     1.0000 0.96770  0.69860  0.97850  Biso   1.000  C
  C127     1.0000 0.96770  0.30140  0.02150  Biso   1.000  C
  C128     1.0000 0.94860  0.71770  0.27150  Biso   1.000  C
  H97      1.0000 0.93990  0.21350  0.02830  Biso   1.000  H
  H98      1.0000 0.46350  0.68990  0.22170  Biso   1.000  H
  H99      1.0000 0.46350  0.31010  0.77830  Biso   1.000  H
  H100     1.0000 0.03650  0.68990  0.27830  Biso   1.000  H
  H101     1.0000 0.43990  0.71350  0.52830  Biso   1.000  H
  H102     1.0000 0.96350  0.18990  0.72170  Biso   1.000  H
  H103     1.0000 0.96350  0.81010  0.27830  Biso   1.000  H
  H104     1.0000 0.53650  0.18990  0.77830  Biso   1.000  H
  H105     1.0000 0.93990  0.78650  0.97170  Biso   1.000  H
  H106     1.0000 0.56010  0.78650  0.52830  Biso   1.000  H
  H107     1.0000 0.56010  0.21350  0.47170  Biso   1.000  H
  H108     1.0000 0.03650  0.31010  0.72170  Biso   1.000  H
  H109     1.0000 0.43990  0.28650  0.47170  Biso   1.000  H
  H110     1.0000 0.06010  0.28650  0.02830  Biso   1.000  H
  H111     1.0000 0.06010  0.71350  0.97170  Biso   1.000  H
  H112     1.0000 0.53650  0.81010  0.22170  Biso   1.000  H
  H113     1.0000 0.06010  0.78650  0.97170  Biso   1.000  H
  H114     1.0000 0.03650  0.81010  0.27830  Biso   1.000  H
  H115     1.0000 0.03650  0.18990  0.72170  Biso   1.000  H
  H116     1.0000 0.46350  0.81010  0.22170  Biso   1.000  H
  H117     1.0000 0.56010  0.28650  0.47170  Biso   1.000  H
  H118     1.0000 0.53650  0.31010  0.77830  Biso   1.000  H
  H119     1.0000 0.53650  0.68990  0.22170  Biso   1.000  H
  H120     1.0000 0.96350  0.31010  0.72170  Biso   1.000  H
  H121     1.0000 0.06010  0.21350  0.02830  Biso   1.000  H
  H122     1.0000 0.43990  0.21350  0.47170  Biso   1.000  H
  H123     1.0000 0.43990  0.78650  0.52830  Biso   1.000  H
  H124     1.0000 0.46350  0.18990  0.77830  Biso   1.000  H
  H125     1.0000 0.56010  0.71350  0.52830  Biso   1.000  H
  H126     1.0000 0.93990  0.71350  0.97170  Biso   1.000  H
  H127     1.0000 0.93990  0.28650  0.02830  Biso   1.000  H
  H128     1.0000 0.96350  0.68990  0.27830  Biso   1.000  H
  C129     1.0000 0.00000  0.22306  0.01167  Biso   1.000  C
  C130     1.0000 0.47306  0.75000  0.23833  Biso   1.000  C
  C131     1.0000 0.47306  0.25000  0.76167  Biso   1.000  C
  C132     1.0000 0.02694  0.75000  0.26167  Biso   1.000  C
  C133     1.0000 0.50000  0.72306  0.51167  Biso   1.000  C
  C134     1.0000 0.97306  0.25000  0.73833  Biso   1.000  C
  C135     1.0000 0.97306  0.75000  0.26167  Biso   1.000  C
  C136     1.0000 0.52694  0.25000  0.76167  Biso   1.000  C
  C137     1.0000 0.00000  0.77694  0.98833  Biso   1.000  C
  C138     1.0000 0.50000  0.77694  0.51167  Biso   1.000  C
  C139     1.0000 0.50000  0.22306  0.48833  Biso   1.000  C
  C140     1.0000 0.02694  0.25000  0.73833  Biso   1.000  C
  C141     1.0000 0.50000  0.27694  0.48833  Biso   1.000  C
  C142     1.0000 0.00000  0.27694  0.01167  Biso   1.000  C
  C143     1.0000 0.00000  0.72306  0.98833  Biso   1.000  C
  C144     1.0000 0.52694  0.75000  0.23833  Biso   1.000  C
  N1       1.0000 0.00000  0.12364  0.01085  Biso   1.000  N
  N2       1.0000 0.37364  0.75000  0.23915  Biso   1.000  N
  N3       1.0000 0.37364  0.25000  0.76085  Biso   1.000  N
  N4       1.0000 0.12636  0.75000  0.26085  Biso   1.000  N
  N5       1.0000 0.50000  0.62364  0.51085  Biso   1.000  N
  N6       1.0000 0.87364  0.25000  0.73915  Biso   1.000  N
  N7       1.0000 0.87364  0.75000  0.26085  Biso   1.000  N
  N8       1.0000 0.62636  0.25000  0.76085  Biso   1.000  N
  N9       1.0000 0.00000  0.87636  0.98915  Biso   1.000  N
  N10      1.0000 0.50000  0.87636  0.51085  Biso   1.000  N
  N11      1.0000 0.50000  0.12364  0.48915  Biso   1.000  N
  N12      1.0000 0.12636  0.25000  0.73915  Biso   1.000  N
  N13      1.0000 0.50000  0.37636  0.48915  Biso   1.000  N
  N14      1.0000 0.00000  0.37636  0.01085  Biso   1.000  N
  N15      1.0000 0.00000  0.62364  0.98915  Biso   1.000  N
  N16      1.0000 0.62636  0.75000  0.23915  Biso   1.000  N
  O1       1.0000 0.95143  0.03326  0.03580  Biso   1.000  O
  O2       1.0000 0.28326  0.70143  0.21420  Biso   1.000  O
  O3       1.0000 0.28326  0.29857  0.78580  Biso   1.000  O
  O4       1.0000 0.21674  0.70143  0.28580  Biso   1.000  O
  O5       1.0000 0.45143  0.53326  0.53580  Biso   1.000  O
  O6       1.0000 0.78326  0.20143  0.71420  Biso   1.000  O
  O7       1.0000 0.78326  0.79857  0.28580  Biso   1.000  O
  O8       1.0000 0.71674  0.20143  0.78580  Biso   1.000  O
  O9       1.0000 0.95143  0.96674  0.96420  Biso   1.000  O
  O10      1.0000 0.54857  0.96674  0.53580  Biso   1.000  O
  O11      1.0000 0.54857  0.03326  0.46420  Biso   1.000  O
  O12      1.0000 0.21674  0.29857  0.71420  Biso   1.000  O
  O13      1.0000 0.45143  0.46674  0.46420  Biso   1.000  O
  O14      1.0000 0.04857  0.46674  0.03580  Biso   1.000  O
  O15      1.0000 0.04857  0.53326  0.96420  Biso   1.000  O
  O16      1.0000 0.71674  0.79857  0.21420  Biso   1.000  O
  O17      1.0000 0.04857  0.96674  0.96420  Biso   1.000  O
  O18      1.0000 0.21674  0.79857  0.28580  Biso   1.000  O
  O19      1.0000 0.21674  0.20143  0.71420  Biso   1.000  O
  O20      1.0000 0.28326  0.79857  0.21420  Biso   1.000  O
  O21      1.0000 0.54857  0.46674  0.46420  Biso   1.000  O
  O22      1.0000 0.71674  0.29857  0.78580  Biso   1.000  O
  O23      1.0000 0.71674  0.70143  0.21420  Biso   1.000  O
  O24      1.0000 0.78326  0.29857  0.71420  Biso   1.000  O
  O25      1.0000 0.04857  0.03326  0.03580  Biso   1.000  O
  O26      1.0000 0.45143  0.03326  0.46420  Biso   1.000  O
  O27      1.0000 0.45143  0.96674  0.53580  Biso   1.000  O
  O28      1.0000 0.28326  0.20143  0.78580  Biso   1.000  O
  O29      1.0000 0.54857  0.53326  0.53580  Biso   1.000  O
  O30      1.0000 0.95143  0.53326  0.96420  Biso   1.000  O
  O31      1.0000 0.95143  0.46674  0.03580  Biso   1.000  O
  O32      1.0000 0.78326  0.70143  0.28580  Biso   1.000  O
  O33      1.0000 0.75131  0.99869  0.12500  Biso   1.000  O
  O34      1.0000 0.24869  0.50131  0.12500  Biso   1.000  O
  O35      1.0000 0.24869  0.49869  0.87500  Biso   1.000  O
  O36      1.0000 0.25131  0.50131  0.37500  Biso   1.000  O
  O37      1.0000 0.25131  0.49869  0.62500  Biso   1.000  O
  O38      1.0000 0.74869  0.00131  0.62500  Biso   1.000  O
  O39      1.0000 0.74869  0.99869  0.37500  Biso   1.000  O
  O40      1.0000 0.75131  0.00131  0.87500  Biso   1.000  O
  O41      1.0000 0.24869  0.00131  0.87500  Biso   1.000  O
  O42      1.0000 0.25131  0.99869  0.37500  Biso   1.000  O
  O43      1.0000 0.25131  0.00131  0.62500  Biso   1.000  O
  O44      1.0000 0.24869  0.99869  0.12500  Biso   1.000  O
  O45      1.0000 0.74869  0.50131  0.37500  Biso   1.000  O
  O46      1.0000 0.75131  0.49869  0.87500  Biso   1.000  O
  O47      1.0000 0.75131  0.50131  0.12500  Biso   1.000  O
  O48      1.0000 0.74869  0.49869  0.62500  Biso   1.000  O
  C145     1.0000 0.93465  0.99103  0.04035  Biso   1.000  C
  C146     1.0000 0.24103  0.68465  0.20965  Biso   1.000  C
  C147     1.0000 0.24103  0.31535  0.79035  Biso   1.000  C
  C148     1.0000 0.25897  0.68465  0.29035  Biso   1.000  C
  C149     1.0000 0.43465  0.49103  0.54035  Biso   1.000  C
  C150     1.0000 0.74103  0.18465  0.70965  Biso   1.000  C
  C151     1.0000 0.74103  0.81535  0.29035  Biso   1.000  C
  C152     1.0000 0.75897  0.18465  0.79035  Biso   1.000  C
  C153     1.0000 0.93465  0.00897  0.95965  Biso   1.000  C
  C154     1.0000 0.56535  0.00897  0.54035  Biso   1.000  C
  C155     1.0000 0.56535  0.99103  0.45965  Biso   1.000  C
  C156     1.0000 0.25897  0.31535  0.70965  Biso   1.000  C
  C157     1.0000 0.43465  0.50897  0.45965  Biso   1.000  C
  C158     1.0000 0.06535  0.50897  0.04035  Biso   1.000  C
  C159     1.0000 0.06535  0.49103  0.95965  Biso   1.000  C
  C160     1.0000 0.75897  0.81535  0.20965  Biso   1.000  C
  C161     1.0000 0.06535  0.00897  0.95965  Biso   1.000  C
  C162     1.0000 0.25897  0.81535  0.29035  Biso   1.000  C
  C163     1.0000 0.25897  0.18465  0.70965  Biso   1.000  C
  C164     1.0000 0.24103  0.81535  0.20965  Biso   1.000  C
  C165     1.0000 0.56535  0.50897  0.45965  Biso   1.000  C
  C166     1.0000 0.75897  0.31535  0.79035  Biso   1.000  C
  C167     1.0000 0.75897  0.68465  0.20965  Biso   1.000  C
  C168     1.0000 0.74103  0.31535  0.70965  Biso   1.000  C
  C169     1.0000 0.06535  0.99103  0.04035  Biso   1.000  C
  C170     1.0000 0.43465  0.99103  0.45965  Biso   1.000  C
  C171     1.0000 0.43465  0.00897  0.54035  Biso   1.000  C
  C172     1.0000 0.24103  0.18465  0.79035  Biso   1.000  C
  C173     1.0000 0.56535  0.49103  0.54035  Biso   1.000  C
  C174     1.0000 0.93465  0.49103  0.95965  Biso   1.000  C
  C175     1.0000 0.93465  0.50897  0.04035  Biso   1.000  C
  C176     1.0000 0.74103  0.68465  0.29035  Biso   1.000  C
  C177     1.0000 0.89666  0.98591  0.06288  Biso   1.000  C
  C178     1.0000 0.23591  0.64666  0.18712  Biso   1.000  C
  C179     1.0000 0.23591  0.35334  0.81288  Biso   1.000  C
  C180     1.0000 0.26409  0.64666  0.31288  Biso   1.000  C
  C181     1.0000 0.39666  0.48591  0.56288  Biso   1.000  C
  C182     1.0000 0.73591  0.14666  0.68712  Biso   1.000  C
  C183     1.0000 0.73591  0.85334  0.31288  Biso   1.000  C
  C184     1.0000 0.76409  0.14666  0.81288  Biso   1.000  C
  C185     1.0000 0.89666  0.01409  0.93712  Biso   1.000  C
  C186     1.0000 0.60334  0.01409  0.56288  Biso   1.000  C
  C187     1.0000 0.60334  0.98591  0.43712  Biso   1.000  C
  C188     1.0000 0.26409  0.35334  0.68712  Biso   1.000  C
  C189     1.0000 0.39666  0.51409  0.43712  Biso   1.000  C
  C190     1.0000 0.10334  0.51409  0.06288  Biso   1.000  C
  C191     1.0000 0.10334  0.48591  0.93712  Biso   1.000  C
  C192     1.0000 0.76409  0.85334  0.18712  Biso   1.000  C
  C193     1.0000 0.10334  0.01409  0.93712  Biso   1.000  C
  C194     1.0000 0.26409  0.85334  0.31288  Biso   1.000  C
  C195     1.0000 0.26409  0.14666  0.68712  Biso   1.000  C
  C196     1.0000 0.23591  0.85334  0.18712  Biso   1.000  C
  C197     1.0000 0.60334  0.51409  0.43712  Biso   1.000  C
  C198     1.0000 0.76409  0.35334  0.81288  Biso   1.000  C
  C199     1.0000 0.76409  0.64666  0.18712  Biso   1.000  C
  C200     1.0000 0.73591  0.35334  0.68712  Biso   1.000  C
  C201     1.0000 0.10334  0.98591  0.06288  Biso   1.000  C
  C202     1.0000 0.39666  0.98591  0.43712  Biso   1.000  C
  C203     1.0000 0.39666  0.01409  0.56288  Biso   1.000  C
  C204     1.0000 0.23591  0.14666  0.81288  Biso   1.000  C
  C205     1.0000 0.60334  0.48591  0.56288  Biso   1.000  C
  C206     1.0000 0.89666  0.48591  0.93712  Biso   1.000  C
  C207     1.0000 0.89666  0.51409  0.06288  Biso   1.000  C
  C208     1.0000 0.73591  0.64666  0.31288  Biso   1.000  C
  C209     1.0000 0.88061  0.94169  0.06963  Biso   1.000  C
  C210     1.0000 0.19169  0.63061  0.18037  Biso   1.000  C
  C211     1.0000 0.19169  0.36939  0.81963  Biso   1.000  C
  C212     1.0000 0.30831  0.63061  0.31963  Biso   1.000  C
  C213     1.0000 0.38061  0.44169  0.56963  Biso   1.000  C
  C214     1.0000 0.69169  0.13061  0.68037  Biso   1.000  C
  C215     1.0000 0.69169  0.86939  0.31963  Biso   1.000  C
  C216     1.0000 0.80831  0.13061  0.81963  Biso   1.000  C
  C217     1.0000 0.88061  0.05831  0.93037  Biso   1.000  C
  C218     1.0000 0.61939  0.05831  0.56963  Biso   1.000  C
  C219     1.0000 0.61939  0.94169  0.43037  Biso   1.000  C
  C220     1.0000 0.30831  0.36939  0.68037  Biso   1.000  C
  C221     1.0000 0.38061  0.55831  0.43037  Biso   1.000  C
  C222     1.0000 0.11939  0.55831  0.06963  Biso   1.000  C
  C223     1.0000 0.11939  0.44169  0.93037  Biso   1.000  C
  C224     1.0000 0.80831  0.86939  0.18037  Biso   1.000  C
  C225     1.0000 0.11939  0.05831  0.93037  Biso   1.000  C
  C226     1.0000 0.30831  0.86939  0.31963  Biso   1.000  C
  C227     1.0000 0.30831  0.13061  0.68037  Biso   1.000  C
  C228     1.0000 0.19169  0.86939  0.18037  Biso   1.000  C
  C229     1.0000 0.61939  0.55831  0.43037  Biso   1.000  C
  C230     1.0000 0.80831  0.36939  0.81963  Biso   1.000  C
  C231     1.0000 0.80831  0.63061  0.18037  Biso   1.000  C
  C232     1.0000 0.69169  0.36939  0.68037  Biso   1.000  C
  C233     1.0000 0.11939  0.94169  0.06963  Biso   1.000  C
  C234     1.0000 0.38061  0.94169  0.43037  Biso   1.000  C
  C235     1.0000 0.38061  0.05831  0.56963  Biso   1.000  C
  C236     1.0000 0.19169  0.13061  0.81963  Biso   1.000  C
  C237     1.0000 0.61939  0.44169  0.56963  Biso   1.000  C
  C238     1.0000 0.88061  0.44169  0.93037  Biso   1.000  C
  C239     1.0000 0.88061  0.55831  0.06963  Biso   1.000  C
  C240     1.0000 0.69169  0.63061  0.31963  Biso   1.000  C
  H129     1.0000 0.89490  0.91530  0.06050  Biso   1.000  H
  H130     1.0000 0.16530  0.64490  0.18950  Biso   1.000  H
  H131     1.0000 0.16530  0.35510  0.81050  Biso   1.000  H
  H132     1.0000 0.33470  0.64490  0.31050  Biso   1.000  H
  H133     1.0000 0.39490  0.41530  0.56050  Biso   1.000  H
  H134     1.0000 0.66530  0.14490  0.68950  Biso   1.000  H
  H135     1.0000 0.66530  0.85510  0.31050  Biso   1.000  H
  H136     1.0000 0.83470  0.14490  0.81050  Biso   1.000  H
  H137     1.0000 0.89490  0.08470  0.93950  Biso   1.000  H
  H138     1.0000 0.60510  0.08470  0.56050  Biso   1.000  H
  H139     1.0000 0.60510  0.91530  0.43950  Biso   1.000  H
  H140     1.0000 0.33470  0.35510  0.68950  Biso   1.000  H
  H141     1.0000 0.39490  0.58470  0.43950  Biso   1.000  H
  H142     1.0000 0.10510  0.58470  0.06050  Biso   1.000  H
  H143     1.0000 0.10510  0.41530  0.93950  Biso   1.000  H
  H144     1.0000 0.83470  0.85510  0.18950  Biso   1.000  H
  H145     1.0000 0.10510  0.08470  0.93950  Biso   1.000  H
  H146     1.0000 0.33470  0.85510  0.31050  Biso   1.000  H
  H147     1.0000 0.33470  0.14490  0.68950  Biso   1.000  H
  H148     1.0000 0.16530  0.85510  0.18950  Biso   1.000  H
  H149     1.0000 0.60510  0.58470  0.43950  Biso   1.000  H
  H150     1.0000 0.83470  0.35510  0.81050  Biso   1.000  H
  H151     1.0000 0.83470  0.64490  0.18950  Biso   1.000  H
  H152     1.0000 0.66530  0.35510  0.68950  Biso   1.000  H
  H153     1.0000 0.10510  0.91530  0.06050  Biso   1.000  H
  H154     1.0000 0.39490  0.91530  0.43950  Biso   1.000  H
  H155     1.0000 0.39490  0.08470  0.56050  Biso   1.000  H
  H156     1.0000 0.16530  0.14490  0.81050  Biso   1.000  H
  H157     1.0000 0.60510  0.41530  0.56050  Biso   1.000  H
  H158     1.0000 0.89490  0.41530  0.93950  Biso   1.000  H
  H159     1.0000 0.89490  0.58470  0.06050  Biso   1.000  H
  H160     1.0000 0.66530  0.64490  0.31050  Biso   1.000  H
  C241     1.0000 0.84282  0.93490  0.09008  Biso   1.000  C
  C242     1.0000 0.18490  0.59282  0.15992  Biso   1.000  C
  C243     1.0000 0.18490  0.40718  0.84008  Biso   1.000  C
  C244     1.0000 0.31510  0.59282  0.34008  Biso   1.000  C
  C245     1.0000 0.34282  0.43490  0.59008  Biso   1.000  C
  C246     1.0000 0.68490  0.09282  0.65992  Biso   1.000  C
  C247     1.0000 0.68490  0.90718  0.34008  Biso   1.000  C
  C248     1.0000 0.81510  0.09282  0.84008  Biso   1.000  C
  C249     1.0000 0.84282  0.06510  0.90992  Biso   1.000  C
  C250     1.0000 0.65718  0.06510  0.59008  Biso   1.000  C
  C251     1.0000 0.65718  0.93490  0.40992  Biso   1.000  C
  C252     1.0000 0.31510  0.40718  0.65992  Biso   1.000  C
  C253     1.0000 0.34282  0.56510  0.40992  Biso   1.000  C
  C254     1.0000 0.15718  0.56510  0.09008  Biso   1.000  C
  C255     1.0000 0.15718  0.43490  0.90992  Biso   1.000  C
  C256     1.0000 0.81510  0.90718  0.15992  Biso   1.000  C
  C257     1.0000 0.15718  0.06510  0.90992  Biso   1.000  C
  C258     1.0000 0.31510  0.90718  0.34008  Biso   1.000  C
  C259     1.0000 0.31510  0.09282  0.65992  Biso   1.000  C
  C260     1.0000 0.18490  0.90718  0.15992  Biso   1.000  C
  C261     1.0000 0.65718  0.56510  0.40992  Biso   1.000  C
  C262     1.0000 0.81510  0.40718  0.84008  Biso   1.000  C
  C263     1.0000 0.81510  0.59282  0.15992  Biso   1.000  C
  C264     1.0000 0.68490  0.40718  0.65992  Biso   1.000  C
  C265     1.0000 0.15718  0.93490  0.09008  Biso   1.000  C
  C266     1.0000 0.34282  0.93490  0.40992  Biso   1.000  C
  C267     1.0000 0.34282  0.06510  0.59008  Biso   1.000  C
  C268     1.0000 0.18490  0.09282  0.84008  Biso   1.000  C
  C269     1.0000 0.65718  0.43490  0.59008  Biso   1.000  C
  C270     1.0000 0.84282  0.43490  0.90992  Biso   1.000  C
  C271     1.0000 0.84282  0.56510  0.09008  Biso   1.000  C
  C272     1.0000 0.68490  0.59282  0.34008  Biso   1.000  C
  H161     1.0000 0.83090  0.90450  0.09390  Biso   1.000  H
  H162     1.0000 0.15450  0.58090  0.15610  Biso   1.000  H
  H163     1.0000 0.15450  0.41910  0.84390  Biso   1.000  H
  H164     1.0000 0.34550  0.58090  0.34390  Biso   1.000  H
  H165     1.0000 0.33090  0.40450  0.59390  Biso   1.000  H
  H166     1.0000 0.65450  0.08090  0.65610  Biso   1.000  H
  H167     1.0000 0.65450  0.91910  0.34390  Biso   1.000  H
  H168     1.0000 0.84550  0.08090  0.84390  Biso   1.000  H
  H169     1.0000 0.83090  0.09550  0.90610  Biso   1.000  H
  H170     1.0000 0.66910  0.09550  0.59390  Biso   1.000  H
  H171     1.0000 0.66910  0.90450  0.40610  Biso   1.000  H
  H172     1.0000 0.34550  0.41910  0.65610  Biso   1.000  H
  H173     1.0000 0.33090  0.59550  0.40610  Biso   1.000  H
  H174     1.0000 0.16910  0.59550  0.09390  Biso   1.000  H
  H175     1.0000 0.16910  0.40450  0.90610  Biso   1.000  H
  H176     1.0000 0.84550  0.91910  0.15610  Biso   1.000  H
  H177     1.0000 0.16910  0.09550  0.90610  Biso   1.000  H
  H178     1.0000 0.34550  0.91910  0.34390  Biso   1.000  H
  H179     1.0000 0.34550  0.08090  0.65610  Biso   1.000  H
  H180     1.0000 0.15450  0.91910  0.15610  Biso   1.000  H
  H181     1.0000 0.66910  0.59550  0.40610  Biso   1.000  H
  H182     1.0000 0.84550  0.41910  0.84390  Biso   1.000  H
  H183     1.0000 0.84550  0.58090  0.15610  Biso   1.000  H
  H184     1.0000 0.65450  0.41910  0.65610  Biso   1.000  H
  H185     1.0000 0.16910  0.90450  0.09390  Biso   1.000  H
  H186     1.0000 0.33090  0.90450  0.40610  Biso   1.000  H
  H187     1.0000 0.33090  0.09550  0.59390  Biso   1.000  H
  H188     1.0000 0.15450  0.08090  0.84390  Biso   1.000  H
  H189     1.0000 0.66910  0.40450  0.59390  Biso   1.000  H
  H190     1.0000 0.83090  0.40450  0.90610  Biso   1.000  H
  H191     1.0000 0.83090  0.59550  0.09390  Biso   1.000  H
  H192     1.0000 0.65450  0.58090  0.34390  Biso   1.000  H
  C273     1.0000 0.82440  0.97290  0.10391  Biso   1.000  C
  C274     1.0000 0.22290  0.57440  0.14609  Biso   1.000  C
  C275     1.0000 0.22290  0.42560  0.85391  Biso   1.000  C
  C276     1.0000 0.27710  0.57440  0.35391  Biso   1.000  C
  C277     1.0000 0.32440  0.47290  0.60391  Biso   1.000  C
  C278     1.0000 0.72290  0.07440  0.64609  Biso   1.000  C
  C279     1.0000 0.72290  0.92560  0.35391  Biso   1.000  C
  C280     1.0000 0.77710  0.07440  0.85391  Biso   1.000  C
  C281     1.0000 0.82440  0.02710  0.89609  Biso   1.000  C
  C282     1.0000 0.67560  0.02710  0.60391  Biso   1.000  C
  C283     1.0000 0.67560  0.97290  0.39609  Biso   1.000  C
  C284     1.0000 0.27710  0.42560  0.64609  Biso   1.000  C
  C285     1.0000 0.32440  0.52710  0.39609  Biso   1.000  C
  C286     1.0000 0.17560  0.52710  0.10391  Biso   1.000  C
  C287     1.0000 0.17560  0.47290  0.89609  Biso   1.000  C
  C288     1.0000 0.77710  0.92560  0.14609  Biso   1.000  C
  C289     1.0000 0.17560  0.02710  0.89609  Biso   1.000  C
  C290     1.0000 0.27710  0.92560  0.35391  Biso   1.000  C
  C291     1.0000 0.27710  0.07440  0.64609  Biso   1.000  C
  C292     1.0000 0.22290  0.92560  0.14609  Biso   1.000  C
  C293     1.0000 0.67560  0.52710  0.39609  Biso   1.000  C
  C294     1.0000 0.77710  0.42560  0.85391  Biso   1.000  C
  C295     1.0000 0.77710  0.57440  0.14609  Biso   1.000  C
  C296     1.0000 0.72290  0.42560  0.64609  Biso   1.000  C
  C297     1.0000 0.17560  0.97290  0.10391  Biso   1.000  C
  C298     1.0000 0.32440  0.97290  0.39609  Biso   1.000  C
  C299     1.0000 0.32440  0.02710  0.60391  Biso   1.000  C
  C300     1.0000 0.22290  0.07440  0.85391  Biso   1.000  C
  C301     1.0000 0.67560  0.47290  0.60391  Biso   1.000  C
  C302     1.0000 0.82440  0.47290  0.89609  Biso   1.000  C
  C303     1.0000 0.82440  0.52710  0.10391  Biso   1.000  C
  C304     1.0000 0.72290  0.57440  0.35391  Biso   1.000  C
  C305     1.0000 0.84160  0.01880  0.09997  Biso   1.000  C
  C306     1.0000 0.26880  0.59160  0.15003  Biso   1.000  C
  C307     1.0000 0.26880  0.40840  0.84997  Biso   1.000  C
  C308     1.0000 0.23120  0.59160  0.34997  Biso   1.000  C
  C309     1.0000 0.34160  0.51880  0.59997  Biso   1.000  C
  C310     1.0000 0.76880  0.09160  0.65003  Biso   1.000  C
  C311     1.0000 0.76880  0.90840  0.34997  Biso   1.000  C
  C312     1.0000 0.73120  0.09160  0.84997  Biso   1.000  C
  C313     1.0000 0.84160  0.98120  0.90003  Biso   1.000  C
  C314     1.0000 0.65840  0.98120  0.59997  Biso   1.000  C
  C315     1.0000 0.65840  0.01880  0.40003  Biso   1.000  C
  C316     1.0000 0.23120  0.40840  0.65003  Biso   1.000  C
  C317     1.0000 0.34160  0.48120  0.40003  Biso   1.000  C
  C318     1.0000 0.15840  0.48120  0.09997  Biso   1.000  C
  C319     1.0000 0.15840  0.51880  0.90003  Biso   1.000  C
  C320     1.0000 0.73120  0.90840  0.15003  Biso   1.000  C
  C321     1.0000 0.15840  0.98120  0.90003  Biso   1.000  C
  C322     1.0000 0.23120  0.90840  0.34997  Biso   1.000  C
  C323     1.0000 0.23120  0.09160  0.65003  Biso   1.000  C
  C324     1.0000 0.26880  0.90840  0.15003  Biso   1.000  C
  C325     1.0000 0.65840  0.48120  0.40003  Biso   1.000  C
  C326     1.0000 0.73120  0.40840  0.84997  Biso   1.000  C
  C327     1.0000 0.73120  0.59160  0.15003  Biso   1.000  C
  C328     1.0000 0.76880  0.40840  0.65003  Biso   1.000  C
  C329     1.0000 0.15840  0.01880  0.09997  Biso   1.000  C
  C330     1.0000 0.34160  0.01880  0.40003  Biso   1.000  C
  C331     1.0000 0.34160  0.98120  0.59997  Biso   1.000  C
  C332     1.0000 0.26880  0.09160  0.84997  Biso   1.000  C
  C333     1.0000 0.65840  0.51880  0.59997  Biso   1.000  C
  C334     1.0000 0.84160  0.51880  0.90003  Biso   1.000  C
  C335     1.0000 0.84160  0.48120  0.09997  Biso   1.000  C
  C336     1.0000 0.76880  0.59160  0.34997  Biso   1.000  C
  H193     1.0000 0.82930  0.04430  0.11100  Biso   1.000  H
  H194     1.0000 0.29430  0.57930  0.13900  Biso   1.000  H
  H195     1.0000 0.29430  0.42070  0.86100  Biso   1.000  H
  H196     1.0000 0.20570  0.57930  0.36100  Biso   1.000  H
  H197     1.0000 0.32930  0.54430  0.61100  Biso   1.000  H
  H198     1.0000 0.79430  0.07930  0.63900  Biso   1.000  H
  H199     1.0000 0.79430  0.92070  0.36100  Biso   1.000  H
  H200     1.0000 0.70570  0.07930  0.86100  Biso   1.000  H
  H201     1.0000 0.82930  0.95570  0.88900  Biso   1.000  H
  H202     1.0000 0.67070  0.95570  0.61100  Biso   1.000  H
  H203     1.0000 0.67070  0.04430  0.38900  Biso   1.000  H
  H204     1.0000 0.20570  0.42070  0.63900  Biso   1.000  H
  H205     1.0000 0.32930  0.45570  0.38900  Biso   1.000  H
  H206     1.0000 0.17070  0.45570  0.11100  Biso   1.000  H
  H207     1.0000 0.17070  0.54430  0.88900  Biso   1.000  H
  H208     1.0000 0.70570  0.92070  0.13900  Biso   1.000  H
  H209     1.0000 0.17070  0.95570  0.88900  Biso   1.000  H
  H210     1.0000 0.20570  0.92070  0.36100  Biso   1.000  H
  H211     1.0000 0.20570  0.07930  0.63900  Biso   1.000  H
  H212     1.0000 0.29430  0.92070  0.13900  Biso   1.000  H
  H213     1.0000 0.67070  0.45570  0.38900  Biso   1.000  H
  H214     1.0000 0.70570  0.42070  0.86100  Biso   1.000  H
  H215     1.0000 0.70570  0.57930  0.13900  Biso   1.000  H
  H216     1.0000 0.79430  0.42070  0.63900  Biso   1.000  H
  H217     1.0000 0.17070  0.04430  0.11100  Biso   1.000  H
  H218     1.0000 0.32930  0.04430  0.38900  Biso   1.000  H
  H219     1.0000 0.32930  0.95570  0.61100  Biso   1.000  H
  H220     1.0000 0.29430  0.07930  0.86100  Biso   1.000  H
  H221     1.0000 0.67070  0.54430  0.61100  Biso   1.000  H
  H222     1.0000 0.82930  0.54430  0.88900  Biso   1.000  H
  H223     1.0000 0.82930  0.45570  0.11100  Biso   1.000  H
  H224     1.0000 0.79430  0.57930  0.36100  Biso   1.000  H
  C337     1.0000 0.87838  0.02553  0.07871  Biso   1.000  C
  C338     1.0000 0.27553  0.62838  0.17129  Biso   1.000  C
  C339     1.0000 0.27553  0.37162  0.82871  Biso   1.000  C
  C340     1.0000 0.22447  0.62838  0.32871  Biso   1.000  C
  C341     1.0000 0.37838  0.52553  0.57871  Biso   1.000  C
  C342     1.0000 0.77553  0.12838  0.67129  Biso   1.000  C
  C343     1.0000 0.77553  0.87162  0.32871  Biso   1.000  C
  C344     1.0000 0.72447  0.12838  0.82871  Biso   1.000  C
  C345     1.0000 0.87838  0.97447  0.92129  Biso   1.000  C
  C346     1.0000 0.62162  0.97447  0.57871  Biso   1.000  C
  C347     1.0000 0.62162  0.02553  0.42129  Biso   1.000  C
  C348     1.0000 0.22447  0.37162  0.67129  Biso   1.000  C
  C349     1.0000 0.37838  0.47447  0.42129  Biso   1.000  C
  C350     1.0000 0.12162  0.47447  0.07871  Biso   1.000  C
  C351     1.0000 0.12162  0.52553  0.92129  Biso   1.000  C
  C352     1.0000 0.72447  0.87162  0.17129  Biso   1.000  C
  C353     1.0000 0.12162  0.97447  0.92129  Biso   1.000  C
  C354     1.0000 0.22447  0.87162  0.32871  Biso   1.000  C
  C355     1.0000 0.22447  0.12838  0.67129  Biso   1.000  C
  C356     1.0000 0.27553  0.87162  0.17129  Biso   1.000  C
  C357     1.0000 0.62162  0.47447  0.42129  Biso   1.000  C
  C358     1.0000 0.72447  0.37162  0.82871  Biso   1.000  C
  C359     1.0000 0.72447  0.62838  0.17129  Biso   1.000  C
  C360     1.0000 0.77553  0.37162  0.67129  Biso   1.000  C
  C361     1.0000 0.12162  0.02553  0.07871  Biso   1.000  C
  C362     1.0000 0.37838  0.02553  0.42129  Biso   1.000  C
  C363     1.0000 0.37838  0.97447  0.57871  Biso   1.000  C
  C364     1.0000 0.27553  0.12838  0.82871  Biso   1.000  C
  C365     1.0000 0.62162  0.52553  0.57871  Biso   1.000  C
  C366     1.0000 0.87838  0.52553  0.92129  Biso   1.000  C
  C367     1.0000 0.87838  0.47447  0.07871  Biso   1.000  C
  C368     1.0000 0.77553  0.62838  0.32871  Biso   1.000  C
  H225     1.0000 0.89050  0.05590  0.07510  Biso   1.000  H
  H226     1.0000 0.30590  0.64050  0.17490  Biso   1.000  H
  H227     1.0000 0.30590  0.35950  0.82510  Biso   1.000  H
  H228     1.0000 0.19410  0.64050  0.32510  Biso   1.000  H
  H229     1.0000 0.39050  0.55590  0.57510  Biso   1.000  H
  H230     1.0000 0.80590  0.14050  0.67490  Biso   1.000  H
  H231     1.0000 0.80590  0.85950  0.32510  Biso   1.000  H
  H232     1.0000 0.69410  0.14050  0.82510  Biso   1.000  H
  H233     1.0000 0.89050  0.94410  0.92490  Biso   1.000  H
  H234     1.0000 0.60950  0.94410  0.57510  Biso   1.000  H
  H235     1.0000 0.60950  0.05590  0.42490  Biso   1.000  H
  H236     1.0000 0.19410  0.35950  0.67490  Biso   1.000  H
  H237     1.0000 0.39050  0.44410  0.42490  Biso   1.000  H
  H238     1.0000 0.10950  0.44410  0.07510  Biso   1.000  H
  H239     1.0000 0.10950  0.55590  0.92490  Biso   1.000  H
  H240     1.0000 0.69410  0.85950  0.17490  Biso   1.000  H
  H241     1.0000 0.10950  0.94410  0.92490  Biso   1.000  H
  H242     1.0000 0.19410  0.85950  0.32510  Biso   1.000  H
  H243     1.0000 0.19410  0.14050  0.67490  Biso   1.000  H
  H244     1.0000 0.30590  0.85950  0.17490  Biso   1.000  H
  H245     1.0000 0.60950  0.44410  0.42490  Biso   1.000  H
  H246     1.0000 0.69410  0.35950  0.82510  Biso   1.000  H
  H247     1.0000 0.69410  0.64050  0.17490  Biso   1.000  H
  H248     1.0000 0.80590  0.35950  0.67490  Biso   1.000  H
  H249     1.0000 0.10950  0.05590  0.07510  Biso   1.000  H
  H250     1.0000 0.39050  0.05590  0.42490  Biso   1.000  H
  H251     1.0000 0.39050  0.94410  0.57510  Biso   1.000  H
  H252     1.0000 0.30590  0.14050  0.82510  Biso   1.000  H
  H253     1.0000 0.60950  0.55590  0.57510  Biso   1.000  H
  H254     1.0000 0.89050  0.55590  0.92490  Biso   1.000  H
  H255     1.0000 0.89050  0.44410  0.07510  Biso   1.000  H
  H256     1.0000 0.80590  0.64050  0.32510  Biso   1.000  H
  C369     1.0000 0.78140  0.96860  0.12500  Biso   1.000  C
  C370     1.0000 0.21860  0.53140  0.12500  Biso   1.000  C
  C371     1.0000 0.21860  0.46860  0.87500  Biso   1.000  C
  C372     1.0000 0.28140  0.53140  0.37500  Biso   1.000  C
  C373     1.0000 0.28140  0.46860  0.62500  Biso   1.000  C
  C374     1.0000 0.71860  0.03140  0.62500  Biso   1.000  C
  C375     1.0000 0.71860  0.96860  0.37500  Biso   1.000  C
  C376     1.0000 0.78140  0.03140  0.87500  Biso   1.000  C
  C377     1.0000 0.21860  0.03140  0.87500  Biso   1.000  C
  C378     1.0000 0.28140  0.96860  0.37500  Biso   1.000  C
  C379     1.0000 0.28140  0.03140  0.62500  Biso   1.000  C
  C380     1.0000 0.21860  0.96860  0.12500  Biso   1.000  C
  C381     1.0000 0.71860  0.53140  0.37500  Biso   1.000  C
  C382     1.0000 0.78140  0.46860  0.87500  Biso   1.000  C
  C383     1.0000 0.78140  0.53140  0.12500  Biso   1.000  C
  C384     1.0000 0.71860  0.46860  0.62500  Biso   1.000  C
  Cu1      1.0000 0.00000  0.04708  0.00472  Biso   1.000  Cu
  Cu2      1.0000 0.29708  0.75000  0.24528  Biso   1.000  Cu
  Cu3      1.0000 0.29708  0.25000  0.75472  Biso   1.000  Cu
  Cu4      1.0000 0.20292  0.75000  0.25472  Biso   1.000  Cu
  Cu5      1.0000 0.50000  0.54708  0.50472  Biso   1.000  Cu
  Cu6      1.0000 0.79708  0.25000  0.74528  Biso   1.000  Cu
  Cu7      1.0000 0.79708  0.75000  0.25472  Biso   1.000  Cu
  Cu8      1.0000 0.70292  0.25000  0.75472  Biso   1.000  Cu
  Cu9      1.0000 0.00000  0.95292  0.99528  Biso   1.000  Cu
  Cu10     1.0000 0.50000  0.95292  0.50472  Biso   1.000  Cu
  Cu11     1.0000 0.50000  0.04708  0.49528  Biso   1.000  Cu
  Cu12     1.0000 0.20292  0.25000  0.74528  Biso   1.000  Cu
  Cu13     1.0000 0.50000  0.45292  0.49528  Biso   1.000  Cu
  Cu14     1.0000 0.00000  0.45292  0.00472  Biso   1.000  Cu
  Cu15     1.0000 0.00000  0.54708  0.99528  Biso   1.000  Cu
  Cu16     1.0000 0.70292  0.75000  0.24528  Biso   1.000  Cu
  O49      1.0000 0.94958  0.95547  0.02709  Biso   1.000  O
  O50      1.0000 0.20547  0.69958  0.22291  Biso   1.000  O
  O51      1.0000 0.20547  0.30042  0.77709  Biso   1.000  O
  O52      1.0000 0.29453  0.69958  0.27709  Biso   1.000  O
  O53      1.0000 0.44958  0.45547  0.52709  Biso   1.000  O
  O54      1.0000 0.70547  0.19958  0.72291  Biso   1.000  O
  O55      1.0000 0.70547  0.80042  0.27709  Biso   1.000  O
  O56      1.0000 0.79453  0.19958  0.77709  Biso   1.000  O
  O57      1.0000 0.94958  0.04453  0.97291  Biso   1.000  O
  O58      1.0000 0.55042  0.04453  0.52709  Biso   1.000  O
  O59      1.0000 0.55042  0.95547  0.47291  Biso   1.000  O
  O60      1.0000 0.29453  0.30042  0.72291  Biso   1.000  O
  O61      1.0000 0.44958  0.54453  0.47291  Biso   1.000  O
  O62      1.0000 0.05042  0.54453  0.02709  Biso   1.000  O
  O63      1.0000 0.05042  0.45547  0.97291  Biso   1.000  O
  O64      1.0000 0.79453  0.80042  0.22291  Biso   1.000  O
  O65      1.0000 0.05042  0.04453  0.97291  Biso   1.000  O
  O66      1.0000 0.29453  0.80042  0.27709  Biso   1.000  O
  O67      1.0000 0.29453  0.19958  0.72291  Biso   1.000  O
  O68      1.0000 0.20547  0.80042  0.22291  Biso   1.000  O
  O69      1.0000 0.55042  0.54453  0.47291  Biso   1.000  O
  O70      1.0000 0.79453  0.30042  0.77709  Biso   1.000  O
  O71      1.0000 0.79453  0.69958  0.22291  Biso   1.000  O
  O72      1.0000 0.70547  0.30042  0.72291  Biso   1.000  O
  O73      1.0000 0.05042  0.95547  0.02709  Biso   1.000  O
  O74      1.0000 0.44958  0.95547  0.47291  Biso   1.000  O
  O75      1.0000 0.44958  0.04453  0.52709  Biso   1.000  O
  O76      1.0000 0.20547  0.19958  0.77709  Biso   1.000  O
  O77      1.0000 0.55042  0.45547  0.52709  Biso   1.000  O
  O78      1.0000 0.94958  0.45547  0.97291  Biso   1.000  O
  O79      1.0000 0.94958  0.54453  0.02709  Biso   1.000  O
  O80      1.0000 0.70547  0.69958  0.27709  Biso   1.000  O
