data_image0
_cell_length_a       19.142
_cell_length_b       19.142
_cell_length_c       42.64
_cell_angle_alpha    90
_cell_angle_beta     90
_cell_angle_gamma    120

_symmetry_space_group_name_H-M    "P 1"
_symmetry_int_tables_number       1

loop_
  _symmetry_equiv_pos_as_xyz
  'x, y, z'

loop_
  _atom_site_label
  _atom_site_occupancy
  _atom_site_fract_x
  _atom_site_fract_y
  _atom_site_fract_z
  _atom_site_thermal_displace_type
  _atom_site_B_iso_or_equiv
  _atom_site_type_symbol
  Cu1      1.0000 0.66666  0.80021  0.08334  Biso   1.000  Cu
  Cu2      1.0000 0.19979  0.86645  0.08334  Biso   1.000  Cu
  Cu3      1.0000 0.13355  0.33334  0.08334  Biso   1.000  Cu
  Cu4      1.0000 0.99999  0.13354  0.41667  Biso   1.000  Cu
  Cu5      1.0000 0.53312  0.19978  0.41667  Biso   1.000  Cu
  Cu6      1.0000 0.46688  0.66667  0.41667  Biso   1.000  Cu
  Cu7      1.0000 0.13354  0.46688  0.24999  Biso   1.000  Cu
  Cu8      1.0000 0.19978  0.99999  0.24999  Biso   1.000  Cu
  Cu9      1.0000 0.33334  0.19979  0.91666  Biso   1.000  Cu
  Cu10     1.0000 0.80021  0.13355  0.91666  Biso   1.000  Cu
  Cu11     1.0000 0.86645  0.66666  0.91666  Biso   1.000  Cu
  Cu12     1.0000 0.66667  0.53312  0.24999  Biso   1.000  Cu
  O1       1.0000 0.78375  0.85868  0.08944  Biso   1.000  O
  O2       1.0000 0.14132  0.92507  0.08944  Biso   1.000  O
  O3       1.0000 0.07493  0.21625  0.08944  Biso   1.000  O
  O4       1.0000 0.11708  0.19201  0.42277  Biso   1.000  O
  O5       1.0000 0.47465  0.25840  0.42277  Biso   1.000  O
  O6       1.0000 0.40826  0.54958  0.42277  Biso   1.000  O
  O7       1.0000 0.19201  0.40826  0.24389  Biso   1.000  O
  O8       1.0000 0.25840  0.11708  0.24389  Biso   1.000  O
  O9       1.0000 0.21625  0.14132  0.91056  Biso   1.000  O
  O10      1.0000 0.85868  0.07493  0.91056  Biso   1.000  O
  O11      1.0000 0.92507  0.78375  0.91056  Biso   1.000  O
  O12      1.0000 0.54958  0.47465  0.24389  Biso   1.000  O
  O13      1.0000 0.79980  0.98220  0.08356  Biso   1.000  O
  O14      1.0000 0.01780  0.81760  0.08356  Biso   1.000  O
  O15      1.0000 0.18240  0.20020  0.08356  Biso   1.000  O
  O16      1.0000 0.13313  0.31553  0.41689  Biso   1.000  O
  O17      1.0000 0.35113  0.15093  0.41689  Biso   1.000  O
  O18      1.0000 0.51573  0.53353  0.41689  Biso   1.000  O
  O19      1.0000 0.31553  0.51573  0.24977  Biso   1.000  O
  O20      1.0000 0.15093  0.13313  0.24977  Biso   1.000  O
  O21      1.0000 0.20020  0.01780  0.91644  Biso   1.000  O
  O22      1.0000 0.98220  0.18240  0.91644  Biso   1.000  O
  O23      1.0000 0.81760  0.79980  0.91644  Biso   1.000  O
  O24      1.0000 0.53353  0.35113  0.24977  Biso   1.000  O
  O25      1.0000 0.54970  0.74166  0.07724  Biso   1.000  O
  O26      1.0000 0.25834  0.80804  0.07724  Biso   1.000  O
  O27      1.0000 0.19196  0.45030  0.07724  Biso   1.000  O
  O28      1.0000 0.88303  0.07499  0.41057  Biso   1.000  O
  O29      1.0000 0.59167  0.14137  0.41057  Biso   1.000  O
  O30      1.0000 0.52529  0.78363  0.41057  Biso   1.000  O
  O31      1.0000 0.07499  0.52529  0.25609  Biso   1.000  O
  O32      1.0000 0.14137  0.88303  0.25609  Biso   1.000  O
  O33      1.0000 0.45030  0.25834  0.92276  Biso   1.000  O
  O34      1.0000 0.74166  0.19196  0.92276  Biso   1.000  O
  O35      1.0000 0.80804  0.54970  0.92276  Biso   1.000  O
  O36      1.0000 0.78363  0.59167  0.25609  Biso   1.000  O
  O37      1.0000 0.53359  0.84883  0.08348  Biso   1.000  O
  O38      1.0000 0.15117  0.68476  0.08348  Biso   1.000  O
  O39      1.0000 0.31524  0.46641  0.08348  Biso   1.000  O
  O40      1.0000 0.86692  0.18216  0.41681  Biso   1.000  O
  O41      1.0000 0.48450  0.01809  0.41681  Biso   1.000  O
  O42      1.0000 0.64857  0.79974  0.41681  Biso   1.000  O
  O43      1.0000 0.18216  0.64857  0.24985  Biso   1.000  O
  O44      1.0000 0.01809  0.86692  0.24985  Biso   1.000  O
  O45      1.0000 0.46641  0.15117  0.91652  Biso   1.000  O
  O46      1.0000 0.84883  0.31524  0.91652  Biso   1.000  O
  O47      1.0000 0.68476  0.53359  0.91652  Biso   1.000  O
  O48      1.0000 0.79974  0.48450  0.24985  Biso   1.000  O
  O49      1.0000 0.66640  0.00280  0.08327  Biso   1.000  O
  O50      1.0000 0.99720  0.66360  0.08327  Biso   1.000  O
  O51      1.0000 0.33640  0.33360  0.08327  Biso   1.000  O
  O52      1.0000 0.99973  0.33613  0.41660  Biso   1.000  O
  O53      1.0000 0.33053  0.99693  0.41660  Biso   1.000  O
  O54      1.0000 0.66973  0.66693  0.41660  Biso   1.000  O
  O55      1.0000 0.33613  0.66973  0.25006  Biso   1.000  O
  O56      1.0000 0.99693  0.99973  0.25006  Biso   1.000  O
  O57      1.0000 0.33360  0.99720  0.91673  Biso   1.000  O
  O58      1.0000 0.00280  0.33640  0.91673  Biso   1.000  O
  O59      1.0000 0.66360  0.66640  0.91673  Biso   1.000  O
  O60      1.0000 0.66693  0.33053  0.25006  Biso   1.000  O
  H1       1.0000 0.70300  0.99380  0.08925  Biso   1.000  H
  H2       1.0000 0.00620  0.70920  0.08925  Biso   1.000  H
  H3       1.0000 0.29080  0.29700  0.08925  Biso   1.000  H
  H4       1.0000 0.03633  0.32713  0.42258  Biso   1.000  H
  H5       1.0000 0.33953  0.04253  0.42258  Biso   1.000  H
  H6       1.0000 0.62413  0.63033  0.42258  Biso   1.000  H
  H7       1.0000 0.32713  0.62413  0.24408  Biso   1.000  H
  H8       1.0000 0.04253  0.03633  0.24408  Biso   1.000  H
  H9       1.0000 0.29700  0.00620  0.91075  Biso   1.000  H
  H10      1.0000 0.99380  0.29080  0.91075  Biso   1.000  H
  H11      1.0000 0.70920  0.70300  0.91075  Biso   1.000  H
  H12      1.0000 0.63033  0.33953  0.24408  Biso   1.000  H
  H13      1.0000 0.62670  0.94340  0.08355  Biso   1.000  H
  H14      1.0000 0.05660  0.68330  0.08355  Biso   1.000  H
  H15      1.0000 0.31670  0.37330  0.08355  Biso   1.000  H
  H16      1.0000 0.96003  0.27673  0.41688  Biso   1.000  H
  H17      1.0000 0.38993  0.01663  0.41688  Biso   1.000  H
  H18      1.0000 0.65003  0.70663  0.41688  Biso   1.000  H
  H19      1.0000 0.27673  0.65003  0.24978  Biso   1.000  H
  H20      1.0000 0.01663  0.96003  0.24978  Biso   1.000  H
  H21      1.0000 0.37330  0.05660  0.91645  Biso   1.000  H
  H22      1.0000 0.94340  0.31670  0.91645  Biso   1.000  H
  H23      1.0000 0.68330  0.62670  0.91645  Biso   1.000  H
  H24      1.0000 0.70663  0.38993  0.24978  Biso   1.000  H
  O61      1.0000 0.66660  0.14770  0.08390  Biso   1.000  O
  O62      1.0000 0.85230  0.51890  0.08390  Biso   1.000  O
  O63      1.0000 0.48110  0.33340  0.08390  Biso   1.000  O
  O64      1.0000 0.99993  0.48103  0.41723  Biso   1.000  O
  O65      1.0000 0.18563  0.85223  0.41723  Biso   1.000  O
  O66      1.0000 0.81443  0.66673  0.41723  Biso   1.000  O
  O67      1.0000 0.48103  0.81443  0.24943  Biso   1.000  O
  O68      1.0000 0.85223  0.99993  0.24943  Biso   1.000  O
  O69      1.0000 0.33340  0.85230  0.91610  Biso   1.000  O
  O70      1.0000 0.14770  0.48110  0.91610  Biso   1.000  O
  O71      1.0000 0.51890  0.66660  0.91610  Biso   1.000  O
  O72      1.0000 0.66673  0.18563  0.24943  Biso   1.000  O
  N1       1.0000 0.68450  0.81860  0.03644  Biso   1.000  N
  N2       1.0000 0.18140  0.86590  0.03644  Biso   1.000  N
  N3       1.0000 0.13410  0.31550  0.03644  Biso   1.000  N
  N4       1.0000 0.01783  0.15193  0.36977  Biso   1.000  N
  N5       1.0000 0.51473  0.19923  0.36977  Biso   1.000  N
  N6       1.0000 0.46743  0.64883  0.36977  Biso   1.000  N
  N7       1.0000 0.15193  0.46743  0.29689  Biso   1.000  N
  N8       1.0000 0.19923  0.01783  0.29689  Biso   1.000  N
  N9       1.0000 0.31550  0.18140  0.96356  Biso   1.000  N
  N10      1.0000 0.81860  0.13410  0.96356  Biso   1.000  N
  N11      1.0000 0.86590  0.68450  0.96356  Biso   1.000  N
  N12      1.0000 0.64883  0.51473  0.29689  Biso   1.000  N
  N13      1.0000 0.64900  0.80070  0.12997  Biso   1.000  N
  N14      1.0000 0.19930  0.84830  0.12997  Biso   1.000  N
  N15      1.0000 0.15170  0.35100  0.12997  Biso   1.000  N
  N16      1.0000 0.98233  0.13403  0.46330  Biso   1.000  N
  N17      1.0000 0.53263  0.18163  0.46330  Biso   1.000  N
  N18      1.0000 0.48503  0.68433  0.46330  Biso   1.000  N
  N19      1.0000 0.13403  0.48503  0.20336  Biso   1.000  N
  N20      1.0000 0.18163  0.98233  0.20336  Biso   1.000  N
  N21      1.0000 0.35100  0.19930  0.87003  Biso   1.000  N
  N22      1.0000 0.80070  0.15170  0.87003  Biso   1.000  N
  N23      1.0000 0.84830  0.64900  0.87003  Biso   1.000  N
  N24      1.0000 0.68433  0.53263  0.20336  Biso   1.000  N
  N25      1.0000 0.66640  0.68050  0.08341  Biso   1.000  N
  N26      1.0000 0.31950  0.98590  0.08341  Biso   1.000  N
  N27      1.0000 0.01410  0.33360  0.08341  Biso   1.000  N
  N28      1.0000 0.99973  0.01383  0.41674  Biso   1.000  N
  N29      1.0000 0.65283  0.31923  0.41674  Biso   1.000  N
  N30      1.0000 0.34743  0.66693  0.41674  Biso   1.000  N
  N31      1.0000 0.01383  0.34743  0.24992  Biso   1.000  N
  N32      1.0000 0.31923  0.99973  0.24992  Biso   1.000  N
  N33      1.0000 0.33360  0.31950  0.91659  Biso   1.000  N
  N34      1.0000 0.68050  0.01410  0.91659  Biso   1.000  N
  N35      1.0000 0.98590  0.66640  0.91659  Biso   1.000  N
  N36      1.0000 0.66693  0.65283  0.24992  Biso   1.000  N
  C1       1.0000 0.96790  0.05150  0.08536  Biso   1.000  C
  C2       1.0000 0.94850  0.91640  0.08536  Biso   1.000  C
  C3       1.0000 0.08360  0.03210  0.08536  Biso   1.000  C
  C4       1.0000 0.30123  0.38483  0.41869  Biso   1.000  C
  C5       1.0000 0.28183  0.24973  0.41869  Biso   1.000  C
  C6       1.0000 0.41693  0.36543  0.41869  Biso   1.000  C
  C7       1.0000 0.38483  0.41693  0.24797  Biso   1.000  C
  C8       1.0000 0.24973  0.30123  0.24797  Biso   1.000  C
  C9       1.0000 0.03210  0.94850  0.91464  Biso   1.000  C
  C10      1.0000 0.05150  0.08360  0.91464  Biso   1.000  C
  C11      1.0000 0.91640  0.96790  0.91464  Biso   1.000  C
  C12      1.0000 0.36543  0.28183  0.24797  Biso   1.000  C
  H25      1.0000 0.94640  0.08630  0.08520  Biso   1.000  H
  H26      1.0000 0.91370  0.86010  0.08520  Biso   1.000  H
  H27      1.0000 0.13990  0.05360  0.08520  Biso   1.000  H
  H28      1.0000 0.27973  0.41963  0.41853  Biso   1.000  H
  H29      1.0000 0.24703  0.19343  0.41853  Biso   1.000  H
  H30      1.0000 0.47323  0.38693  0.41853  Biso   1.000  H
  H31      1.0000 0.41963  0.47323  0.24813  Biso   1.000  H
  H32      1.0000 0.19343  0.27973  0.24813  Biso   1.000  H
  H33      1.0000 0.05360  0.91370  0.91480  Biso   1.000  H
  H34      1.0000 0.08630  0.13990  0.91480  Biso   1.000  H
  H35      1.0000 0.86010  0.94640  0.91480  Biso   1.000  H
  H36      1.0000 0.38693  0.24703  0.24813  Biso   1.000  H
  C13      1.0000 0.91630  0.96830  0.08549  Biso   1.000  C
  C14      1.0000 0.03170  0.94800  0.08549  Biso   1.000  C
  C15      1.0000 0.05200  0.08370  0.08549  Biso   1.000  C
  C16      1.0000 0.24963  0.30163  0.41882  Biso   1.000  C
  C17      1.0000 0.36503  0.28133  0.41882  Biso   1.000  C
  C18      1.0000 0.38533  0.41703  0.41882  Biso   1.000  C
  C19      1.0000 0.30163  0.38533  0.24784  Biso   1.000  C
  C20      1.0000 0.28133  0.24963  0.24784  Biso   1.000  C
  C21      1.0000 0.08370  0.03170  0.91451  Biso   1.000  C
  C22      1.0000 0.96830  0.05200  0.91451  Biso   1.000  C
  C23      1.0000 0.94800  0.91630  0.91451  Biso   1.000  C
  C24      1.0000 0.41703  0.36503  0.24784  Biso   1.000  C
  C25      1.0000 0.82660  0.93500  0.08623  Biso   1.000  C
  C26      1.0000 0.06500  0.89160  0.08623  Biso   1.000  C
  C27      1.0000 0.10840  0.17340  0.08623  Biso   1.000  C
  C28      1.0000 0.15993  0.26833  0.41956  Biso   1.000  C
  C29      1.0000 0.39833  0.22493  0.41956  Biso   1.000  C
  C30      1.0000 0.44173  0.50673  0.41956  Biso   1.000  C
  C31      1.0000 0.26833  0.44173  0.24710  Biso   1.000  C
  C32      1.0000 0.22493  0.15993  0.24710  Biso   1.000  C
  C33      1.0000 0.17340  0.06500  0.91377  Biso   1.000  C
  C34      1.0000 0.93500  0.10840  0.91377  Biso   1.000  C
  C35      1.0000 0.89160  0.82660  0.91377  Biso   1.000  C
  C36      1.0000 0.50673  0.39833  0.24710  Biso   1.000  C
  C37      1.0000 0.36530  0.75020  0.08089  Biso   1.000  C
  C38      1.0000 0.24980  0.61510  0.08089  Biso   1.000  C
  C39      1.0000 0.38490  0.63470  0.08089  Biso   1.000  C
  C40      1.0000 0.69863  0.08353  0.41422  Biso   1.000  C
  C41      1.0000 0.58313  0.94843  0.41422  Biso   1.000  C
  C42      1.0000 0.71823  0.96803  0.41422  Biso   1.000  C
  C43      1.0000 0.08353  0.71823  0.25244  Biso   1.000  C
  C44      1.0000 0.94843  0.69863  0.25244  Biso   1.000  C
  C45      1.0000 0.63470  0.24980  0.91911  Biso   1.000  C
  C46      1.0000 0.75020  0.38490  0.91911  Biso   1.000  C
  C47      1.0000 0.61510  0.36530  0.91911  Biso   1.000  C
  C48      1.0000 0.96803  0.58313  0.25244  Biso   1.000  C
  H37      1.0000 0.38670  0.80640  0.08040  Biso   1.000  H
  H38      1.0000 0.19360  0.58030  0.08040  Biso   1.000  H
  H39      1.0000 0.41970  0.61330  0.08040  Biso   1.000  H
  H40      1.0000 0.72003  0.13973  0.41373  Biso   1.000  H
  H41      1.0000 0.52693  0.91363  0.41373  Biso   1.000  H
  H42      1.0000 0.75303  0.94663  0.41373  Biso   1.000  H
  H43      1.0000 0.13973  0.75303  0.25293  Biso   1.000  H
  H44      1.0000 0.91363  0.72003  0.25293  Biso   1.000  H
  H45      1.0000 0.61330  0.19360  0.91960  Biso   1.000  H
  H46      1.0000 0.80640  0.41970  0.91960  Biso   1.000  H
  H47      1.0000 0.58030  0.38670  0.91960  Biso   1.000  H
  H48      1.0000 0.94663  0.52693  0.25293  Biso   1.000  H
  C49      1.0000 0.41700  0.71870  0.08127  Biso   1.000  C
  C50      1.0000 0.28130  0.69830  0.08127  Biso   1.000  C
  C51      1.0000 0.30170  0.58300  0.08127  Biso   1.000  C
  C52      1.0000 0.75033  0.05203  0.41460  Biso   1.000  C
  C53      1.0000 0.61463  0.03163  0.41460  Biso   1.000  C
  C54      1.0000 0.63503  0.91633  0.41460  Biso   1.000  C
  C55      1.0000 0.05203  0.63503  0.25206  Biso   1.000  C
  C56      1.0000 0.03163  0.75033  0.25206  Biso   1.000  C
  C57      1.0000 0.58300  0.28130  0.91873  Biso   1.000  C
  C58      1.0000 0.71870  0.30170  0.91873  Biso   1.000  C
  C59      1.0000 0.69830  0.41700  0.91873  Biso   1.000  C
  C60      1.0000 0.91633  0.61463  0.25206  Biso   1.000  C
  C61      1.0000 0.50690  0.77510  0.08017  Biso   1.000  C
  C62      1.0000 0.22490  0.73180  0.08017  Biso   1.000  C
  C63      1.0000 0.26820  0.49310  0.08017  Biso   1.000  C
  C64      1.0000 0.84023  0.10843  0.41350  Biso   1.000  C
  C65      1.0000 0.55823  0.06513  0.41350  Biso   1.000  C
  C66      1.0000 0.60153  0.82643  0.41350  Biso   1.000  C
  C67      1.0000 0.10843  0.60153  0.25316  Biso   1.000  C
  C68      1.0000 0.06513  0.84023  0.25316  Biso   1.000  C
  C69      1.0000 0.49310  0.22490  0.91983  Biso   1.000  C
  C70      1.0000 0.77510  0.26820  0.91983  Biso   1.000  C
  C71      1.0000 0.73180  0.50690  0.91983  Biso   1.000  C
  C72      1.0000 0.82643  0.55823  0.25316  Biso   1.000  C
  C73      1.0000 0.64130  0.83900  0.01782  Biso   1.000  C
  C74      1.0000 0.16100  0.80230  0.01782  Biso   1.000  C
  C75      1.0000 0.19770  0.35870  0.01782  Biso   1.000  C
  C76      1.0000 0.97463  0.17233  0.35115  Biso   1.000  C
  C77      1.0000 0.49433  0.13563  0.35115  Biso   1.000  C
  C78      1.0000 0.53103  0.69203  0.35115  Biso   1.000  C
  C79      1.0000 0.17233  0.53103  0.31551  Biso   1.000  C
  C80      1.0000 0.13563  0.97463  0.31551  Biso   1.000  C
  C81      1.0000 0.35870  0.16100  0.98218  Biso   1.000  C
  C82      1.0000 0.83900  0.19770  0.98218  Biso   1.000  C
  C83      1.0000 0.80230  0.64130  0.98218  Biso   1.000  C
  C84      1.0000 0.69203  0.49433  0.31551  Biso   1.000  C
  H49      1.0000 0.60230  0.84840  0.02720  Biso   1.000  H
  H50      1.0000 0.15160  0.75390  0.02720  Biso   1.000  H
  H51      1.0000 0.24610  0.39770  0.02720  Biso   1.000  H
  H52      1.0000 0.93563  0.18173  0.36053  Biso   1.000  H
  H53      1.0000 0.48493  0.08723  0.36053  Biso   1.000  H
  H54      1.0000 0.57943  0.73103  0.36053  Biso   1.000  H
  H55      1.0000 0.18173  0.57943  0.30613  Biso   1.000  H
  H56      1.0000 0.08723  0.93563  0.30613  Biso   1.000  H
  H57      1.0000 0.39770  0.15160  0.97280  Biso   1.000  H
  H58      1.0000 0.84840  0.24610  0.97280  Biso   1.000  H
  H59      1.0000 0.75390  0.60230  0.97280  Biso   1.000  H
  H60      1.0000 0.73103  0.48493  0.30613  Biso   1.000  H
  C85      1.0000 0.65060  0.84700  0.98580  Biso   1.000  C
  C86      1.0000 0.15300  0.80360  0.98580  Biso   1.000  C
  C87      1.0000 0.19640  0.34940  0.98580  Biso   1.000  C
  C88      1.0000 0.98393  0.18033  0.31913  Biso   1.000  C
  C89      1.0000 0.48633  0.13693  0.31913  Biso   1.000  C
  C90      1.0000 0.52973  0.68273  0.31913  Biso   1.000  C
  C91      1.0000 0.18033  0.52973  0.34753  Biso   1.000  C
  C92      1.0000 0.13693  0.98393  0.34753  Biso   1.000  C
  C93      1.0000 0.34940  0.15300  0.01420  Biso   1.000  C
  C94      1.0000 0.84700  0.19640  0.01420  Biso   1.000  C
  C95      1.0000 0.80360  0.65060  0.01420  Biso   1.000  C
  C96      1.0000 0.68273  0.48633  0.34753  Biso   1.000  C
  H61      1.0000 0.61890  0.86170  0.97370  Biso   1.000  H
  H62      1.0000 0.13830  0.75720  0.97370  Biso   1.000  H
  H63      1.0000 0.24280  0.38110  0.97370  Biso   1.000  H
  H64      1.0000 0.95223  0.19503  0.30703  Biso   1.000  H
  H65      1.0000 0.47163  0.09053  0.30703  Biso   1.000  H
  H66      1.0000 0.57613  0.71443  0.30703  Biso   1.000  H
  H67      1.0000 0.19503  0.57613  0.35963  Biso   1.000  H
  H68      1.0000 0.09053  0.95223  0.35963  Biso   1.000  H
  H69      1.0000 0.38110  0.13830  0.02630  Biso   1.000  H
  H70      1.0000 0.86170  0.24280  0.02630  Biso   1.000  H
  H71      1.0000 0.75720  0.61890  0.02630  Biso   1.000  H
  H72      1.0000 0.71443  0.47163  0.35963  Biso   1.000  H
  C97      1.0000 0.70670  0.83310  0.97200  Biso   1.000  C
  C98      1.0000 0.16690  0.87360  0.97200  Biso   1.000  C
  C99      1.0000 0.12640  0.29330  0.97200  Biso   1.000  C
  C100     1.0000 0.04003  0.16643  0.30533  Biso   1.000  C
  C101     1.0000 0.50023  0.20693  0.30533  Biso   1.000  C
  C102     1.0000 0.45973  0.62663  0.30533  Biso   1.000  C
  C103     1.0000 0.16643  0.45973  0.36133  Biso   1.000  C
  C104     1.0000 0.20693  0.04003  0.36133  Biso   1.000  C
  C105     1.0000 0.29330  0.16690  0.02800  Biso   1.000  C
  C106     1.0000 0.83310  0.12640  0.02800  Biso   1.000  C
  C107     1.0000 0.87360  0.70670  0.02800  Biso   1.000  C
  C108     1.0000 0.62663  0.50023  0.36133  Biso   1.000  C
  H73      1.0000 0.71130  0.83460  0.95000  Biso   1.000  H
  H74      1.0000 0.16540  0.87670  0.95000  Biso   1.000  H
  H75      1.0000 0.12330  0.28870  0.95000  Biso   1.000  H
  H76      1.0000 0.04463  0.16793  0.28333  Biso   1.000  H
  H77      1.0000 0.49873  0.21003  0.28333  Biso   1.000  H
  H78      1.0000 0.45663  0.62203  0.28333  Biso   1.000  H
  H79      1.0000 0.16793  0.45663  0.38333  Biso   1.000  H
  H80      1.0000 0.21003  0.04463  0.38333  Biso   1.000  H
  H81      1.0000 0.28870  0.16540  0.05000  Biso   1.000  H
  H82      1.0000 0.83460  0.12330  0.05000  Biso   1.000  H
  H83      1.0000 0.87670  0.71130  0.05000  Biso   1.000  H
  H84      1.0000 0.62203  0.49873  0.38333  Biso   1.000  H
  C109     1.0000 0.75530  0.81730  0.98940  Biso   1.000  C
  C110     1.0000 0.18270  0.93800  0.98940  Biso   1.000  C
  C111     1.0000 0.06200  0.24470  0.98940  Biso   1.000  C
  C112     1.0000 0.08863  0.15063  0.32273  Biso   1.000  C
  C113     1.0000 0.51603  0.27133  0.32273  Biso   1.000  C
  C114     1.0000 0.39533  0.57803  0.32273  Biso   1.000  C
  C115     1.0000 0.15063  0.39533  0.34393  Biso   1.000  C
  C116     1.0000 0.27133  0.08863  0.34393  Biso   1.000  C
  C117     1.0000 0.24470  0.18270  0.01060  Biso   1.000  C
  C118     1.0000 0.81730  0.06200  0.01060  Biso   1.000  C
  C119     1.0000 0.93800  0.75530  0.01060  Biso   1.000  C
  C120     1.0000 0.57803  0.51603  0.34393  Biso   1.000  C
  H85      1.0000 0.79670  0.81150  0.98020  Biso   1.000  H
  H86      1.0000 0.18850  0.98520  0.98020  Biso   1.000  H
  H87      1.0000 0.01480  0.20330  0.98020  Biso   1.000  H
  H88      1.0000 0.13003  0.14483  0.31353  Biso   1.000  H
  H89      1.0000 0.52183  0.31853  0.31353  Biso   1.000  H
  H90      1.0000 0.34813  0.53663  0.31353  Biso   1.000  H
  H91      1.0000 0.14483  0.34813  0.35313  Biso   1.000  H
  H92      1.0000 0.31853  0.13003  0.35313  Biso   1.000  H
  H93      1.0000 0.20330  0.18850  0.01980  Biso   1.000  H
  H94      1.0000 0.81150  0.01480  0.01980  Biso   1.000  H
  H95      1.0000 0.98520  0.79670  0.01980  Biso   1.000  H
  H96      1.0000 0.53663  0.52183  0.35313  Biso   1.000  H
  C121     1.0000 0.74220  0.81000  0.02130  Biso   1.000  C
  C122     1.0000 0.19000  0.93220  0.02130  Biso   1.000  C
  C123     1.0000 0.06780  0.25780  0.02130  Biso   1.000  C
  C124     1.0000 0.07553  0.14333  0.35463  Biso   1.000  C
  C125     1.0000 0.52333  0.26553  0.35463  Biso   1.000  C
  C126     1.0000 0.40113  0.59113  0.35463  Biso   1.000  C
  C127     1.0000 0.14333  0.40113  0.31203  Biso   1.000  C
  C128     1.0000 0.26553  0.07553  0.31203  Biso   1.000  C
  C129     1.0000 0.25780  0.19000  0.97870  Biso   1.000  C
  C130     1.0000 0.81000  0.06780  0.97870  Biso   1.000  C
  C131     1.0000 0.93220  0.74220  0.97870  Biso   1.000  C
  C132     1.0000 0.59113  0.52333  0.31203  Biso   1.000  C
  H97      1.0000 0.77580  0.79810  0.03360  Biso   1.000  H
  H98      1.0000 0.20190  0.97770  0.03360  Biso   1.000  H
  H99      1.0000 0.02230  0.22420  0.03360  Biso   1.000  H
  H100     1.0000 0.10913  0.13143  0.36693  Biso   1.000  H
  H101     1.0000 0.53523  0.31103  0.36693  Biso   1.000  H
  H102     1.0000 0.35563  0.55753  0.36693  Biso   1.000  H
  H103     1.0000 0.13143  0.35563  0.29973  Biso   1.000  H
  H104     1.0000 0.31103  0.10913  0.29973  Biso   1.000  H
  H105     1.0000 0.22420  0.20190  0.96640  Biso   1.000  H
  H106     1.0000 0.79810  0.02230  0.96640  Biso   1.000  H
  H107     1.0000 0.97770  0.77580  0.96640  Biso   1.000  H
  H108     1.0000 0.55753  0.53523  0.29973  Biso   1.000  H
  C133     1.0000 0.72720  0.67470  0.09648  Biso   1.000  C
  C134     1.0000 0.32530  0.05250  0.09648  Biso   1.000  C
  C135     1.0000 0.94750  0.27280  0.09648  Biso   1.000  C
  C136     1.0000 0.06053  0.00803  0.42981  Biso   1.000  C
  C137     1.0000 0.65863  0.38583  0.42981  Biso   1.000  C
  C138     1.0000 0.28083  0.60613  0.42981  Biso   1.000  C
  C139     1.0000 0.00803  0.28083  0.23685  Biso   1.000  C
  C140     1.0000 0.38583  0.06053  0.23685  Biso   1.000  C
  C141     1.0000 0.27280  0.32530  0.90352  Biso   1.000  C
  C142     1.0000 0.67470  0.94750  0.90352  Biso   1.000  C
  C143     1.0000 0.05250  0.72720  0.90352  Biso   1.000  C
  C144     1.0000 0.60613  0.65863  0.23685  Biso   1.000  C
  H109     1.0000 0.77010  0.72050  0.10590  Biso   1.000  H
  H110     1.0000 0.27950  0.04960  0.10590  Biso   1.000  H
  H111     1.0000 0.95040  0.22990  0.10590  Biso   1.000  H
  H112     1.0000 0.10343  0.05383  0.43923  Biso   1.000  H
  H113     1.0000 0.61283  0.38293  0.43923  Biso   1.000  H
  H114     1.0000 0.28373  0.56323  0.43923  Biso   1.000  H
  H115     1.0000 0.05383  0.28373  0.22743  Biso   1.000  H
  H116     1.0000 0.38293  0.10343  0.22743  Biso   1.000  H
  H117     1.0000 0.22990  0.27950  0.89410  Biso   1.000  H
  H118     1.0000 0.72050  0.95040  0.89410  Biso   1.000  H
  H119     1.0000 0.04960  0.77010  0.89410  Biso   1.000  H
  H120     1.0000 0.56323  0.61283  0.22743  Biso   1.000  H
  C145     1.0000 0.72830  0.60240  0.09650  Biso   1.000  C
  C146     1.0000 0.39760  0.12590  0.09650  Biso   1.000  C
  C147     1.0000 0.87410  0.27170  0.09650  Biso   1.000  C
  C148     1.0000 0.06163  0.93573  0.42983  Biso   1.000  C
  C149     1.0000 0.73093  0.45923  0.42983  Biso   1.000  C
  C150     1.0000 0.20743  0.60503  0.42983  Biso   1.000  C
  C151     1.0000 0.93573  0.20743  0.23683  Biso   1.000  C
  C152     1.0000 0.45923  0.06163  0.23683  Biso   1.000  C
  C153     1.0000 0.27170  0.39760  0.90350  Biso   1.000  C
  C154     1.0000 0.60240  0.87410  0.90350  Biso   1.000  C
  C155     1.0000 0.12590  0.72830  0.90350  Biso   1.000  C
  C156     1.0000 0.60503  0.73093  0.23683  Biso   1.000  C
  H121     1.0000 0.77200  0.60020  0.10550  Biso   1.000  H
  H122     1.0000 0.39980  0.17180  0.10550  Biso   1.000  H
  H123     1.0000 0.82820  0.22800  0.10550  Biso   1.000  H
  H124     1.0000 0.10533  0.93353  0.43883  Biso   1.000  H
  H125     1.0000 0.73313  0.50513  0.43883  Biso   1.000  H
  H126     1.0000 0.16153  0.56133  0.43883  Biso   1.000  H
  H127     1.0000 0.93353  0.16153  0.22783  Biso   1.000  H
  H128     1.0000 0.50513  0.10533  0.22783  Biso   1.000  H
  H129     1.0000 0.22800  0.39980  0.89450  Biso   1.000  H
  H130     1.0000 0.60020  0.82820  0.89450  Biso   1.000  H
  H131     1.0000 0.17180  0.77200  0.89450  Biso   1.000  H
  H132     1.0000 0.56133  0.73313  0.22783  Biso   1.000  H
  C157     1.0000 0.66620  0.53500  0.08340  Biso   1.000  C
  C158     1.0000 0.46500  0.13120  0.08340  Biso   1.000  C
  C159     1.0000 0.86880  0.33380  0.08340  Biso   1.000  C
  C160     1.0000 0.99953  0.86833  0.41673  Biso   1.000  C
  C161     1.0000 0.79833  0.46453  0.41673  Biso   1.000  C
  C162     1.0000 0.20213  0.66713  0.41673  Biso   1.000  C
  C163     1.0000 0.86833  0.20213  0.24993  Biso   1.000  C
  C164     1.0000 0.46453  0.99953  0.24993  Biso   1.000  C
  C165     1.0000 0.33380  0.46500  0.91660  Biso   1.000  C
  C166     1.0000 0.53500  0.86880  0.91660  Biso   1.000  C
  C167     1.0000 0.13120  0.66620  0.91660  Biso   1.000  C
  C168     1.0000 0.66713  0.79833  0.24993  Biso   1.000  C
  H133     1.0000 0.66610  0.48580  0.08360  Biso   1.000  H
  H134     1.0000 0.51420  0.18030  0.08360  Biso   1.000  H
  H135     1.0000 0.81970  0.33390  0.08360  Biso   1.000  H
  H136     1.0000 0.99943  0.81913  0.41693  Biso   1.000  H
  H137     1.0000 0.84753  0.51363  0.41693  Biso   1.000  H
  H138     1.0000 0.15303  0.66723  0.41693  Biso   1.000  H
  H139     1.0000 0.81913  0.15303  0.24973  Biso   1.000  H
  H140     1.0000 0.51363  0.99943  0.24973  Biso   1.000  H
  H141     1.0000 0.33390  0.51420  0.91640  Biso   1.000  H
  H142     1.0000 0.48580  0.81970  0.91640  Biso   1.000  H
  H143     1.0000 0.18030  0.66610  0.91640  Biso   1.000  H
  H144     1.0000 0.66723  0.84753  0.24973  Biso   1.000  H
  C169     1.0000 0.60390  0.54010  0.06990  Biso   1.000  C
  C170     1.0000 0.45990  0.06380  0.06990  Biso   1.000  C
  C171     1.0000 0.93620  0.39610  0.06990  Biso   1.000  C
  C172     1.0000 0.93723  0.87343  0.40323  Biso   1.000  C
  C173     1.0000 0.79323  0.39713  0.40323  Biso   1.000  C
  C174     1.0000 0.26953  0.72943  0.40323  Biso   1.000  C
  C175     1.0000 0.87343  0.26953  0.26343  Biso   1.000  C
  C176     1.0000 0.39713  0.93723  0.26343  Biso   1.000  C
  C177     1.0000 0.39610  0.45990  0.93010  Biso   1.000  C
  C178     1.0000 0.54010  0.93620  0.93010  Biso   1.000  C
  C179     1.0000 0.06380  0.60390  0.93010  Biso   1.000  C
  C180     1.0000 0.72943  0.79323  0.26343  Biso   1.000  C
  H145     1.0000 0.56010  0.49440  0.06090  Biso   1.000  H
  H146     1.0000 0.50560  0.06570  0.06090  Biso   1.000  H
  H147     1.0000 0.93430  0.43990  0.06090  Biso   1.000  H
  H148     1.0000 0.89343  0.82773  0.39423  Biso   1.000  H
  H149     1.0000 0.83893  0.39903  0.39423  Biso   1.000  H
  H150     1.0000 0.26763  0.77323  0.39423  Biso   1.000  H
  H151     1.0000 0.82773  0.26763  0.27243  Biso   1.000  H
  H152     1.0000 0.39903  0.89343  0.27243  Biso   1.000  H
  H153     1.0000 0.43990  0.50560  0.93910  Biso   1.000  H
  H154     1.0000 0.49440  0.93430  0.93910  Biso   1.000  H
  H155     1.0000 0.06570  0.56010  0.93910  Biso   1.000  H
  H156     1.0000 0.77323  0.83893  0.27243  Biso   1.000  H
  C181     1.0000 0.60620  0.61450  0.06980  Biso   1.000  C
  C182     1.0000 0.38550  0.99170  0.06980  Biso   1.000  C
  C183     1.0000 0.00830  0.39380  0.06980  Biso   1.000  C
  C184     1.0000 0.93953  0.94783  0.40313  Biso   1.000  C
  C185     1.0000 0.71883  0.32503  0.40313  Biso   1.000  C
  C186     1.0000 0.34163  0.72713  0.40313  Biso   1.000  C
  C187     1.0000 0.94783  0.34163  0.26353  Biso   1.000  C
  C188     1.0000 0.32503  0.93953  0.26353  Biso   1.000  C
  C189     1.0000 0.39380  0.38550  0.93020  Biso   1.000  C
  C190     1.0000 0.61450  0.00830  0.93020  Biso   1.000  C
  C191     1.0000 0.99170  0.60620  0.93020  Biso   1.000  C
  C192     1.0000 0.72713  0.71883  0.26353  Biso   1.000  C
  H157     1.0000 0.56440  0.61830  0.05980  Biso   1.000  H
  H158     1.0000 0.38170  0.94610  0.05980  Biso   1.000  H
  H159     1.0000 0.05390  0.43560  0.05980  Biso   1.000  H
  H160     1.0000 0.89773  0.95163  0.39313  Biso   1.000  H
  H161     1.0000 0.71503  0.27943  0.39313  Biso   1.000  H
  H162     1.0000 0.38723  0.76893  0.39313  Biso   1.000  H
  H163     1.0000 0.95163  0.38723  0.27353  Biso   1.000  H
  H164     1.0000 0.27943  0.89773  0.27353  Biso   1.000  H
  H165     1.0000 0.43560  0.38170  0.94020  Biso   1.000  H
  H166     1.0000 0.61830  0.05390  0.94020  Biso   1.000  H
  H167     1.0000 0.94610  0.56440  0.94020  Biso   1.000  H
  H168     1.0000 0.76893  0.71503  0.27353  Biso   1.000  H
  C193     1.0000 0.59120  0.73410  0.14420  Biso   1.000  C
  C194     1.0000 0.26590  0.85710  0.14420  Biso   1.000  C
  C195     1.0000 0.14290  0.40880  0.14420  Biso   1.000  C
  C196     1.0000 0.92453  0.06743  0.47753  Biso   1.000  C
  C197     1.0000 0.59923  0.19043  0.47753  Biso   1.000  C
  C198     1.0000 0.47623  0.74213  0.47753  Biso   1.000  C
  C199     1.0000 0.06743  0.47623  0.18913  Biso   1.000  C
  C200     1.0000 0.19043  0.92453  0.18913  Biso   1.000  C
  C201     1.0000 0.40880  0.26590  0.85580  Biso   1.000  C
  C202     1.0000 0.73410  0.14290  0.85580  Biso   1.000  C
  C203     1.0000 0.85710  0.59120  0.85580  Biso   1.000  C
  C204     1.0000 0.74213  0.59923  0.18913  Biso   1.000  C
  H169     1.0000 0.55780  0.68930  0.13160  Biso   1.000  H
  H170     1.0000 0.31070  0.86850  0.13160  Biso   1.000  H
  H171     1.0000 0.13150  0.44220  0.13160  Biso   1.000  H
  H172     1.0000 0.89113  0.02263  0.46493  Biso   1.000  H
  H173     1.0000 0.64403  0.20183  0.46493  Biso   1.000  H
  H174     1.0000 0.46483  0.77553  0.46493  Biso   1.000  H
  H175     1.0000 0.02263  0.46483  0.20173  Biso   1.000  H
  H176     1.0000 0.20183  0.89113  0.20173  Biso   1.000  H
  H177     1.0000 0.44220  0.31070  0.86840  Biso   1.000  H
  H178     1.0000 0.68930  0.13150  0.86840  Biso   1.000  H
  H179     1.0000 0.86850  0.55780  0.86840  Biso   1.000  H
  H180     1.0000 0.77553  0.64403  0.20173  Biso   1.000  H
  C205     1.0000 0.57790  0.72780  0.17620  Biso   1.000  C
  C206     1.0000 0.27220  0.85010  0.17620  Biso   1.000  C
  C207     1.0000 0.14990  0.42210  0.17620  Biso   1.000  C
  C208     1.0000 0.91123  0.06113  0.50953  Biso   1.000  C
  C209     1.0000 0.60553  0.18343  0.50953  Biso   1.000  C
  C210     1.0000 0.48323  0.75543  0.50953  Biso   1.000  C
  C211     1.0000 0.06113  0.48323  0.15713  Biso   1.000  C
  C212     1.0000 0.18343  0.91123  0.15713  Biso   1.000  C
  C213     1.0000 0.42210  0.27220  0.82380  Biso   1.000  C
  C214     1.0000 0.72780  0.14990  0.82380  Biso   1.000  C
  C215     1.0000 0.85010  0.57790  0.82380  Biso   1.000  C
  C216     1.0000 0.75543  0.60553  0.15713  Biso   1.000  C
  H181     1.0000 0.53660  0.67970  0.18500  Biso   1.000  H
  H182     1.0000 0.32030  0.85690  0.18500  Biso   1.000  H
  H183     1.0000 0.14310  0.46340  0.18500  Biso   1.000  H
  H184     1.0000 0.86993  0.01303  0.51833  Biso   1.000  H
  H185     1.0000 0.65363  0.19023  0.51833  Biso   1.000  H
  H186     1.0000 0.47643  0.79673  0.51833  Biso   1.000  H
  H187     1.0000 0.01303  0.47643  0.14833  Biso   1.000  H
  H188     1.0000 0.19023  0.86993  0.14833  Biso   1.000  H
  H189     1.0000 0.46340  0.32030  0.81500  Biso   1.000  H
  H190     1.0000 0.67970  0.14310  0.81500  Biso   1.000  H
  H191     1.0000 0.85690  0.53660  0.81500  Biso   1.000  H
  H192     1.0000 0.79673  0.65363  0.14833  Biso   1.000  H
  C217     1.0000 0.62690  0.79410  0.19551  Biso   1.000  C
  C218     1.0000 0.20590  0.83280  0.19551  Biso   1.000  C
  C219     1.0000 0.16720  0.37310  0.19551  Biso   1.000  C
  C220     1.0000 0.96023  0.12743  0.52884  Biso   1.000  C
  C221     1.0000 0.53923  0.16613  0.52884  Biso   1.000  C
  C222     1.0000 0.50053  0.70643  0.52884  Biso   1.000  C
  C223     1.0000 0.12743  0.50053  0.13782  Biso   1.000  C
  C224     1.0000 0.16613  0.96023  0.13782  Biso   1.000  C
  C225     1.0000 0.37310  0.20590  0.80449  Biso   1.000  C
  C226     1.0000 0.79410  0.16720  0.80449  Biso   1.000  C
  C227     1.0000 0.83280  0.62690  0.80449  Biso   1.000  C
  C228     1.0000 0.70643  0.53923  0.13782  Biso   1.000  C
  H193     1.0000 0.62170  0.79090  0.21750  Biso   1.000  H
  H194     1.0000 0.20910  0.83080  0.21750  Biso   1.000  H
  H195     1.0000 0.16920  0.37830  0.21750  Biso   1.000  H
  H196     1.0000 0.95503  0.12423  0.55083  Biso   1.000  H
  H197     1.0000 0.54243  0.16413  0.55083  Biso   1.000  H
  H198     1.0000 0.50253  0.71163  0.55083  Biso   1.000  H
  H199     1.0000 0.12423  0.50253  0.11583  Biso   1.000  H
  H200     1.0000 0.16413  0.95503  0.11583  Biso   1.000  H
  H201     1.0000 0.37830  0.20910  0.78250  Biso   1.000  H
  H202     1.0000 0.79090  0.16920  0.78250  Biso   1.000  H
  H203     1.0000 0.83080  0.62170  0.78250  Biso   1.000  H
  H204     1.0000 0.71163  0.54243  0.11583  Biso   1.000  H
  C229     1.0000 0.68290  0.86380  0.18090  Biso   1.000  C
  C230     1.0000 0.13620  0.81910  0.18090  Biso   1.000  C
  C231     1.0000 0.18090  0.31710  0.18090  Biso   1.000  C
  C232     1.0000 0.01623  0.19713  0.51423  Biso   1.000  C
  C233     1.0000 0.46953  0.15243  0.51423  Biso   1.000  C
  C234     1.0000 0.51423  0.65043  0.51423  Biso   1.000  C
  C235     1.0000 0.19713  0.51423  0.15243  Biso   1.000  C
  C236     1.0000 0.15243  0.01623  0.15243  Biso   1.000  C
  C237     1.0000 0.31710  0.13620  0.81910  Biso   1.000  C
  C238     1.0000 0.86380  0.18090  0.81910  Biso   1.000  C
  C239     1.0000 0.81910  0.68290  0.81910  Biso   1.000  C
  C240     1.0000 0.65043  0.46953  0.15243  Biso   1.000  C
  H205     1.0000 0.71410  0.91090  0.19260  Biso   1.000  H
  H206     1.0000 0.08910  0.80320  0.19260  Biso   1.000  H
  H207     1.0000 0.19680  0.28590  0.19260  Biso   1.000  H
  H208     1.0000 0.04743  0.24423  0.52593  Biso   1.000  H
  H209     1.0000 0.42243  0.13653  0.52593  Biso   1.000  H
  H210     1.0000 0.53013  0.61923  0.52593  Biso   1.000  H
  H211     1.0000 0.24423  0.53013  0.14073  Biso   1.000  H
  H212     1.0000 0.13653  0.04743  0.14073  Biso   1.000  H
  H213     1.0000 0.28590  0.08910  0.80740  Biso   1.000  H
  H214     1.0000 0.91090  0.19680  0.80740  Biso   1.000  H
  H215     1.0000 0.80320  0.71410  0.80740  Biso   1.000  H
  H216     1.0000 0.61923  0.42243  0.14073  Biso   1.000  H
  C241     1.0000 0.69310  0.86450  0.14900  Biso   1.000  C
  C242     1.0000 0.13550  0.82860  0.14900  Biso   1.000  C
  C243     1.0000 0.17140  0.30690  0.14900  Biso   1.000  C
  C244     1.0000 0.02643  0.19783  0.48233  Biso   1.000  C
  C245     1.0000 0.46883  0.16193  0.48233  Biso   1.000  C
  C246     1.0000 0.50473  0.64023  0.48233  Biso   1.000  C
  C247     1.0000 0.19783  0.50473  0.18433  Biso   1.000  C
  C248     1.0000 0.16193  0.02643  0.18433  Biso   1.000  C
  C249     1.0000 0.30690  0.13550  0.85100  Biso   1.000  C
  C250     1.0000 0.86450  0.17140  0.85100  Biso   1.000  C
  C251     1.0000 0.82860  0.69310  0.85100  Biso   1.000  C
  C252     1.0000 0.64023  0.46883  0.18433  Biso   1.000  C
  H217     1.0000 0.73340  0.91240  0.13980  Biso   1.000  H
  H218     1.0000 0.08760  0.82100  0.13980  Biso   1.000  H
  H219     1.0000 0.17900  0.26660  0.13980  Biso   1.000  H
  H220     1.0000 0.06673  0.24573  0.47313  Biso   1.000  H
  H221     1.0000 0.42093  0.15433  0.47313  Biso   1.000  H
  H222     1.0000 0.51233  0.59993  0.47313  Biso   1.000  H
  H223     1.0000 0.24573  0.51233  0.19353  Biso   1.000  H
  H224     1.0000 0.15433  0.06673  0.19353  Biso   1.000  H
  H225     1.0000 0.26660  0.08760  0.86020  Biso   1.000  H
  H226     1.0000 0.91240  0.17900  0.86020  Biso   1.000  H
  H227     1.0000 0.82100  0.73340  0.86020  Biso   1.000  H
  H228     1.0000 0.59993  0.42093  0.19353  Biso   1.000  H
  C253     1.0000 0.89420  0.66540  0.15160  Biso   1.000  C
  C254     1.0000 0.33460  0.22880  0.15160  Biso   1.000  C
  C255     1.0000 0.77120  0.10580  0.15160  Biso   1.000  C
  C256     1.0000 0.22753  0.99873  0.48493  Biso   1.000  C
  C257     1.0000 0.66793  0.56213  0.48493  Biso   1.000  C
  C258     1.0000 0.10453  0.43913  0.48493  Biso   1.000  C
  C259     1.0000 0.99873  0.10453  0.18173  Biso   1.000  C
  C260     1.0000 0.56213  0.22753  0.18173  Biso   1.000  C
  C261     1.0000 0.10580  0.33460  0.84840  Biso   1.000  C
  C262     1.0000 0.66540  0.77120  0.84840  Biso   1.000  C
  C263     1.0000 0.22880  0.89420  0.84840  Biso   1.000  C
  C264     1.0000 0.43913  0.66793  0.18173  Biso   1.000  C
  C265     1.0000 0.89340  0.73470  0.15170  Biso   1.000  C
  C266     1.0000 0.26530  0.15870  0.15170  Biso   1.000  C
  C267     1.0000 0.84130  0.10660  0.15170  Biso   1.000  C
  C268     1.0000 0.22673  0.06803  0.48503  Biso   1.000  C
  C269     1.0000 0.59863  0.49203  0.48503  Biso   1.000  C
  C270     1.0000 0.17463  0.43993  0.48503  Biso   1.000  C
  C271     1.0000 0.06803  0.17463  0.18163  Biso   1.000  C
  C272     1.0000 0.49203  0.22673  0.18163  Biso   1.000  C
  C273     1.0000 0.10660  0.26530  0.84830  Biso   1.000  C
  C274     1.0000 0.73470  0.84130  0.84830  Biso   1.000  C
  C275     1.0000 0.15870  0.89340  0.84830  Biso   1.000  C
  C276     1.0000 0.43993  0.59863  0.18163  Biso   1.000  C
  C277     1.0000 0.83410  0.58500  0.16610  Biso   1.000  C
  C278     1.0000 0.41500  0.24910  0.16610  Biso   1.000  C
  C279     1.0000 0.75090  0.16590  0.16610  Biso   1.000  C
  C280     1.0000 0.16743  0.91833  0.49943  Biso   1.000  C
  C281     1.0000 0.74833  0.58243  0.49943  Biso   1.000  C
  C282     1.0000 0.08423  0.49923  0.49943  Biso   1.000  C
  C283     1.0000 0.91833  0.08423  0.16723  Biso   1.000  C
  C284     1.0000 0.58243  0.16743  0.16723  Biso   1.000  C
  C285     1.0000 0.16590  0.41500  0.83390  Biso   1.000  C
  C286     1.0000 0.58500  0.75090  0.83390  Biso   1.000  C
  C287     1.0000 0.24910  0.83410  0.83390  Biso   1.000  C
  C288     1.0000 0.49923  0.74833  0.16723  Biso   1.000  C
  C289     1.0000 0.43960  0.43650  0.01570  Biso   1.000  C
  C290     1.0000 0.56350  0.00310  0.01570  Biso   1.000  C
  C291     1.0000 0.99690  0.56040  0.01570  Biso   1.000  C
  C292     1.0000 0.77293  0.76983  0.34903  Biso   1.000  C
  C293     1.0000 0.89683  0.33643  0.34903  Biso   1.000  C
  C294     1.0000 0.33023  0.89373  0.34903  Biso   1.000  C
  C295     1.0000 0.76983  0.33023  0.31763  Biso   1.000  C
  C296     1.0000 0.33643  0.77293  0.31763  Biso   1.000  C
  C297     1.0000 0.56040  0.56350  0.98430  Biso   1.000  C
  C298     1.0000 0.43650  0.99690  0.98430  Biso   1.000  C
  C299     1.0000 0.00310  0.43960  0.98430  Biso   1.000  C
  C300     1.0000 0.89373  0.89683  0.31763  Biso   1.000  C
  C301     1.0000 0.44000  0.50460  0.01340  Biso   1.000  C
  C302     1.0000 0.49540  0.93540  0.01340  Biso   1.000  C
  C303     1.0000 0.06460  0.56000  0.01340  Biso   1.000  C
  C304     1.0000 0.77333  0.83793  0.34673  Biso   1.000  C
  C305     1.0000 0.82873  0.26873  0.34673  Biso   1.000  C
  C306     1.0000 0.39793  0.89333  0.34673  Biso   1.000  C
  C307     1.0000 0.83793  0.39793  0.31993  Biso   1.000  C
  C308     1.0000 0.26873  0.77333  0.31993  Biso   1.000  C
  C309     1.0000 0.56000  0.49540  0.98660  Biso   1.000  C
  C310     1.0000 0.50460  0.06460  0.98660  Biso   1.000  C
  C311     1.0000 0.93540  0.44000  0.98660  Biso   1.000  C
  C312     1.0000 0.89333  0.82873  0.31993  Biso   1.000  C
  C313     1.0000 0.49830  0.41860  0.00250  Biso   1.000  C
  C314     1.0000 0.58140  0.07970  0.00250  Biso   1.000  C
  C315     1.0000 0.92030  0.50170  0.00250  Biso   1.000  C
  C316     1.0000 0.83163  0.75193  0.33583  Biso   1.000  C
  C317     1.0000 0.91473  0.41303  0.33583  Biso   1.000  C
  C318     1.0000 0.25363  0.83503  0.33583  Biso   1.000  C
  C319     1.0000 0.75193  0.25363  0.33083  Biso   1.000  C
  C320     1.0000 0.41303  0.83163  0.33083  Biso   1.000  C
  C321     1.0000 0.50170  0.58140  0.99750  Biso   1.000  C
  C322     1.0000 0.41860  0.92030  0.99750  Biso   1.000  C
  C323     1.0000 0.07970  0.49830  0.99750  Biso   1.000  C
  C324     1.0000 0.83503  0.91473  0.33083  Biso   1.000  C
  C325     1.0000 0.83257  0.74833  0.16723  Biso   1.000  C
  C326     1.0000 0.25167  0.08423  0.16723  Biso   1.000  C
  C327     1.0000 0.91577  0.16743  0.16723  Biso   1.000  C
  C328     1.0000 0.16590  0.08167  0.50057  Biso   1.000  C
  C329     1.0000 0.58500  0.41757  0.50057  Biso   1.000  C
  C330     1.0000 0.24910  0.50077  0.50057  Biso   1.000  C
  C331     1.0000 0.08167  0.24910  0.16610  Biso   1.000  C
  C332     1.0000 0.41757  0.16590  0.16610  Biso   1.000  C
  C333     1.0000 0.16743  0.25167  0.83277  Biso   1.000  C
  C334     1.0000 0.74833  0.91577  0.83277  Biso   1.000  C
  C335     1.0000 0.08423  0.83257  0.83277  Biso   1.000  C
  C336     1.0000 0.50077  0.58500  0.16610  Biso   1.000  C
  C337     1.0000 0.77327  0.59863  0.18163  Biso   1.000  C
  C338     1.0000 0.40137  0.17463  0.18163  Biso   1.000  C
  C339     1.0000 0.82537  0.22673  0.18163  Biso   1.000  C
  C340     1.0000 0.10660  0.93197  0.51497  Biso   1.000  C
  C341     1.0000 0.73470  0.50797  0.51497  Biso   1.000  C
  C342     1.0000 0.15870  0.56007  0.51497  Biso   1.000  C
  C343     1.0000 0.93197  0.15870  0.15170  Biso   1.000  C
  C344     1.0000 0.50797  0.10660  0.15170  Biso   1.000  C
  C345     1.0000 0.22673  0.40137  0.81837  Biso   1.000  C
  C346     1.0000 0.59863  0.82537  0.81837  Biso   1.000  C
  C347     1.0000 0.17463  0.77327  0.81837  Biso   1.000  C
  C348     1.0000 0.56007  0.73470  0.15170  Biso   1.000  C
  C349     1.0000 0.77247  0.66793  0.18173  Biso   1.000  C
  C350     1.0000 0.33207  0.10453  0.18173  Biso   1.000  C
  C351     1.0000 0.89547  0.22753  0.18173  Biso   1.000  C
  C352     1.0000 0.10580  0.00127  0.51507  Biso   1.000  C
  C353     1.0000 0.66540  0.43787  0.51507  Biso   1.000  C
  C354     1.0000 0.22880  0.56087  0.51507  Biso   1.000  C
  C355     1.0000 0.00127  0.22880  0.15160  Biso   1.000  C
  C356     1.0000 0.43787  0.10580  0.15160  Biso   1.000  C
  C357     1.0000 0.22753  0.33207  0.81827  Biso   1.000  C
  C358     1.0000 0.66793  0.89547  0.81827  Biso   1.000  C
  C359     1.0000 0.10453  0.77247  0.81827  Biso   1.000  C
  C360     1.0000 0.56087  0.66540  0.15160  Biso   1.000  C
