data_image0
_cell_length_a       15.631
_cell_length_b       16.2439
_cell_length_c       32.635
_cell_angle_alpha    90
_cell_angle_beta     90
_cell_angle_gamma    90

_symmetry_space_group_name_H-M    "P 1"
_symmetry_int_tables_number       1

loop_
  _symmetry_equiv_pos_as_xyz
  'x, y, z'

loop_
  _atom_site_label
  _atom_site_occupancy
  _atom_site_fract_x
  _atom_site_fract_y
  _atom_site_fract_z
  _atom_site_thermal_displace_type
  _atom_site_B_iso_or_equiv
  _atom_site_type_symbol
  Cu1      1.0000 0.64072  0.22178  0.55329  Biso   1.000  Cu
  Cu2      1.0000 0.85928  0.77822  0.05329  Biso   1.000  Cu
  Cu3      1.0000 0.35928  0.72178  0.94671  Biso   1.000  Cu
  Cu4      1.0000 0.14072  0.27822  0.44671  Biso   1.000  Cu
  Cu5      1.0000 0.01617  0.28936  0.39344  Biso   1.000  Cu
  Cu6      1.0000 0.48383  0.71064  0.89344  Biso   1.000  Cu
  Cu7      1.0000 0.98383  0.78936  0.10656  Biso   1.000  Cu
  Cu8      1.0000 0.51617  0.21064  0.60656  Biso   1.000  Cu
  C1       1.0000 0.88870  0.07830  0.46020  Biso   1.000  C
  C2       1.0000 0.61130  0.92170  0.96020  Biso   1.000  C
  C3       1.0000 0.11130  0.57830  0.03980  Biso   1.000  C
  C4       1.0000 0.38870  0.42170  0.53980  Biso   1.000  C
  C5       1.0000 0.82900  0.02820  0.43340  Biso   1.000  C
  C6       1.0000 0.67100  0.97180  0.93340  Biso   1.000  C
  C7       1.0000 0.17100  0.52820  0.06660  Biso   1.000  C
  C8       1.0000 0.32900  0.47180  0.56660  Biso   1.000  C
  C9       1.0000 0.74470  0.05410  0.43080  Biso   1.000  C
  C10      1.0000 0.75530  0.94590  0.93080  Biso   1.000  C
  C11      1.0000 0.25530  0.55410  0.06920  Biso   1.000  C
  C12      1.0000 0.24470  0.44590  0.56920  Biso   1.000  C
  C13      1.0000 0.71200  0.12140  0.45260  Biso   1.000  C
  C14      1.0000 0.78800  0.87860  0.95260  Biso   1.000  C
  C15      1.0000 0.28800  0.62140  0.04740  Biso   1.000  C
  C16      1.0000 0.21200  0.37860  0.54740  Biso   1.000  C
  C17      1.0000 0.76300  0.16620  0.48130  Biso   1.000  C
  C18      1.0000 0.73700  0.83380  0.98130  Biso   1.000  C
  C19      1.0000 0.23700  0.66620  0.01870  Biso   1.000  C
  C20      1.0000 0.26300  0.33380  0.51870  Biso   1.000  C
  C21      1.0000 0.86170  0.96200  0.41260  Biso   1.000  C
  C22      1.0000 0.63830  0.03800  0.91260  Biso   1.000  C
  C23      1.0000 0.13830  0.46200  0.08740  Biso   1.000  C
  C24      1.0000 0.36170  0.53800  0.58740  Biso   1.000  C
  H1       1.0000 0.92060  0.94810  0.41440  Biso   1.000  H
  H2       1.0000 0.57940  0.05190  0.91440  Biso   1.000  H
  H3       1.0000 0.07940  0.44810  0.08560  Biso   1.000  H
  H4       1.0000 0.42060  0.55190  0.58560  Biso   1.000  H
  C25      1.0000 0.80700  0.91680  0.38920  Biso   1.000  C
  C26      1.0000 0.69300  0.08320  0.88920  Biso   1.000  C
  C27      1.0000 0.19300  0.41680  0.11080  Biso   1.000  C
  C28      1.0000 0.30700  0.58320  0.61080  Biso   1.000  C
  H5       1.0000 0.82770  0.86800  0.37660  Biso   1.000  H
  H6       1.0000 0.67230  0.13200  0.87660  Biso   1.000  H
  H7       1.0000 0.17230  0.36800  0.12340  Biso   1.000  H
  H8       1.0000 0.32770  0.63200  0.62340  Biso   1.000  H
  C29      1.0000 0.72210  0.93880  0.38300  Biso   1.000  C
  C30      1.0000 0.77790  0.06120  0.88300  Biso   1.000  C
  C31      1.0000 0.27790  0.43880  0.11700  Biso   1.000  C
  C32      1.0000 0.22210  0.56120  0.61700  Biso   1.000  C
  H9       1.0000 0.68670  0.90680  0.36560  Biso   1.000  H
  H10      1.0000 0.81330  0.09320  0.86560  Biso   1.000  H
  H11      1.0000 0.31330  0.40680  0.13440  Biso   1.000  H
  H12      1.0000 0.18670  0.59320  0.63440  Biso   1.000  H
  C33      1.0000 0.68760  0.01140  0.40350  Biso   1.000  C
  C34      1.0000 0.81240  0.98860  0.90350  Biso   1.000  C
  C35      1.0000 0.31240  0.51140  0.09650  Biso   1.000  C
  C36      1.0000 0.18760  0.48860  0.59650  Biso   1.000  C
  C37      1.0000 0.60320  0.03790  0.39790  Biso   1.000  C
  C38      1.0000 0.89680  0.96210  0.89790  Biso   1.000  C
  C39      1.0000 0.39680  0.53790  0.10210  Biso   1.000  C
  C40      1.0000 0.10320  0.46210  0.60210  Biso   1.000  C
  H13      1.0000 0.56670  0.00830  0.37990  Biso   1.000  H
  H14      1.0000 0.93330  0.99170  0.87990  Biso   1.000  H
  H15      1.0000 0.43330  0.50830  0.12010  Biso   1.000  H
  H16      1.0000 0.06670  0.49170  0.62010  Biso   1.000  H
  C41      1.0000 0.57260  0.10470  0.41780  Biso   1.000  C
  C42      1.0000 0.92740  0.89530  0.91780  Biso   1.000  C
  C43      1.0000 0.42740  0.60470  0.08220  Biso   1.000  C
  C44      1.0000 0.07260  0.39530  0.58220  Biso   1.000  C
  H17      1.0000 0.51580  0.12350  0.41320  Biso   1.000  H
  H18      1.0000 0.98420  0.87650  0.91320  Biso   1.000  H
  H19      1.0000 0.48420  0.62350  0.08680  Biso   1.000  H
  H20      1.0000 0.01580  0.37650  0.58680  Biso   1.000  H
  C45      1.0000 0.62850  0.14710  0.44630  Biso   1.000  C
  C46      1.0000 0.87150  0.85290  0.94630  Biso   1.000  C
  C47      1.0000 0.37150  0.64710  0.05370  Biso   1.000  C
  C48      1.0000 0.12850  0.35290  0.55370  Biso   1.000  C
  H21      1.0000 0.60750  0.19340  0.46090  Biso   1.000  H
  H22      1.0000 0.89250  0.80660  0.96090  Biso   1.000  H
  H23      1.0000 0.39250  0.69340  0.03910  Biso   1.000  H
  H24      1.0000 0.10750  0.30660  0.53910  Biso   1.000  H
  C49      1.0000 0.91070  0.19690  0.50570  Biso   1.000  C
  C50      1.0000 0.58930  0.80310  0.00570  Biso   1.000  C
  C51      1.0000 0.08930  0.69690  0.99430  Biso   1.000  C
  C52      1.0000 0.41070  0.30310  0.49430  Biso   1.000  C
  H25      1.0000 0.87750  0.24680  0.51390  Biso   1.000  H
  H26      1.0000 0.62250  0.75320  0.01390  Biso   1.000  H
  H27      1.0000 0.12250  0.74680  0.98610  Biso   1.000  H
  H28      1.0000 0.37750  0.25320  0.48610  Biso   1.000  H
  C53      1.0000 0.94300  0.15730  0.54570  Biso   1.000  C
  C54      1.0000 0.55700  0.84270  0.04570  Biso   1.000  C
  C55      1.0000 0.05700  0.65730  0.95430  Biso   1.000  C
  C56      1.0000 0.44300  0.34270  0.45430  Biso   1.000  C
  H29      1.0000 0.89440  0.14750  0.56410  Biso   1.000  H
  H30      1.0000 0.60560  0.85250  0.06410  Biso   1.000  H
  H31      1.0000 0.10560  0.64750  0.93590  Biso   1.000  H
  H32      1.0000 0.39440  0.35250  0.43590  Biso   1.000  H
  H33      1.0000 0.98380  0.19440  0.55910  Biso   1.000  H
  H34      1.0000 0.51620  0.80560  0.05910  Biso   1.000  H
  H35      1.0000 0.01620  0.69440  0.94090  Biso   1.000  H
  H36      1.0000 0.48380  0.30560  0.44090  Biso   1.000  H
  H37      1.0000 0.97110  0.10490  0.53950  Biso   1.000  H
  H38      1.0000 0.52890  0.89510  0.03950  Biso   1.000  H
  H39      1.0000 0.02890  0.60490  0.96050  Biso   1.000  H
  H40      1.0000 0.47110  0.39510  0.46050  Biso   1.000  H
  C57      1.0000 0.98060  0.22740  0.47530  Biso   1.000  C
  C58      1.0000 0.51940  0.77260  0.97530  Biso   1.000  C
  C59      1.0000 0.01940  0.72740  0.02470  Biso   1.000  C
  C60      1.0000 0.48060  0.27260  0.52470  Biso   1.000  C
  N1       1.0000 0.85090  0.14420  0.48250  Biso   1.000  N
  N2       1.0000 0.64910  0.85580  0.98250  Biso   1.000  N
  N3       1.0000 0.14910  0.64420  0.01750  Biso   1.000  N
  N4       1.0000 0.35090  0.35580  0.51750  Biso   1.000  N
  O1       1.0000 0.96430  0.06690  0.46300  Biso   1.000  O
  O2       1.0000 0.53570  0.93310  0.96300  Biso   1.000  O
  O3       1.0000 0.03570  0.56690  0.03700  Biso   1.000  O
  O4       1.0000 0.46430  0.43310  0.53700  Biso   1.000  O
  O5       1.0000 0.73880  0.22000  0.50382  Biso   1.000  O
  O6       1.0000 0.76120  0.78000  0.00382  Biso   1.000  O
  O7       1.0000 0.26120  0.72000  0.99618  Biso   1.000  O
  O8       1.0000 0.23880  0.28000  0.49618  Biso   1.000  O
  O9       1.0000 0.05600  0.23390  0.48650  Biso   1.000  O
  O10      1.0000 0.44400  0.76610  0.98650  Biso   1.000  O
  O11      1.0000 0.94400  0.73390  0.01350  Biso   1.000  O
  O12      1.0000 0.55600  0.26610  0.51350  Biso   1.000  O
  O13      1.0000 0.94900  0.24780  0.44038  Biso   1.000  O
  O14      1.0000 0.55100  0.75220  0.94038  Biso   1.000  O
  O15      1.0000 0.05100  0.74780  0.05962  Biso   1.000  O
  O16      1.0000 0.44900  0.25220  0.55962  Biso   1.000  O
  C61      1.0000 0.38510  0.02050  0.52420  Biso   1.000  C
  C62      1.0000 0.11490  0.97950  0.02420  Biso   1.000  C
  C63      1.0000 0.61490  0.52050  0.97580  Biso   1.000  C
  C64      1.0000 0.88510  0.47950  0.47580  Biso   1.000  C
  C65      1.0000 0.29080  0.00510  0.52490  Biso   1.000  C
  C66      1.0000 0.20920  0.99490  0.02490  Biso   1.000  C
  C67      1.0000 0.70920  0.50510  0.97510  Biso   1.000  C
  C68      1.0000 0.79080  0.49490  0.47510  Biso   1.000  C
  C69      1.0000 0.26050  0.93420  0.54330  Biso   1.000  C
  C70      1.0000 0.23950  0.06580  0.04330  Biso   1.000  C
  C71      1.0000 0.73950  0.43420  0.95670  Biso   1.000  C
  C72      1.0000 0.76050  0.56580  0.45670  Biso   1.000  C
  C73      1.0000 0.31880  0.87870  0.56310  Biso   1.000  C
  C74      1.0000 0.18120  0.12130  0.06310  Biso   1.000  C
  C75      1.0000 0.68120  0.37870  0.93690  Biso   1.000  C
  C76      1.0000 0.81880  0.62130  0.43690  Biso   1.000  C
  C77      1.0000 0.40790  0.89550  0.56570  Biso   1.000  C
  C78      1.0000 0.09210  0.10450  0.06570  Biso   1.000  C
  C79      1.0000 0.59210  0.39550  0.93430  Biso   1.000  C
  C80      1.0000 0.90790  0.60450  0.43430  Biso   1.000  C
  C81      1.0000 0.23570  0.06070  0.50770  Biso   1.000  C
  C82      1.0000 0.26430  0.93930  0.00770  Biso   1.000  C
  C83      1.0000 0.76430  0.56070  0.99230  Biso   1.000  C
  C84      1.0000 0.73570  0.43930  0.49230  Biso   1.000  C
  H41      1.0000 0.25720  0.11050  0.49640  Biso   1.000  H
  H42      1.0000 0.24280  0.88950  0.99640  Biso   1.000  H
  H43      1.0000 0.74280  0.61050  0.00360  Biso   1.000  H
  H44      1.0000 0.75720  0.38950  0.50360  Biso   1.000  H
  C85      1.0000 0.15050  0.04500  0.50660  Biso   1.000  C
  C86      1.0000 0.34950  0.95500  0.00660  Biso   1.000  C
  C87      1.0000 0.84950  0.54500  0.99340  Biso   1.000  C
  C88      1.0000 0.65050  0.45500  0.49340  Biso   1.000  C
  H45      1.0000 0.11290  0.08360  0.49420  Biso   1.000  H
  H46      1.0000 0.38710  0.91640  0.99420  Biso   1.000  H
  H47      1.0000 0.88710  0.58360  0.00580  Biso   1.000  H
  H48      1.0000 0.61290  0.41640  0.50580  Biso   1.000  H
  C89      1.0000 0.11810  0.97420  0.52310  Biso   1.000  C
  C90      1.0000 0.38190  0.02580  0.02310  Biso   1.000  C
  C91      1.0000 0.88190  0.47420  0.97690  Biso   1.000  C
  C92      1.0000 0.61810  0.52580  0.47690  Biso   1.000  C
  H49      1.0000 0.05850  0.96350  0.52130  Biso   1.000  H
  H50      1.0000 0.44150  0.03650  0.02130  Biso   1.000  H
  H51      1.0000 0.94150  0.46350  0.97870  Biso   1.000  H
  H52      1.0000 0.55850  0.53650  0.47870  Biso   1.000  H
  C93      1.0000 0.17140  0.91750  0.54250  Biso   1.000  C
  C94      1.0000 0.32860  0.08250  0.04250  Biso   1.000  C
  C95      1.0000 0.82860  0.41750  0.95750  Biso   1.000  C
  C96      1.0000 0.67140  0.58250  0.45750  Biso   1.000  C
  C97      1.0000 0.14240  0.84060  0.56070  Biso   1.000  C
  C98      1.0000 0.35760  0.15940  0.06070  Biso   1.000  C
  C99      1.0000 0.85760  0.34060  0.93930  Biso   1.000  C
  C100     1.0000 0.64240  0.65940  0.43930  Biso   1.000  C
  H53      1.0000 0.08340  0.82660  0.56010  Biso   1.000  H
  H54      1.0000 0.41660  0.17340  0.06010  Biso   1.000  H
  H55      1.0000 0.91660  0.32660  0.93990  Biso   1.000  H
  H56      1.0000 0.58340  0.67340  0.43990  Biso   1.000  H
  C101     1.0000 0.19730  0.79090  0.57770  Biso   1.000  C
  C102     1.0000 0.30270  0.20910  0.07770  Biso   1.000  C
  C103     1.0000 0.80270  0.29090  0.92230  Biso   1.000  C
  C104     1.0000 0.69730  0.70910  0.42230  Biso   1.000  C
  H57      1.0000 0.17680  0.74180  0.59010  Biso   1.000  H
  H58      1.0000 0.32320  0.25820  0.09010  Biso   1.000  H
  H59      1.0000 0.82320  0.24180  0.90990  Biso   1.000  H
  H60      1.0000 0.67680  0.75820  0.40990  Biso   1.000  H
  C105     1.0000 0.28600  0.80730  0.57850  Biso   1.000  C
  C106     1.0000 0.21400  0.19270  0.07850  Biso   1.000  C
  C107     1.0000 0.71400  0.30730  0.92150  Biso   1.000  C
  C108     1.0000 0.78600  0.69270  0.42150  Biso   1.000  C
  H61      1.0000 0.32370  0.76780  0.59010  Biso   1.000  H
  H62      1.0000 0.17630  0.23220  0.09010  Biso   1.000  H
  H63      1.0000 0.67630  0.26780  0.90990  Biso   1.000  H
  H64      1.0000 0.82370  0.73220  0.40990  Biso   1.000  H
  C109     1.0000 0.52970  0.98380  0.54570  Biso   1.000  C
  C110     1.0000 0.97030  0.01620  0.04570  Biso   1.000  C
  C111     1.0000 0.47030  0.48380  0.95430  Biso   1.000  C
  C112     1.0000 0.02970  0.51620  0.45430  Biso   1.000  C
  H65      1.0000 0.55480  0.94860  0.56770  Biso   1.000  H
  H66      1.0000 0.94520  0.05140  0.06770  Biso   1.000  H
  H67      1.0000 0.44520  0.44860  0.93230  Biso   1.000  H
  H68      1.0000 0.05480  0.55140  0.43230  Biso   1.000  H
  C113     1.0000 0.57340  0.95910  0.50520  Biso   1.000  C
  C114     1.0000 0.92660  0.04090  0.00520  Biso   1.000  C
  C115     1.0000 0.42660  0.45910  0.99480  Biso   1.000  C
  C116     1.0000 0.07340  0.54090  0.49480  Biso   1.000  C
  H69      1.0000 0.57410  0.89900  0.50280  Biso   1.000  H
  H70      1.0000 0.92590  0.10100  0.00280  Biso   1.000  H
  H71      1.0000 0.42590  0.39900  0.99720  Biso   1.000  H
  H72      1.0000 0.07410  0.60100  0.49720  Biso   1.000  H
  H73      1.0000 0.63230  0.98000  0.50490  Biso   1.000  H
  H74      1.0000 0.86770  0.02000  0.00490  Biso   1.000  H
  H75      1.0000 0.36770  0.48000  0.99510  Biso   1.000  H
  H76      1.0000 0.13230  0.52000  0.49510  Biso   1.000  H
  H77      1.0000 0.54170  0.98270  0.48210  Biso   1.000  H
  H78      1.0000 0.95830  0.01730  0.98210  Biso   1.000  H
  H79      1.0000 0.45830  0.48270  0.01790  Biso   1.000  H
  H80      1.0000 0.04170  0.51730  0.51790  Biso   1.000  H
  C117     1.0000 0.54570  0.07300  0.55770  Biso   1.000  C
  C118     1.0000 0.95430  0.92700  0.05770  Biso   1.000  C
  C119     1.0000 0.45430  0.57300  0.94230  Biso   1.000  C
  C120     1.0000 0.04570  0.42700  0.44230  Biso   1.000  C
  N5       1.0000 0.43610  0.96700  0.54490  Biso   1.000  N
  N6       1.0000 0.06390  0.03300  0.04490  Biso   1.000  N
  N7       1.0000 0.56390  0.46700  0.95510  Biso   1.000  N
  N8       1.0000 0.93610  0.53300  0.45510  Biso   1.000  N
  O17      1.0000 0.41610  0.07990  0.50590  Biso   1.000  O
  O18      1.0000 0.08390  0.92010  0.00590  Biso   1.000  O
  O19      1.0000 0.58390  0.57990  0.99410  Biso   1.000  O
  O20      1.0000 0.91610  0.42010  0.49410  Biso   1.000  O
  O21      1.0000 0.45920  0.85320  0.58460  Biso   1.000  O
  O22      1.0000 0.04080  0.14680  0.08460  Biso   1.000  O
  O23      1.0000 0.54080  0.35320  0.91540  Biso   1.000  O
  O24      1.0000 0.95920  0.64680  0.41540  Biso   1.000  O
  O25      1.0000 0.60750  0.10950  0.54144  Biso   1.000  O
  O26      1.0000 0.89250  0.89050  0.04144  Biso   1.000  O
  O27      1.0000 0.39250  0.60950  0.95856  Biso   1.000  O
  O28      1.0000 0.10750  0.39050  0.45856  Biso   1.000  O
  O29      1.0000 0.49780  0.10000  0.58690  Biso   1.000  O
  O30      1.0000 0.00220  0.90000  0.08690  Biso   1.000  O
  O31      1.0000 0.50220  0.60000  0.91310  Biso   1.000  O
  O32      1.0000 0.99780  0.40000  0.41310  Biso   1.000  O
  C121     1.0000 0.67430  0.99310  0.66550  Biso   1.000  C
  C122     1.0000 0.82570  0.00690  0.16550  Biso   1.000  C
  C123     1.0000 0.32570  0.49310  0.83450  Biso   1.000  C
  C124     1.0000 0.17430  0.50690  0.33450  Biso   1.000  C
  C125     1.0000 0.63570  0.92490  0.68710  Biso   1.000  C
  C126     1.0000 0.86430  0.07510  0.18710  Biso   1.000  C
  C127     1.0000 0.36430  0.42490  0.81290  Biso   1.000  C
  C128     1.0000 0.13570  0.57510  0.31290  Biso   1.000  C
  C129     1.0000 0.63170  0.92720  0.73080  Biso   1.000  C
  C130     1.0000 0.86830  0.07280  0.23080  Biso   1.000  C
  C131     1.0000 0.36830  0.42720  0.76920  Biso   1.000  C
  C132     1.0000 0.13170  0.57280  0.26920  Biso   1.000  C
  C133     1.0000 0.65890  0.99530  0.75190  Biso   1.000  C
  C134     1.0000 0.84110  0.00470  0.25190  Biso   1.000  C
  C135     1.0000 0.34110  0.49530  0.74810  Biso   1.000  C
  C136     1.0000 0.15890  0.50470  0.24810  Biso   1.000  C
  C137     1.0000 0.69580  0.06400  0.73080  Biso   1.000  C
  C138     1.0000 0.80420  0.93600  0.23080  Biso   1.000  C
  C139     1.0000 0.30420  0.56400  0.76920  Biso   1.000  C
  C140     1.0000 0.19580  0.43600  0.26920  Biso   1.000  C
  C141     1.0000 0.60920  0.85630  0.66810  Biso   1.000  C
  C142     1.0000 0.89080  0.14370  0.16810  Biso   1.000  C
  C143     1.0000 0.39080  0.35630  0.83190  Biso   1.000  C
  C144     1.0000 0.10920  0.64370  0.33190  Biso   1.000  C
  H81      1.0000 0.61340  0.85490  0.63910  Biso   1.000  H
  H82      1.0000 0.88660  0.14510  0.13910  Biso   1.000  H
  H83      1.0000 0.38660  0.35490  0.86090  Biso   1.000  H
  H84      1.0000 0.11340  0.64510  0.36090  Biso   1.000  H
  C145     1.0000 0.57560  0.78590  0.68780  Biso   1.000  C
  C146     1.0000 0.92440  0.21410  0.18780  Biso   1.000  C
  C147     1.0000 0.42440  0.28590  0.81220  Biso   1.000  C
  C148     1.0000 0.07560  0.71410  0.31220  Biso   1.000  C
  H85      1.0000 0.56000  0.73800  0.67290  Biso   1.000  H
  H86      1.0000 0.94000  0.26200  0.17290  Biso   1.000  H
  H87      1.0000 0.44000  0.23800  0.82710  Biso   1.000  H
  H88      1.0000 0.06000  0.76200  0.32710  Biso   1.000  H
  C149     1.0000 0.56640  0.79010  0.72990  Biso   1.000  C
  C150     1.0000 0.93360  0.20990  0.22990  Biso   1.000  C
  C151     1.0000 0.43360  0.29010  0.77010  Biso   1.000  C
  C152     1.0000 0.06640  0.70990  0.27010  Biso   1.000  C
  H89      1.0000 0.54080  0.74550  0.74420  Biso   1.000  H
  H90      1.0000 0.95920  0.25450  0.24420  Biso   1.000  H
  H91      1.0000 0.45920  0.24550  0.75580  Biso   1.000  H
  H92      1.0000 0.04080  0.75450  0.25580  Biso   1.000  H
  C153     1.0000 0.59460  0.85990  0.75180  Biso   1.000  C
  C154     1.0000 0.90540  0.14010  0.25180  Biso   1.000  C
  C155     1.0000 0.40540  0.35990  0.74820  Biso   1.000  C
  C156     1.0000 0.09460  0.64010  0.24820  Biso   1.000  C
  C157     1.0000 0.59010  0.86580  0.79550  Biso   1.000  C
  C158     1.0000 0.90990  0.13420  0.29550  Biso   1.000  C
  C159     1.0000 0.40990  0.36580  0.70450  Biso   1.000  C
  C160     1.0000 0.09010  0.63420  0.20450  Biso   1.000  C
  H93      1.0000 0.56850  0.82030  0.81060  Biso   1.000  H
  H94      1.0000 0.93150  0.17970  0.31060  Biso   1.000  H
  H95      1.0000 0.43150  0.32030  0.68940  Biso   1.000  H
  H96      1.0000 0.06850  0.67970  0.18940  Biso   1.000  H
  C161     1.0000 0.61490  0.93180  0.81540  Biso   1.000  C
  C162     1.0000 0.88510  0.06820  0.31540  Biso   1.000  C
  C163     1.0000 0.38510  0.43180  0.68460  Biso   1.000  C
  C164     1.0000 0.11490  0.56820  0.18460  Biso   1.000  C
  H97      1.0000 0.60750  0.93520  0.84420  Biso   1.000  H
  H98      1.0000 0.89250  0.06480  0.34420  Biso   1.000  H
  H99      1.0000 0.39250  0.43520  0.65580  Biso   1.000  H
  H100     1.0000 0.10750  0.56480  0.15580  Biso   1.000  H
  C165     1.0000 0.65290  0.99820  0.79370  Biso   1.000  C
  C166     1.0000 0.84710  0.00180  0.29370  Biso   1.000  C
  C167     1.0000 0.34710  0.49820  0.70630  Biso   1.000  C
  C168     1.0000 0.15290  0.50180  0.20630  Biso   1.000  C
  H101     1.0000 0.67420  0.04460  0.80820  Biso   1.000  H
  H102     1.0000 0.82580  0.95540  0.30820  Biso   1.000  H
  H103     1.0000 0.32580  0.54460  0.69180  Biso   1.000  H
  H104     1.0000 0.17420  0.45540  0.19180  Biso   1.000  H
  C169     1.0000 0.73960  0.12910  0.66510  Biso   1.000  C
  C170     1.0000 0.76040  0.87090  0.16510  Biso   1.000  C
  C171     1.0000 0.26040  0.62910  0.83490  Biso   1.000  C
  C172     1.0000 0.23960  0.37090  0.33490  Biso   1.000  C
  H105     1.0000 0.74500  0.17500  0.68530  Biso   1.000  H
  H106     1.0000 0.75500  0.82500  0.18530  Biso   1.000  H
  H107     1.0000 0.25500  0.67500  0.81470  Biso   1.000  H
  H108     1.0000 0.24500  0.32500  0.31470  Biso   1.000  H
  C173     1.0000 0.82940  0.11020  0.65050  Biso   1.000  C
  C174     1.0000 0.67060  0.88980  0.15050  Biso   1.000  C
  C175     1.0000 0.17060  0.61020  0.84950  Biso   1.000  C
  C176     1.0000 0.32940  0.38980  0.34950  Biso   1.000  C
  H109     1.0000 0.86500  0.09460  0.67400  Biso   1.000  H
  H110     1.0000 0.63500  0.90540  0.17400  Biso   1.000  H
  H111     1.0000 0.13500  0.59460  0.82600  Biso   1.000  H
  H112     1.0000 0.36500  0.40540  0.32600  Biso   1.000  H
  H113     1.0000 0.85370  0.15920  0.63730  Biso   1.000  H
  H114     1.0000 0.64630  0.84080  0.13730  Biso   1.000  H
  H115     1.0000 0.14630  0.65920  0.86270  Biso   1.000  H
  H116     1.0000 0.35370  0.34080  0.36270  Biso   1.000  H
  H117     1.0000 0.82770  0.06480  0.63080  Biso   1.000  H
  H118     1.0000 0.67230  0.93520  0.13080  Biso   1.000  H
  H119     1.0000 0.17230  0.56480  0.86920  Biso   1.000  H
  H120     1.0000 0.32770  0.43520  0.36920  Biso   1.000  H
  C177     1.0000 0.67940  0.15880  0.63290  Biso   1.000  C
  C178     1.0000 0.82060  0.84120  0.13290  Biso   1.000  C
  C179     1.0000 0.32060  0.65880  0.86710  Biso   1.000  C
  C180     1.0000 0.17940  0.34120  0.36710  Biso   1.000  C
  N9       1.0000 0.70160  0.05850  0.68770  Biso   1.000  N
  N10      1.0000 0.79840  0.94150  0.18770  Biso   1.000  N
  N11      1.0000 0.29840  0.55850  0.81230  Biso   1.000  N
  N12      1.0000 0.20160  0.44150  0.31230  Biso   1.000  N
  O33      1.0000 0.67940  0.99590  0.62730  Biso   1.000  O
  O34      1.0000 0.82060  0.00410  0.12730  Biso   1.000  O
  O35      1.0000 0.32060  0.49590  0.87270  Biso   1.000  O
  O36      1.0000 0.17940  0.50410  0.37270  Biso   1.000  O
  O37      1.0000 0.72280  0.12520  0.74720  Biso   1.000  O
  O38      1.0000 0.77720  0.87480  0.24720  Biso   1.000  O
  O39      1.0000 0.27720  0.62520  0.75280  Biso   1.000  O
  O40      1.0000 0.22280  0.37480  0.25280  Biso   1.000  O
  O41      1.0000 0.71120  0.18070  0.59840  Biso   1.000  O
  O42      1.0000 0.78880  0.81930  0.09840  Biso   1.000  O
  O43      1.0000 0.28880  0.68070  0.90160  Biso   1.000  O
  O44      1.0000 0.21120  0.31930  0.40160  Biso   1.000  O
  O45      1.0000 0.60240  0.16660  0.64290  Biso   1.000  O
  O46      1.0000 0.89760  0.83340  0.14290  Biso   1.000  O
  O47      1.0000 0.39760  0.66660  0.85710  Biso   1.000  O
  O48      1.0000 0.10240  0.33340  0.35710  Biso   1.000  O
  C181     1.0000 0.66190  0.38720  0.68830  Biso   1.000  C
  C182     1.0000 0.83810  0.61280  0.18830  Biso   1.000  C
  C183     1.0000 0.33810  0.88720  0.81170  Biso   1.000  C
  C184     1.0000 0.16190  0.11280  0.31170  Biso   1.000  C
  C185     1.0000 0.65190  0.38720  0.73210  Biso   1.000  C
  C186     1.0000 0.84810  0.61280  0.23210  Biso   1.000  C
  C187     1.0000 0.34810  0.88720  0.76790  Biso   1.000  C
  C188     1.0000 0.15190  0.11280  0.26790  Biso   1.000  C
  C189     1.0000 0.60680  0.44750  0.75090  Biso   1.000  C
  C190     1.0000 0.89320  0.55250  0.25090  Biso   1.000  C
  C191     1.0000 0.39320  0.94750  0.74910  Biso   1.000  C
  C192     1.0000 0.10680  0.05250  0.24910  Biso   1.000  C
  C193     1.0000 0.56890  0.51760  0.72830  Biso   1.000  C
  C194     1.0000 0.93110  0.48240  0.22830  Biso   1.000  C
  C195     1.0000 0.43110  0.01760  0.77170  Biso   1.000  C
  C196     1.0000 0.06890  0.98240  0.27170  Biso   1.000  C
  C197     1.0000 0.57810  0.51620  0.68140  Biso   1.000  C
  C198     1.0000 0.92190  0.48380  0.18140  Biso   1.000  C
  C199     1.0000 0.42190  0.01620  0.81860  Biso   1.000  C
  C200     1.0000 0.07810  0.98380  0.31860  Biso   1.000  C
  C201     1.0000 0.68490  0.32450  0.75610  Biso   1.000  C
  C202     1.0000 0.81510  0.67550  0.25610  Biso   1.000  C
  C203     1.0000 0.31510  0.82450  0.74390  Biso   1.000  C
  C204     1.0000 0.18490  0.17550  0.24390  Biso   1.000  C
  H121     1.0000 0.71570  0.28030  0.74410  Biso   1.000  H
  H122     1.0000 0.78430  0.71970  0.24410  Biso   1.000  H
  H123     1.0000 0.28430  0.78030  0.75590  Biso   1.000  H
  H124     1.0000 0.21570  0.21970  0.25590  Biso   1.000  H
  C205     1.0000 0.67190  0.32780  0.79800  Biso   1.000  C
  C206     1.0000 0.82810  0.67220  0.29800  Biso   1.000  C
  C207     1.0000 0.32810  0.82780  0.70200  Biso   1.000  C
  C208     1.0000 0.17190  0.17220  0.20200  Biso   1.000  C
  H125     1.0000 0.69420  0.28410  0.81410  Biso   1.000  H
  H126     1.0000 0.80580  0.71590  0.31410  Biso   1.000  H
  H127     1.0000 0.30580  0.78410  0.68590  Biso   1.000  H
  H128     1.0000 0.19420  0.21590  0.18590  Biso   1.000  H
  C209     1.0000 0.63200  0.38540  0.81650  Biso   1.000  C
  C210     1.0000 0.86800  0.61460  0.31650  Biso   1.000  C
  C211     1.0000 0.36800  0.88540  0.68350  Biso   1.000  C
  C212     1.0000 0.13200  0.11460  0.18350  Biso   1.000  C
  H129     1.0000 0.62700  0.38330  0.84550  Biso   1.000  H
  H130     1.0000 0.87300  0.61670  0.34550  Biso   1.000  H
  H131     1.0000 0.37300  0.88330  0.65450  Biso   1.000  H
  H132     1.0000 0.12700  0.11670  0.15450  Biso   1.000  H
  C213     1.0000 0.59710  0.44870  0.79610  Biso   1.000  C
  C214     1.0000 0.90290  0.55130  0.29610  Biso   1.000  C
  C215     1.0000 0.40290  0.94870  0.70390  Biso   1.000  C
  C216     1.0000 0.09710  0.05130  0.20390  Biso   1.000  C
  C217     1.0000 0.55110  0.52100  0.81160  Biso   1.000  C
  C218     1.0000 0.94890  0.47900  0.31160  Biso   1.000  C
  C219     1.0000 0.44890  0.02100  0.68840  Biso   1.000  C
  C220     1.0000 0.05110  0.97900  0.18840  Biso   1.000  C
  H133     1.0000 0.54160  0.52410  0.84030  Biso   1.000  H
  H134     1.0000 0.95840  0.47590  0.34030  Biso   1.000  H
  H135     1.0000 0.45840  0.02410  0.65970  Biso   1.000  H
  H136     1.0000 0.04160  0.97590  0.15970  Biso   1.000  H
  C221     1.0000 0.52120  0.58320  0.78860  Biso   1.000  C
  C222     1.0000 0.97880  0.41680  0.28860  Biso   1.000  C
  C223     1.0000 0.47880  0.08320  0.71140  Biso   1.000  C
  C224     1.0000 0.02120  0.91680  0.21140  Biso   1.000  C
  H137     1.0000 0.49610  0.62980  0.80140  Biso   1.000  H
  H138     1.0000 0.00390  0.37020  0.30140  Biso   1.000  H
  H139     1.0000 0.50390  0.12980  0.69860  Biso   1.000  H
  H140     1.0000 0.99610  0.87020  0.19860  Biso   1.000  H
  C225     1.0000 0.52680  0.57990  0.74580  Biso   1.000  C
  C226     1.0000 0.97320  0.42010  0.24580  Biso   1.000  C
  C227     1.0000 0.47320  0.07990  0.75420  Biso   1.000  C
  C228     1.0000 0.02680  0.92010  0.25420  Biso   1.000  C
  H141     1.0000 0.50100  0.62140  0.72940  Biso   1.000  H
  H142     1.0000 0.99900  0.37860  0.22940  Biso   1.000  H
  H143     1.0000 0.49900  0.12140  0.77060  Biso   1.000  H
  H144     1.0000 0.00100  0.87860  0.27060  Biso   1.000  H
  C229     1.0000 0.62960  0.44420  0.61980  Biso   1.000  C
  C230     1.0000 0.87040  0.55580  0.11980  Biso   1.000  C
  C231     1.0000 0.37040  0.94420  0.88020  Biso   1.000  C
  C232     1.0000 0.12960  0.05580  0.38020  Biso   1.000  C
  H145     1.0000 0.58230  0.47910  0.60870  Biso   1.000  H
  H146     1.0000 0.91770  0.52090  0.10870  Biso   1.000  H
  H147     1.0000 0.41770  0.97910  0.89130  Biso   1.000  H
  H148     1.0000 0.08230  0.02090  0.39130  Biso   1.000  H
  C233     1.0000 0.70990  0.48440  0.60570  Biso   1.000  C
  C234     1.0000 0.79010  0.51560  0.10570  Biso   1.000  C
  C235     1.0000 0.29010  0.98440  0.89430  Biso   1.000  C
  C236     1.0000 0.20990  0.01560  0.39430  Biso   1.000  C
  H149     1.0000 0.70630  0.54380  0.61060  Biso   1.000  H
  H150     1.0000 0.79370  0.45620  0.11060  Biso   1.000  H
  H151     1.0000 0.29370  0.04380  0.88940  Biso   1.000  H
  H152     1.0000 0.20630  0.95620  0.38940  Biso   1.000  H
  H153     1.0000 0.71770  0.47420  0.57640  Biso   1.000  H
  H154     1.0000 0.78230  0.52580  0.07640  Biso   1.000  H
  H155     1.0000 0.28230  0.97420  0.92360  Biso   1.000  H
  H156     1.0000 0.21770  0.02580  0.42360  Biso   1.000  H
  H157     1.0000 0.75860  0.46160  0.62090  Biso   1.000  H
  H158     1.0000 0.74140  0.53840  0.12090  Biso   1.000  H
  H159     1.0000 0.24140  0.96160  0.87910  Biso   1.000  H
  H160     1.0000 0.25860  0.03840  0.37910  Biso   1.000  H
  C237     1.0000 0.61060  0.35940  0.60520  Biso   1.000  C
  C238     1.0000 0.88940  0.64060  0.10520  Biso   1.000  C
  C239     1.0000 0.38940  0.85940  0.89480  Biso   1.000  C
  C240     1.0000 0.11060  0.14060  0.39480  Biso   1.000  C
  N13      1.0000 0.61990  0.44810  0.66500  Biso   1.000  N
  N14      1.0000 0.88010  0.55190  0.16500  Biso   1.000  N
  N15      1.0000 0.38010  0.94810  0.83500  Biso   1.000  N
  N16      1.0000 0.11990  0.05190  0.33500  Biso   1.000  N
  O49      1.0000 0.70640  0.33520  0.67040  Biso   1.000  O
  O50      1.0000 0.79360  0.66480  0.17040  Biso   1.000  O
  O51      1.0000 0.29360  0.83520  0.82960  Biso   1.000  O
  O52      1.0000 0.20640  0.16480  0.32960  Biso   1.000  O
  O53      1.0000 0.54740  0.56840  0.65930  Biso   1.000  O
  O54      1.0000 0.95260  0.43160  0.15930  Biso   1.000  O
  O55      1.0000 0.45260  0.06840  0.84070  Biso   1.000  O
  O56      1.0000 0.04740  0.93160  0.34070  Biso   1.000  O
  O57      1.0000 0.65620  0.33210  0.57522  Biso   1.000  O
  O58      1.0000 0.84380  0.66790  0.07522  Biso   1.000  O
  O59      1.0000 0.34380  0.83210  0.92478  Biso   1.000  O
  O60      1.0000 0.15620  0.16790  0.42478  Biso   1.000  O
  O61      1.0000 0.54830  0.32260  0.62054  Biso   1.000  O
  O62      1.0000 0.95170  0.67740  0.12054  Biso   1.000  O
  O63      1.0000 0.45170  0.82260  0.87946  Biso   1.000  O
  O64      1.0000 0.04830  0.17740  0.37946  Biso   1.000  O
  C241     1.0000 0.71700  0.23070  0.31870  Biso   1.000  C
  C242     1.0000 0.78300  0.76930  0.81870  Biso   1.000  C
  C243     1.0000 0.28300  0.73070  0.18130  Biso   1.000  C
  C244     1.0000 0.21700  0.26930  0.68130  Biso   1.000  C
  C245     1.0000 0.68920  0.18900  0.28060  Biso   1.000  C
  C246     1.0000 0.81080  0.81100  0.78060  Biso   1.000  C
  C247     1.0000 0.31080  0.68900  0.21940  Biso   1.000  C
  C248     1.0000 0.18920  0.31100  0.71940  Biso   1.000  C
  C249     1.0000 0.69460  0.23160  0.24280  Biso   1.000  C
  C250     1.0000 0.80540  0.76840  0.74280  Biso   1.000  C
  C251     1.0000 0.30540  0.73160  0.25720  Biso   1.000  C
  C252     1.0000 0.19460  0.26840  0.75720  Biso   1.000  C
  C253     1.0000 0.71930  0.31510  0.24170  Biso   1.000  C
  C254     1.0000 0.78070  0.68490  0.74170  Biso   1.000  C
  C255     1.0000 0.28070  0.81510  0.25830  Biso   1.000  C
  C256     1.0000 0.21930  0.18490  0.75830  Biso   1.000  C
  C257     1.0000 0.73350  0.35920  0.28000  Biso   1.000  C
  C258     1.0000 0.76650  0.64080  0.78000  Biso   1.000  C
  C259     1.0000 0.26650  0.85920  0.22000  Biso   1.000  C
  C260     1.0000 0.23350  0.14080  0.72000  Biso   1.000  C
  C261     1.0000 0.66280  0.10790  0.28150  Biso   1.000  C
  C262     1.0000 0.83720  0.89210  0.78150  Biso   1.000  C
  C263     1.0000 0.33720  0.60790  0.21850  Biso   1.000  C
  C264     1.0000 0.16280  0.39210  0.71850  Biso   1.000  C
  H161     1.0000 0.66050  0.07910  0.30680  Biso   1.000  H
  H162     1.0000 0.83950  0.92090  0.80680  Biso   1.000  H
  H163     1.0000 0.33950  0.57910  0.19320  Biso   1.000  H
  H164     1.0000 0.16050  0.42090  0.69320  Biso   1.000  H
  C265     1.0000 0.63930  0.06840  0.24520  Biso   1.000  C
  C266     1.0000 0.86070  0.93160  0.74520  Biso   1.000  C
  C267     1.0000 0.36070  0.56840  0.25480  Biso   1.000  C
  C268     1.0000 0.13930  0.43160  0.75480  Biso   1.000  C
  H165     1.0000 0.61980  0.01300  0.24610  Biso   1.000  H
  H166     1.0000 0.88020  0.98700  0.74610  Biso   1.000  H
  H167     1.0000 0.38020  0.51300  0.25390  Biso   1.000  H
  H168     1.0000 0.11980  0.48700  0.75390  Biso   1.000  H
  C269     1.0000 0.64440  0.11070  0.20630  Biso   1.000  C
  C270     1.0000 0.85560  0.88930  0.70630  Biso   1.000  C
  C271     1.0000 0.35560  0.61070  0.29370  Biso   1.000  C
  C272     1.0000 0.14440  0.38930  0.79370  Biso   1.000  C
  H169     1.0000 0.62870  0.08410  0.18150  Biso   1.000  H
  H170     1.0000 0.87130  0.91590  0.68150  Biso   1.000  H
  H171     1.0000 0.37130  0.58410  0.31850  Biso   1.000  H
  H172     1.0000 0.12870  0.41590  0.81850  Biso   1.000  H
  C273     1.0000 0.67210  0.18860  0.20660  Biso   1.000  C
  C274     1.0000 0.82790  0.81140  0.70660  Biso   1.000  C
  C275     1.0000 0.32790  0.68860  0.29340  Biso   1.000  C
  C276     1.0000 0.17210  0.31140  0.79340  Biso   1.000  C
  C277     1.0000 0.68020  0.22800  0.16920  Biso   1.000  C
  C278     1.0000 0.81980  0.77200  0.66920  Biso   1.000  C
  C279     1.0000 0.31980  0.72800  0.33080  Biso   1.000  C
  C280     1.0000 0.18020  0.27200  0.83080  Biso   1.000  C
  H173     1.0000 0.66800  0.19990  0.14440  Biso   1.000  H
  H174     1.0000 0.83200  0.80010  0.64440  Biso   1.000  H
  H175     1.0000 0.33200  0.69990  0.35560  Biso   1.000  H
  H176     1.0000 0.16800  0.30010  0.85560  Biso   1.000  H
  C281     1.0000 0.70660  0.30990  0.16890  Biso   1.000  C
  C282     1.0000 0.79340  0.69010  0.66890  Biso   1.000  C
  C283     1.0000 0.29340  0.80990  0.33110  Biso   1.000  C
  C284     1.0000 0.20660  0.19010  0.83110  Biso   1.000  C
  H177     1.0000 0.71310  0.33670  0.14320  Biso   1.000  H
  H178     1.0000 0.78690  0.66330  0.64320  Biso   1.000  H
  H179     1.0000 0.28690  0.83670  0.35680  Biso   1.000  H
  H180     1.0000 0.21310  0.16330  0.85680  Biso   1.000  H
  C285     1.0000 0.72370  0.35410  0.20420  Biso   1.000  C
  C286     1.0000 0.77630  0.64590  0.70420  Biso   1.000  C
  C287     1.0000 0.27630  0.85410  0.29580  Biso   1.000  C
  C288     1.0000 0.22370  0.14590  0.79580  Biso   1.000  C
  H181     1.0000 0.73840  0.41080  0.20270  Biso   1.000  H
  H182     1.0000 0.76160  0.58920  0.70270  Biso   1.000  H
  H183     1.0000 0.26160  0.91080  0.29730  Biso   1.000  H
  H184     1.0000 0.23840  0.08920  0.79730  Biso   1.000  H
  C289     1.0000 0.74580  0.35660  0.35480  Biso   1.000  C
  C290     1.0000 0.75420  0.64340  0.85480  Biso   1.000  C
  C291     1.0000 0.25420  0.85660  0.14520  Biso   1.000  C
  C292     1.0000 0.24580  0.14340  0.64520  Biso   1.000  C
  H185     1.0000 0.76230  0.41430  0.34770  Biso   1.000  H
  H186     1.0000 0.73770  0.58570  0.84770  Biso   1.000  H
  H187     1.0000 0.23770  0.91430  0.15230  Biso   1.000  H
  H188     1.0000 0.26230  0.08570  0.65230  Biso   1.000  H
  C293     1.0000 0.66380  0.36310  0.38000  Biso   1.000  C
  C294     1.0000 0.83620  0.63690  0.88000  Biso   1.000  C
  C295     1.0000 0.33620  0.86310  0.12000  Biso   1.000  C
  C296     1.0000 0.16380  0.13690  0.62000  Biso   1.000  C
  H189     1.0000 0.62060  0.39340  0.36430  Biso   1.000  H
  H190     1.0000 0.87940  0.60660  0.86430  Biso   1.000  H
  H191     1.0000 0.37940  0.89340  0.13570  Biso   1.000  H
  H192     1.0000 0.12060  0.10660  0.63570  Biso   1.000  H
  H193     1.0000 0.67560  0.39230  0.40560  Biso   1.000  H
  H194     1.0000 0.82440  0.60770  0.90560  Biso   1.000  H
  H195     1.0000 0.32440  0.89230  0.09440  Biso   1.000  H
  H196     1.0000 0.17560  0.10770  0.59440  Biso   1.000  H
  H197     1.0000 0.64240  0.30770  0.38610  Biso   1.000  H
  H198     1.0000 0.85760  0.69230  0.88610  Biso   1.000  H
  H199     1.0000 0.35760  0.80770  0.11390  Biso   1.000  H
  H200     1.0000 0.14240  0.19230  0.61390  Biso   1.000  H
  C297     1.0000 0.82240  0.32000  0.37800  Biso   1.000  C
  C298     1.0000 0.67760  0.68000  0.87800  Biso   1.000  C
  C299     1.0000 0.17760  0.82000  0.12200  Biso   1.000  C
  C300     1.0000 0.32240  0.18000  0.62200  Biso   1.000  C
  N17      1.0000 0.73350  0.31380  0.31590  Biso   1.000  N
  N18      1.0000 0.76650  0.68620  0.81590  Biso   1.000  N
  N19      1.0000 0.26650  0.81380  0.18410  Biso   1.000  N
  N20      1.0000 0.23350  0.18620  0.68410  Biso   1.000  N
  O65      1.0000 0.72100  0.19550  0.35220  Biso   1.000  O
  O66      1.0000 0.77900  0.80450  0.85220  Biso   1.000  O
  O67      1.0000 0.27900  0.69550  0.14780  Biso   1.000  O
  O68      1.0000 0.22100  0.30450  0.64780  Biso   1.000  O
  O69      1.0000 0.74520  0.43280  0.28100  Biso   1.000  O
  O70      1.0000 0.75480  0.56720  0.78100  Biso   1.000  O
  O71      1.0000 0.25480  0.93280  0.21900  Biso   1.000  O
  O72      1.0000 0.24520  0.06720  0.71900  Biso   1.000  O
  O73      1.0000 0.80850  0.31630  0.41782  Biso   1.000  O
  O74      1.0000 0.69150  0.68370  0.91782  Biso   1.000  O
  O75      1.0000 0.19150  0.81630  0.08218  Biso   1.000  O
  O76      1.0000 0.30850  0.18370  0.58218  Biso   1.000  O
  H201     1.0000 0.85610  0.29760  0.42630  Biso   1.000  H
  H202     1.0000 0.64390  0.70240  0.92630  Biso   1.000  H
  H203     1.0000 0.14390  0.79760  0.07370  Biso   1.000  H
  H204     1.0000 0.35610  0.20240  0.57370  Biso   1.000  H
  O77      1.0000 0.88690  0.29810  0.36146  Biso   1.000  O
  O78      1.0000 0.61310  0.70190  0.86146  Biso   1.000  O
  O79      1.0000 0.11310  0.79810  0.13854  Biso   1.000  O
  O80      1.0000 0.38690  0.20190  0.63854  Biso   1.000  O
  C301     1.0000 0.31140  0.54580  0.43530  Biso   1.000  C
  C302     1.0000 0.18860  0.45420  0.93530  Biso   1.000  C
  C303     1.0000 0.68860  0.04580  0.06470  Biso   1.000  C
  C304     1.0000 0.81140  0.95420  0.56470  Biso   1.000  C
  Cl1      1.0000 0.40640  0.56230  0.40700  Biso   1.000  Cl
  Cl2      1.0000 0.09360  0.43770  0.90700  Biso   1.000  Cl
  Cl3      1.0000 0.59360  0.06230  0.09300  Biso   1.000  Cl
  Cl4      1.0000 0.90640  0.93770  0.59300  Biso   1.000  Cl
  Cl5      1.0000 0.31850  0.58680  0.48310  Biso   1.000  Cl
  Cl6      1.0000 0.18150  0.41320  0.98310  Biso   1.000  Cl
  Cl7      1.0000 0.68150  0.08680  0.01690  Biso   1.000  Cl
  Cl8      1.0000 0.81850  0.91320  0.51690  Biso   1.000  Cl
  C305     1.0000 0.29130  0.58100  0.44550  Biso   1.000  C
  C306     1.0000 0.20870  0.41900  0.94550  Biso   1.000  C
  C307     1.0000 0.70870  0.08100  0.05450  Biso   1.000  C
  C308     1.0000 0.79130  0.91900  0.55450  Biso   1.000  C
  Cl9      1.0000 0.39400  0.58860  0.42550  Biso   1.000  Cl
  Cl10     1.0000 0.10600  0.41140  0.92550  Biso   1.000  Cl
  Cl11     1.0000 0.60600  0.08860  0.07450  Biso   1.000  Cl
  Cl12     1.0000 0.89400  0.91140  0.57450  Biso   1.000  Cl
  Cl13     1.0000 0.28190  0.63810  0.49050  Biso   1.000  Cl
  Cl14     1.0000 0.21810  0.36190  0.99050  Biso   1.000  Cl
  Cl15     1.0000 0.71810  0.13810  0.00950  Biso   1.000  Cl
  Cl16     1.0000 0.78190  0.86190  0.50950  Biso   1.000  Cl
  C309     1.0000 0.39500  0.15510  0.32390  Biso   1.000  C
  C310     1.0000 0.10500  0.84490  0.82390  Biso   1.000  C
  C311     1.0000 0.60500  0.65510  0.17610  Biso   1.000  C
  C312     1.0000 0.89500  0.34490  0.67610  Biso   1.000  C
  Cl17     1.0000 0.41710  0.04920  0.32340  Biso   1.000  Cl
  Cl18     1.0000 0.08290  0.95080  0.82340  Biso   1.000  Cl
  Cl19     1.0000 0.58290  0.54920  0.17660  Biso   1.000  Cl
  Cl20     1.0000 0.91710  0.45080  0.67660  Biso   1.000  Cl
  Cl21     1.0000 0.48630  0.20880  0.30870  Biso   1.000  Cl
  Cl22     1.0000 0.01370  0.79120  0.80870  Biso   1.000  Cl
  Cl23     1.0000 0.51370  0.70880  0.19130  Biso   1.000  Cl
  Cl24     1.0000 0.98630  0.29120  0.69130  Biso   1.000  Cl
  C313     1.0000 0.40200  0.14570  0.33210  Biso   1.000  C
  C314     1.0000 0.09800  0.85430  0.83210  Biso   1.000  C
  C315     1.0000 0.59800  0.64570  0.16790  Biso   1.000  C
  C316     1.0000 0.90200  0.35430  0.66790  Biso   1.000  C
  Cl25     1.0000 0.41050  0.04050  0.32090  Biso   1.000  Cl
  Cl26     1.0000 0.08950  0.95950  0.82090  Biso   1.000  Cl
  Cl27     1.0000 0.58950  0.54050  0.17910  Biso   1.000  Cl
  Cl28     1.0000 0.91050  0.45950  0.67910  Biso   1.000  Cl
  Cl29     1.0000 0.43400  0.19980  0.28810  Biso   1.000  Cl
  Cl30     1.0000 0.06600  0.80020  0.78810  Biso   1.000  Cl
  Cl31     1.0000 0.56600  0.69980  0.21190  Biso   1.000  Cl
  Cl32     1.0000 0.93400  0.30020  0.71190  Biso   1.000  Cl
  C317     1.0000 0.39200  0.17000  0.34400  Biso   1.000  C
  C318     1.0000 0.10800  0.83000  0.84400  Biso   1.000  C
  C319     1.0000 0.60800  0.67000  0.15600  Biso   1.000  C
  C320     1.0000 0.89200  0.33000  0.65600  Biso   1.000  C
  Cl33     1.0000 0.40990  0.08690  0.31010  Biso   1.000  Cl
  Cl34     1.0000 0.09010  0.91310  0.81010  Biso   1.000  Cl
  Cl35     1.0000 0.59010  0.58690  0.18990  Biso   1.000  Cl
  Cl36     1.0000 0.90990  0.41310  0.68990  Biso   1.000  Cl
  Cl37     1.0000 0.48480  0.23040  0.34000  Biso   1.000  Cl
  Cl38     1.0000 0.01520  0.76960  0.84000  Biso   1.000  Cl
  Cl39     1.0000 0.51520  0.73040  0.16000  Biso   1.000  Cl
  Cl40     1.0000 0.98480  0.26960  0.66000  Biso   1.000  Cl
  C321     1.0000 0.37900  0.17600  0.29700  Biso   1.000  C
  C322     1.0000 0.12100  0.82400  0.79700  Biso   1.000  C
  C323     1.0000 0.62100  0.67600  0.20300  Biso   1.000  C
  C324     1.0000 0.87900  0.32400  0.70300  Biso   1.000  C
  Cl41     1.0000 0.37270  0.07510  0.27840  Biso   1.000  Cl
  Cl42     1.0000 0.12730  0.92490  0.77840  Biso   1.000  Cl
  Cl43     1.0000 0.62730  0.57510  0.22160  Biso   1.000  Cl
  Cl44     1.0000 0.87270  0.42490  0.72160  Biso   1.000  Cl
  Cl45     1.0000 0.45560  0.17510  0.33710  Biso   1.000  Cl
  Cl46     1.0000 0.04440  0.82490  0.83710  Biso   1.000  Cl
  Cl47     1.0000 0.54440  0.67510  0.16290  Biso   1.000  Cl
  Cl48     1.0000 0.95560  0.32490  0.66290  Biso   1.000  Cl
  C325     1.0000 0.53000  0.39700  0.22350  Biso   1.000  C
  C326     1.0000 0.97000  0.60300  0.72350  Biso   1.000  C
  C327     1.0000 0.47000  0.89700  0.27650  Biso   1.000  C
  C328     1.0000 0.03000  0.10300  0.77650  Biso   1.000  C
  Cl49     1.0000 0.51470  0.37140  0.27490  Biso   1.000  Cl
  Cl50     1.0000 0.98530  0.62860  0.77490  Biso   1.000  Cl
  Cl51     1.0000 0.48530  0.87140  0.22510  Biso   1.000  Cl
  Cl52     1.0000 0.01470  0.12860  0.72510  Biso   1.000  Cl
  Cl53     1.0000 0.42840  0.39760  0.20140  Biso   1.000  Cl
  Cl54     1.0000 0.07160  0.60240  0.70140  Biso   1.000  Cl
  Cl55     1.0000 0.57160  0.89760  0.29860  Biso   1.000  Cl
  Cl56     1.0000 0.92840  0.10240  0.79860  Biso   1.000  Cl
  C329     1.0000 0.58630  0.54130  0.28620  Biso   1.000  C
  C330     1.0000 0.91370  0.45870  0.78620  Biso   1.000  C
  C331     1.0000 0.41370  0.04130  0.21380  Biso   1.000  C
  C332     1.0000 0.08630  0.95870  0.71380  Biso   1.000  C
  Cl57     1.0000 0.53400  0.44250  0.28680  Biso   1.000  Cl
  Cl58     1.0000 0.96600  0.55750  0.78680  Biso   1.000  Cl
  Cl59     1.0000 0.46600  0.94250  0.21320  Biso   1.000  Cl
  Cl60     1.0000 0.03400  0.05750  0.71320  Biso   1.000  Cl
  Cl61     1.0000 0.58620  0.58050  0.33630  Biso   1.000  Cl
  Cl62     1.0000 0.91380  0.41950  0.83630  Biso   1.000  Cl
  Cl63     1.0000 0.41380  0.08050  0.16370  Biso   1.000  Cl
  Cl64     1.0000 0.08620  0.91950  0.66370  Biso   1.000  Cl
  C333     1.0000 0.47670  0.29860  0.19490  Biso   1.000  C
  C334     1.0000 0.02330  0.70140  0.69490  Biso   1.000  C
  C335     1.0000 0.52330  0.79860  0.30510  Biso   1.000  C
  C336     1.0000 0.97670  0.20140  0.80510  Biso   1.000  C
  Cl65     1.0000 0.37500  0.32280  0.21190  Biso   1.000  Cl
  Cl66     1.0000 0.12500  0.67720  0.71190  Biso   1.000  Cl
  Cl67     1.0000 0.62500  0.82280  0.28810  Biso   1.000  Cl
  Cl68     1.0000 0.87500  0.17720  0.78810  Biso   1.000  Cl
  Cl69     1.0000 0.48280  0.32510  0.14250  Biso   1.000  Cl
  Cl70     1.0000 0.01720  0.67490  0.64250  Biso   1.000  Cl
  Cl71     1.0000 0.51720  0.82510  0.35750  Biso   1.000  Cl
  Cl72     1.0000 0.98280  0.17490  0.85750  Biso   1.000  Cl
  C337     1.0000 0.36900  0.27700  0.22420  Biso   1.000  C
  C338     1.0000 0.13100  0.72300  0.72420  Biso   1.000  C
  C339     1.0000 0.63100  0.77700  0.27580  Biso   1.000  C
  C340     1.0000 0.86900  0.22300  0.77580  Biso   1.000  C
  Cl73     1.0000 0.38470  0.20970  0.18300  Biso   1.000  Cl
  Cl74     1.0000 0.11530  0.79030  0.68300  Biso   1.000  Cl
  Cl75     1.0000 0.61530  0.70970  0.31700  Biso   1.000  Cl
  Cl76     1.0000 0.88470  0.29030  0.81700  Biso   1.000  Cl
  Cl77     1.0000 0.46520  0.32900  0.23260  Biso   1.000  Cl
  Cl78     1.0000 0.03480  0.67100  0.73260  Biso   1.000  Cl
  Cl79     1.0000 0.53480  0.82900  0.26740  Biso   1.000  Cl
  Cl80     1.0000 0.96520  0.17100  0.76740  Biso   1.000  Cl
  C341     1.0000 0.47400  0.29900  0.16850  Biso   1.000  C
  C342     1.0000 0.02600  0.70100  0.66850  Biso   1.000  C
  C343     1.0000 0.52600  0.79900  0.33150  Biso   1.000  C
  C344     1.0000 0.97400  0.20100  0.83150  Biso   1.000  C
  Cl81     1.0000 0.48600  0.39700  0.19080  Biso   1.000  Cl
  Cl82     1.0000 0.01400  0.60300  0.69080  Biso   1.000  Cl
  Cl83     1.0000 0.51400  0.89700  0.30920  Biso   1.000  Cl
  Cl84     1.0000 0.98600  0.10300  0.80920  Biso   1.000  Cl
  Cl85     1.0000 0.49200  0.31300  0.11530  Biso   1.000  Cl
  Cl86     1.0000 0.00800  0.68700  0.61530  Biso   1.000  Cl
  Cl87     1.0000 0.50800  0.81300  0.38470  Biso   1.000  Cl
  Cl88     1.0000 0.99200  0.18700  0.88470  Biso   1.000  Cl
  C345     1.0000 0.43500  0.20100  0.92340  Biso   1.000  C
  C346     1.0000 0.06500  0.79900  0.42340  Biso   1.000  C
  C347     1.0000 0.56500  0.70100  0.57660  Biso   1.000  C
  C348     1.0000 0.93500  0.29900  0.07660  Biso   1.000  C
  Cl89     1.0000 0.33560  0.24060  0.93720  Biso   1.000  Cl
  Cl90     1.0000 0.16440  0.75940  0.43720  Biso   1.000  Cl
  Cl91     1.0000 0.66440  0.74060  0.56280  Biso   1.000  Cl
  Cl92     1.0000 0.83560  0.25940  0.06280  Biso   1.000  Cl
  Cl93     1.0000 0.50320  0.18150  0.96400  Biso   1.000  Cl
  Cl94     1.0000 0.99680  0.81850  0.46400  Biso   1.000  Cl
  Cl95     1.0000 0.49680  0.68150  0.53600  Biso   1.000  Cl
  Cl96     1.0000 0.00320  0.31850  0.03600  Biso   1.000  Cl
  C349     1.0000 0.63200  0.31400  0.04640  Biso   1.000  C
  C350     1.0000 0.86800  0.68600  0.54640  Biso   1.000  C
  C351     1.0000 0.36800  0.81400  0.45360  Biso   1.000  C
  C352     1.0000 0.13200  0.18600  0.95360  Biso   1.000  C
  Cl97     1.0000 0.61040  0.41310  0.06540  Biso   1.000  Cl
  Cl98     1.0000 0.88960  0.58690  0.56540  Biso   1.000  Cl
  Cl99     1.0000 0.38960  0.91310  0.43460  Biso   1.000  Cl
  Cl100    1.0000 0.11040  0.08690  0.93460  Biso   1.000  Cl
  Cl101    1.0000 0.54230  0.26940  0.02210  Biso   1.000  Cl
  Cl102    1.0000 0.95770  0.73060  0.52210  Biso   1.000  Cl
  Cl103    1.0000 0.45770  0.76940  0.47790  Biso   1.000  Cl
  Cl104    1.0000 0.04230  0.23060  0.97790  Biso   1.000  Cl
  C353     1.0000 0.58300  0.28780  0.05860  Biso   1.000  C
  C354     1.0000 0.91700  0.71220  0.55860  Biso   1.000  C
  C355     1.0000 0.41700  0.78780  0.44140  Biso   1.000  C
  C356     1.0000 0.08300  0.21220  0.94140  Biso   1.000  C
  Cl105    1.0000 0.64640  0.37260  0.05440  Biso   1.000  Cl
  Cl106    1.0000 0.85360  0.62740  0.55440  Biso   1.000  Cl
  Cl107    1.0000 0.35360  0.87260  0.44560  Biso   1.000  Cl
  Cl108    1.0000 0.14640  0.12740  0.94560  Biso   1.000  Cl
  Cl109    1.0000 0.50320  0.31120  0.09350  Biso   1.000  Cl
  Cl110    1.0000 0.99680  0.68880  0.59350  Biso   1.000  Cl
  Cl111    1.0000 0.49680  0.81120  0.40650  Biso   1.000  Cl
  Cl112    1.0000 0.00320  0.18880  0.90650  Biso   1.000  Cl
  C357     1.0000 0.41590  0.20500  0.95980  Biso   1.000  C
  C358     1.0000 0.08410  0.79500  0.45980  Biso   1.000  C
  C359     1.0000 0.58410  0.70500  0.54020  Biso   1.000  C
  C360     1.0000 0.91590  0.29500  0.04020  Biso   1.000  C
  Cl113    1.0000 0.41850  0.15600  0.91290  Biso   1.000  Cl
  Cl114    1.0000 0.08150  0.84400  0.41290  Biso   1.000  Cl
  Cl115    1.0000 0.58150  0.65600  0.58710  Biso   1.000  Cl
  Cl116    1.0000 0.91850  0.34400  0.08710  Biso   1.000  Cl
  Cl117    1.0000 0.51890  0.20060  0.98120  Biso   1.000  Cl
  Cl118    1.0000 0.98110  0.79940  0.48120  Biso   1.000  Cl
  Cl119    1.0000 0.48110  0.70060  0.51880  Biso   1.000  Cl
  Cl120    1.0000 0.01890  0.29940  0.01880  Biso   1.000  Cl
  O81      1.0000 0.35890  0.15170  0.42630  Biso   1.000  O
  O82      1.0000 0.14110  0.84830  0.92630  Biso   1.000  O
  O83      1.0000 0.64110  0.65170  0.07370  Biso   1.000  O
  O84      1.0000 0.85890  0.34830  0.57370  Biso   1.000  O
