data_image0
_cell_length_a       15.211
_cell_length_b       29.834
_cell_length_c       21.305
_cell_angle_alpha    90
_cell_angle_beta     120.04
_cell_angle_gamma    90

_symmetry_space_group_name_H-M    "P 1"
_symmetry_int_tables_number       1

loop_
  _symmetry_equiv_pos_as_xyz
  'x, y, z'

loop_
  _atom_site_label
  _atom_site_occupancy
  _atom_site_fract_x
  _atom_site_fract_y
  _atom_site_fract_z
  _atom_site_thermal_displace_type
  _atom_site_B_iso_or_equiv
  _atom_site_type_symbol
  Gd1      1.0000 0.37778  0.46409  0.93944  Biso   1.000  Gd
  Gd2      1.0000 0.62222  0.96409  0.56056  Biso   1.000  Gd
  Gd3      1.0000 0.62222  0.53591  0.06056  Biso   1.000  Gd
  Gd4      1.0000 0.37778  0.03591  0.43945  Biso   1.000  Gd
  Gd5      1.0000 0.13217  0.53144  0.55990  Biso   1.000  Gd
  Gd6      1.0000 0.86783  0.03144  0.94010  Biso   1.000  Gd
  Gd7      1.0000 0.86783  0.46856  0.44010  Biso   1.000  Gd
  Gd8      1.0000 0.13217  0.96856  0.05990  Biso   1.000  Gd
  Cu1      1.0000 0.52870  0.45901  0.13503  Biso   1.000  Cu
  Cu2      1.0000 0.47130  0.95901  0.36497  Biso   1.000  Cu
  Cu3      1.0000 0.47130  0.54099  0.86497  Biso   1.000  Cu
  Cu4      1.0000 0.52870  0.04099  0.63503  Biso   1.000  Cu
  Cu5      1.0000 0.24679  0.50242  0.75444  Biso   1.000  Cu
  Cu6      1.0000 0.75321  0.00242  0.74556  Biso   1.000  Cu
  Cu7      1.0000 0.75321  0.49758  0.24556  Biso   1.000  Cu
  Cu8      1.0000 0.24679  0.99758  0.25444  Biso   1.000  Cu
  Cu9      1.0000 0.01869  0.46427  0.63459  Biso   1.000  Cu
  Cu10     1.0000 0.98131  0.96427  0.86541  Biso   1.000  Cu
  Cu11     1.0000 0.98131  0.53573  0.36541  Biso   1.000  Cu
  Cu12     1.0000 0.01869  0.03573  0.13459  Biso   1.000  Cu
  O1       1.0000 0.27890  0.52564  0.54115  Biso   1.000  O
  O2       1.0000 0.72110  0.02564  0.95885  Biso   1.000  O
  O3       1.0000 0.72110  0.47436  0.45885  Biso   1.000  O
  O4       1.0000 0.27890  0.97436  0.04115  Biso   1.000  O
  O5       1.0000 0.13580  0.49429  0.45830  Biso   1.000  O
  O6       1.0000 0.86420  0.99429  0.04170  Biso   1.000  O
  O7       1.0000 0.86420  0.50571  0.54170  Biso   1.000  O
  O8       1.0000 0.13580  0.00571  0.95830  Biso   1.000  O
  O9       1.0000 0.48310  0.41235  0.92630  Biso   1.000  O
  O10      1.0000 0.51690  0.91235  0.57370  Biso   1.000  O
  O11      1.0000 0.51690  0.58765  0.07370  Biso   1.000  O
  O12      1.0000 0.48310  0.08765  0.42630  Biso   1.000  O
  O13      1.0000 0.46000  0.40741  0.81460  Biso   1.000  O
  O14      1.0000 0.54000  0.90741  0.68540  Biso   1.000  O
  O15      1.0000 0.54000  0.59259  0.18540  Biso   1.000  O
  O16      1.0000 0.46000  0.09259  0.31460  Biso   1.000  O
  O17      1.0000 0.48650  0.39634  0.11886  Biso   1.000  O
  O18      1.0000 0.51350  0.89634  0.38114  Biso   1.000  O
  O19      1.0000 0.51350  0.60366  0.88114  Biso   1.000  O
  O20      1.0000 0.48650  0.10366  0.61886  Biso   1.000  O
  O21      1.0000 0.37000  0.39727  0.00080  Biso   1.000  O
  O22      1.0000 0.63000  0.89727  0.49920  Biso   1.000  O
  O23      1.0000 0.63000  0.60273  0.99920  Biso   1.000  O
  O24      1.0000 0.37000  0.10273  0.50080  Biso   1.000  O
  O25      1.0000 0.21120  0.43835  0.72943  Biso   1.000  O
  O26      1.0000 0.78880  0.93835  0.77057  Biso   1.000  O
  O27      1.0000 0.78880  0.56165  0.27057  Biso   1.000  O
  O28      1.0000 0.21120  0.06165  0.22943  Biso   1.000  O
  O29      1.0000 0.25410  0.41943  0.84193  Biso   1.000  O
  O30      1.0000 0.74590  0.91943  0.65807  Biso   1.000  O
  O31      1.0000 0.74590  0.58057  0.15807  Biso   1.000  O
  O32      1.0000 0.25410  0.08057  0.34193  Biso   1.000  O
  O33      1.0000 0.71360  0.43401  0.22894  Biso   1.000  O
  O34      1.0000 0.28640  0.93401  0.27106  Biso   1.000  O
  O35      1.0000 0.28640  0.56599  0.77106  Biso   1.000  O
  O36      1.0000 0.71360  0.06599  0.72894  Biso   1.000  O
  O37      1.0000 0.74580  0.42481  0.34202  Biso   1.000  O
  O38      1.0000 0.25420  0.92481  0.15798  Biso   1.000  O
  O39      1.0000 0.25420  0.57519  0.65798  Biso   1.000  O
  O40      1.0000 0.74580  0.07519  0.84202  Biso   1.000  O
  O41      1.0000 0.97680  0.40148  0.61958  Biso   1.000  O
  O42      1.0000 0.02320  0.90148  0.88042  Biso   1.000  O
  O43      1.0000 0.02320  0.59852  0.38042  Biso   1.000  O
  O44      1.0000 0.97680  0.09852  0.11958  Biso   1.000  O
  O45      1.0000 0.85470  0.40210  0.50300  Biso   1.000  O
  O46      1.0000 0.14530  0.90210  0.99700  Biso   1.000  O
  O47      1.0000 0.14530  0.59790  0.49700  Biso   1.000  O
  O48      1.0000 0.85470  0.09790  0.00300  Biso   1.000  O
  O49      1.0000 0.02690  0.58826  0.56630  Biso   1.000  O
  O50      1.0000 0.97310  0.08826  0.93370  Biso   1.000  O
  O51      1.0000 0.97310  0.41174  0.43370  Biso   1.000  O
  O52      1.0000 0.02690  0.91174  0.06630  Biso   1.000  O
  O53      1.0000 0.03340  0.59568  0.67270  Biso   1.000  O
  O54      1.0000 0.96660  0.09568  0.82730  Biso   1.000  O
  O55      1.0000 0.96660  0.40432  0.32730  Biso   1.000  O
  O56      1.0000 0.03340  0.90432  0.17270  Biso   1.000  O
  O57      1.0000 0.22530  0.46633  0.95710  Biso   1.000  O
  O58      1.0000 0.77470  0.96633  0.54290  Biso   1.000  O
  O59      1.0000 0.77470  0.53367  0.04290  Biso   1.000  O
  O60      1.0000 0.22530  0.03367  0.45710  Biso   1.000  O
  O61      1.0000 0.36740  0.49945  0.03870  Biso   1.000  O
  O62      1.0000 0.63260  0.99945  0.46130  Biso   1.000  O
  O63      1.0000 0.63260  0.50055  0.96130  Biso   1.000  O
  O64      1.0000 0.36740  0.00055  0.53870  Biso   1.000  O
  O65      1.0000 0.54280  0.46388  0.04859  Biso   1.000  O
  O66      1.0000 0.45720  0.96388  0.45141  Biso   1.000  O
  O67      1.0000 0.45720  0.53612  0.95141  Biso   1.000  O
  O68      1.0000 0.54280  0.03612  0.54859  Biso   1.000  O
  H1       1.0000 0.57800  0.43280  0.05050  Biso   1.000  H
  H2       1.0000 0.42200  0.93280  0.44950  Biso   1.000  H
  H3       1.0000 0.42200  0.56720  0.94950  Biso   1.000  H
  H4       1.0000 0.57800  0.06720  0.55050  Biso   1.000  H
  O69      1.0000 0.38460  0.48749  0.83088  Biso   1.000  O
  O70      1.0000 0.61540  0.98749  0.66912  Biso   1.000  O
  O71      1.0000 0.61540  0.51251  0.16912  Biso   1.000  O
  O72      1.0000 0.38460  0.01251  0.33088  Biso   1.000  O
  H5       1.0000 0.41000  0.46900  0.81090  Biso   1.000  H
  H6       1.0000 0.59000  0.96900  0.68910  Biso   1.000  H
  H7       1.0000 0.59000  0.53100  0.18910  Biso   1.000  H
  H8       1.0000 0.41000  0.03100  0.31090  Biso   1.000  H
  O73      1.0000 0.11520  0.51449  0.66992  Biso   1.000  O
  O74      1.0000 0.88480  0.01449  0.83008  Biso   1.000  O
  O75      1.0000 0.88480  0.48551  0.33008  Biso   1.000  O
  O76      1.0000 0.11520  0.98551  0.16992  Biso   1.000  O
  H9       1.0000 0.10630  0.54770  0.68070  Biso   1.000  H
  H10      1.0000 0.89370  0.04770  0.81930  Biso   1.000  H
  H11      1.0000 0.89370  0.45230  0.31930  Biso   1.000  H
  H12      1.0000 0.10630  0.95230  0.18070  Biso   1.000  H
  O77      1.0000 0.03270  0.46569  0.54917  Biso   1.000  O
  O78      1.0000 0.96730  0.96569  0.95083  Biso   1.000  O
  O79      1.0000 0.96730  0.53431  0.45083  Biso   1.000  O
  O80      1.0000 0.03270  0.03431  0.04917  Biso   1.000  O
  H13      1.0000 0.05720  0.43590  0.53290  Biso   1.000  H
  H14      1.0000 0.94280  0.93590  0.96710  Biso   1.000  H
  H15      1.0000 0.94280  0.56410  0.46710  Biso   1.000  H
  H16      1.0000 0.05720  0.06410  0.03290  Biso   1.000  H
  O81      1.0000 0.22920  0.51711  0.85800  Biso   1.000  O
  O82      1.0000 0.77080  0.01711  0.64200  Biso   1.000  O
  O83      1.0000 0.77080  0.48289  0.14200  Biso   1.000  O
  O84      1.0000 0.22920  0.98289  0.35800  Biso   1.000  O
  H17      1.0000 0.23600  0.54150  0.87180  Biso   1.000  H
  H18      1.0000 0.76400  0.04150  0.62820  Biso   1.000  H
  H19      1.0000 0.76400  0.45850  0.12820  Biso   1.000  H
  H20      1.0000 0.23600  0.95850  0.37180  Biso   1.000  H
  H21      1.0000 0.16030  0.49930  0.83820  Biso   1.000  H
  H22      1.0000 0.83970  0.99930  0.66180  Biso   1.000  H
  H23      1.0000 0.83970  0.50070  0.16180  Biso   1.000  H
  H24      1.0000 0.16030  0.00070  0.33820  Biso   1.000  H
  O85      1.0000 0.24840  0.46980  0.62721  Biso   1.000  O
  O86      1.0000 0.75160  0.96980  0.87279  Biso   1.000  O
  O87      1.0000 0.75160  0.53020  0.37279  Biso   1.000  O
  O88      1.0000 0.24840  0.03020  0.12721  Biso   1.000  O
  H25      1.0000 0.27130  0.45570  0.59730  Biso   1.000  H
  H26      1.0000 0.72870  0.95570  0.90270  Biso   1.000  H
  H27      1.0000 0.72870  0.54430  0.40270  Biso   1.000  H
  H28      1.0000 0.27130  0.04430  0.09730  Biso   1.000  H
  H29      1.0000 0.24300  0.45040  0.64960  Biso   1.000  H
  H30      1.0000 0.75700  0.95040  0.85040  Biso   1.000  H
  H31      1.0000 0.75700  0.54960  0.35040  Biso   1.000  H
  H32      1.0000 0.24300  0.04960  0.14960  Biso   1.000  H
  N1       1.0000 0.48400  0.46128  0.20930  Biso   1.000  N
  N2       1.0000 0.51600  0.96128  0.29070  Biso   1.000  N
  N3       1.0000 0.51600  0.53872  0.79070  Biso   1.000  N
  N4       1.0000 0.48400  0.03872  0.70930  Biso   1.000  N
  N5       1.0000 0.51750  0.10418  0.93040  Biso   1.000  N
  N6       1.0000 0.48250  0.60418  0.56960  Biso   1.000  N
  N7       1.0000 0.48250  0.89582  0.06960  Biso   1.000  N
  N8       1.0000 0.51750  0.39582  0.43040  Biso   1.000  N
  N9       1.0000 0.32850  0.09524  0.08100  Biso   1.000  N
  N10      1.0000 0.67150  0.59524  0.41900  Biso   1.000  N
  N11      1.0000 0.67150  0.90476  0.91900  Biso   1.000  N
  N12      1.0000 0.32850  0.40476  0.58100  Biso   1.000  N
  N13      1.0000 0.14760  0.12760  0.67570  Biso   1.000  N
  N14      1.0000 0.85240  0.62760  0.82430  Biso   1.000  N
  N15      1.0000 0.85240  0.87240  0.32430  Biso   1.000  N
  N16      1.0000 0.14760  0.37240  0.17570  Biso   1.000  N
  N17      1.0000 0.67760  0.12391  0.22230  Biso   1.000  N
  N18      1.0000 0.32240  0.62391  0.27770  Biso   1.000  N
  N19      1.0000 0.32240  0.87609  0.77770  Biso   1.000  N
  N20      1.0000 0.67760  0.37609  0.72230  Biso   1.000  N
  N21      1.0000 0.79000  0.10296  0.59660  Biso   1.000  N
  N22      1.0000 0.21000  0.60296  0.90340  Biso   1.000  N
  N23      1.0000 0.21000  0.89704  0.40340  Biso   1.000  N
  N24      1.0000 0.79000  0.39704  0.09660  Biso   1.000  N
  N25      1.0000 0.99640  0.89665  0.56180  Biso   1.000  N
  N26      1.0000 0.00360  0.39665  0.93820  Biso   1.000  N
  N27      1.0000 0.00360  0.10335  0.43820  Biso   1.000  N
  N28      1.0000 0.99640  0.60335  0.06180  Biso   1.000  N
  N29      1.0000 0.02050  0.53013  0.28810  Biso   1.000  N
  N30      1.0000 0.97950  0.03013  0.21190  Biso   1.000  N
  N31      1.0000 0.97950  0.46987  0.71190  Biso   1.000  N
  N32      1.0000 0.02050  0.96987  0.78810  Biso   1.000  N
  C1       1.0000 0.53320  0.48483  0.27020  Biso   1.000  C
  C2       1.0000 0.46680  0.98483  0.22980  Biso   1.000  C
  C3       1.0000 0.46680  0.51517  0.72980  Biso   1.000  C
  C4       1.0000 0.53320  0.01517  0.77020  Biso   1.000  C
  H33      1.0000 0.59430  0.49850  0.28120  Biso   1.000  H
  H34      1.0000 0.40570  0.99850  0.21880  Biso   1.000  H
  H35      1.0000 0.40570  0.50150  0.71880  Biso   1.000  H
  H36      1.0000 0.59430  0.00150  0.78120  Biso   1.000  H
  C5       1.0000 0.49730  0.49000  0.31760  Biso   1.000  C
  C6       1.0000 0.50270  0.99000  0.18240  Biso   1.000  C
  C7       1.0000 0.50270  0.51000  0.68240  Biso   1.000  C
  C8       1.0000 0.49730  0.01000  0.81760  Biso   1.000  C
  H37      1.0000 0.53530  0.50630  0.36010  Biso   1.000  H
  H38      1.0000 0.46470  0.00630  0.13990  Biso   1.000  H
  H39      1.0000 0.46470  0.49370  0.63990  Biso   1.000  H
  H40      1.0000 0.53530  0.99370  0.86010  Biso   1.000  H
  C9       1.0000 0.40620  0.47130  0.30340  Biso   1.000  C
  C10      1.0000 0.59380  0.97130  0.19660  Biso   1.000  C
  C11      1.0000 0.59380  0.52870  0.69660  Biso   1.000  C
  C12      1.0000 0.40620  0.02870  0.80340  Biso   1.000  C
  C13      1.0000 0.35810  0.44492  0.24130  Biso   1.000  C
  C14      1.0000 0.64190  0.94492  0.25870  Biso   1.000  C
  C15      1.0000 0.64190  0.55508  0.75870  Biso   1.000  C
  C16      1.0000 0.35810  0.05508  0.74130  Biso   1.000  C
  H41      1.0000 0.29800  0.43020  0.22980  Biso   1.000  H
  H42      1.0000 0.70200  0.93020  0.27020  Biso   1.000  H
  H43      1.0000 0.70200  0.56980  0.77020  Biso   1.000  H
  H44      1.0000 0.29800  0.06980  0.72980  Biso   1.000  H
  C17      1.0000 0.39880  0.44046  0.19670  Biso   1.000  C
  C18      1.0000 0.60120  0.94046  0.30330  Biso   1.000  C
  C19      1.0000 0.60120  0.55954  0.80330  Biso   1.000  C
  C20      1.0000 0.39880  0.05954  0.69670  Biso   1.000  C
  H45      1.0000 0.36560  0.42210  0.15620  Biso   1.000  H
  H46      1.0000 0.63440  0.92210  0.34380  Biso   1.000  H
  H47      1.0000 0.63440  0.57790  0.84380  Biso   1.000  H
  H48      1.0000 0.36560  0.07790  0.65620  Biso   1.000  H
  C21      1.0000 0.36260  0.47906  0.35050  Biso   1.000  C
  C22      1.0000 0.63740  0.97906  0.14950  Biso   1.000  C
  C23      1.0000 0.63740  0.52094  0.64950  Biso   1.000  C
  C24      1.0000 0.36260  0.02094  0.85050  Biso   1.000  C
  C25      1.0000 0.39920  0.51260  0.40260  Biso   1.000  C
  C26      1.0000 0.60080  0.01260  0.09740  Biso   1.000  C
  C27      1.0000 0.60080  0.48740  0.59740  Biso   1.000  C
  C28      1.0000 0.39920  0.98740  0.90260  Biso   1.000  C
  H49      1.0000 0.45310  0.53030  0.40840  Biso   1.000  H
  H50      1.0000 0.54690  0.03030  0.09160  Biso   1.000  H
  H51      1.0000 0.54690  0.46970  0.59160  Biso   1.000  H
  H52      1.0000 0.45310  0.96970  0.90840  Biso   1.000  H
  C29      1.0000 0.35720  0.52030  0.44610  Biso   1.000  C
  C30      1.0000 0.64280  0.02030  0.05390  Biso   1.000  C
  C31      1.0000 0.64280  0.47970  0.55390  Biso   1.000  C
  C32      1.0000 0.35720  0.97970  0.94610  Biso   1.000  C
  H53      1.0000 0.38440  0.54230  0.48180  Biso   1.000  H
  H54      1.0000 0.61560  0.04230  0.01820  Biso   1.000  H
  H55      1.0000 0.61560  0.45770  0.51820  Biso   1.000  H
  H56      1.0000 0.38440  0.95770  0.98180  Biso   1.000  H
  C33      1.0000 0.27520  0.49555  0.43680  Biso   1.000  C
  C34      1.0000 0.72480  0.99555  0.06320  Biso   1.000  C
  C35      1.0000 0.72480  0.50445  0.56320  Biso   1.000  C
  C36      1.0000 0.27520  0.00445  0.93680  Biso   1.000  C
  C37      1.0000 0.23730  0.46186  0.38500  Biso   1.000  C
  C38      1.0000 0.76270  0.96186  0.11500  Biso   1.000  C
  C39      1.0000 0.76270  0.53814  0.61500  Biso   1.000  C
  C40      1.0000 0.23730  0.03814  0.88500  Biso   1.000  C
  H57      1.0000 0.18160  0.44510  0.37820  Biso   1.000  H
  H58      1.0000 0.81840  0.94510  0.12180  Biso   1.000  H
  H59      1.0000 0.81840  0.55490  0.62180  Biso   1.000  H
  H60      1.0000 0.18160  0.05490  0.87820  Biso   1.000  H
  C41      1.0000 0.28120  0.45340  0.34270  Biso   1.000  C
  C42      1.0000 0.71880  0.95340  0.15730  Biso   1.000  C
  C43      1.0000 0.71880  0.54660  0.65730  Biso   1.000  C
  C44      1.0000 0.28120  0.04660  0.84270  Biso   1.000  C
  H61      1.0000 0.25650  0.43010  0.30910  Biso   1.000  H
  H62      1.0000 0.74350  0.93010  0.19090  Biso   1.000  H
  H63      1.0000 0.74350  0.56990  0.69090  Biso   1.000  H
  H64      1.0000 0.25650  0.06990  0.80910  Biso   1.000  H
  C45      1.0000 0.22780  0.50558  0.48190  Biso   1.000  C
  C46      1.0000 0.77220  0.00558  0.01810  Biso   1.000  C
  C47      1.0000 0.77220  0.49442  0.51810  Biso   1.000  C
  C48      1.0000 0.22780  0.99442  0.98190  Biso   1.000  C
  C49      1.0000 0.54900  0.12390  0.88960  Biso   1.000  C
  C50      1.0000 0.45100  0.62390  0.61040  Biso   1.000  C
  C51      1.0000 0.45100  0.87610  0.11040  Biso   1.000  C
  C52      1.0000 0.54900  0.37610  0.38960  Biso   1.000  C
  H65      1.0000 0.57800  0.10620  0.86880  Biso   1.000  H
  H66      1.0000 0.42200  0.60620  0.63120  Biso   1.000  H
  H67      1.0000 0.42200  0.89380  0.13120  Biso   1.000  H
  H68      1.0000 0.57800  0.39380  0.36880  Biso   1.000  H
  C53      1.0000 0.54070  0.16984  0.87570  Biso   1.000  C
  C54      1.0000 0.45930  0.66984  0.62430  Biso   1.000  C
  C55      1.0000 0.45930  0.83016  0.12430  Biso   1.000  C
  C56      1.0000 0.54070  0.33016  0.37570  Biso   1.000  C
  H69      1.0000 0.56290  0.18220  0.84600  Biso   1.000  H
  H70      1.0000 0.43710  0.68220  0.65400  Biso   1.000  H
  H71      1.0000 0.43710  0.81780  0.15400  Biso   1.000  H
  H72      1.0000 0.56290  0.31780  0.34600  Biso   1.000  H
  C57      1.0000 0.49880  0.19681  0.90680  Biso   1.000  C
  C58      1.0000 0.50120  0.69681  0.59320  Biso   1.000  C
  C59      1.0000 0.50120  0.80319  0.09320  Biso   1.000  C
  C60      1.0000 0.49880  0.30319  0.40680  Biso   1.000  C
  C61      1.0000 0.46420  0.17590  0.94830  Biso   1.000  C
  C62      1.0000 0.53580  0.67590  0.55170  Biso   1.000  C
  C63      1.0000 0.53580  0.82410  0.05170  Biso   1.000  C
  C64      1.0000 0.46420  0.32410  0.44830  Biso   1.000  C
  H73      1.0000 0.43380  0.19240  0.96930  Biso   1.000  H
  H74      1.0000 0.56620  0.69240  0.53070  Biso   1.000  H
  H75      1.0000 0.56620  0.80760  0.03070  Biso   1.000  H
  H76      1.0000 0.43380  0.30760  0.46930  Biso   1.000  H
  C65      1.0000 0.47510  0.13000  0.95790  Biso   1.000  C
  C66      1.0000 0.52490  0.63000  0.54210  Biso   1.000  C
  C67      1.0000 0.52490  0.87000  0.04210  Biso   1.000  C
  C68      1.0000 0.47510  0.37000  0.45790  Biso   1.000  C
  H77      1.0000 0.45080  0.11640  0.98550  Biso   1.000  H
  H78      1.0000 0.54920  0.61640  0.51450  Biso   1.000  H
  H79      1.0000 0.54920  0.88360  0.01450  Biso   1.000  H
  H80      1.0000 0.45080  0.38360  0.48550  Biso   1.000  H
  C69      1.0000 0.49330  0.24675  0.89740  Biso   1.000  C
  C70      1.0000 0.50670  0.74675  0.60260  Biso   1.000  C
  C71      1.0000 0.50670  0.75325  0.10260  Biso   1.000  C
  C72      1.0000 0.49330  0.25325  0.39740  Biso   1.000  C
  C73      1.0000 0.47800  0.26635  0.83350  Biso   1.000  C
  C74      1.0000 0.52200  0.76635  0.66650  Biso   1.000  C
  C75      1.0000 0.52200  0.73365  0.16650  Biso   1.000  C
  C76      1.0000 0.47800  0.23365  0.33350  Biso   1.000  C
  H81      1.0000 0.47050  0.24830  0.79550  Biso   1.000  H
  H82      1.0000 0.52950  0.74830  0.70450  Biso   1.000  H
  H83      1.0000 0.52950  0.75170  0.20450  Biso   1.000  H
  H84      1.0000 0.47050  0.25170  0.29550  Biso   1.000  H
  C77      1.0000 0.47390  0.31274  0.82530  Biso   1.000  C
  C78      1.0000 0.52610  0.81274  0.67470  Biso   1.000  C
  C79      1.0000 0.52610  0.68726  0.17470  Biso   1.000  C
  C80      1.0000 0.47390  0.18726  0.32530  Biso   1.000  C
  H85      1.0000 0.46250  0.32560  0.78190  Biso   1.000  H
  H86      1.0000 0.53750  0.82560  0.71810  Biso   1.000  H
  H87      1.0000 0.53750  0.67440  0.21810  Biso   1.000  H
  H88      1.0000 0.46250  0.17440  0.28190  Biso   1.000  H
  C81      1.0000 0.48710  0.33973  0.88230  Biso   1.000  C
  C82      1.0000 0.51290  0.83973  0.61770  Biso   1.000  C
  C83      1.0000 0.51290  0.66027  0.11770  Biso   1.000  C
  C84      1.0000 0.48710  0.16027  0.38230  Biso   1.000  C
  C85      1.0000 0.50320  0.32050  0.94610  Biso   1.000  C
  C86      1.0000 0.49680  0.82050  0.55390  Biso   1.000  C
  C87      1.0000 0.49680  0.67950  0.05390  Biso   1.000  C
  C88      1.0000 0.50320  0.17950  0.44610  Biso   1.000  C
  H89      1.0000 0.51250  0.33870  0.98430  Biso   1.000  H
  H90      1.0000 0.48750  0.83870  0.51570  Biso   1.000  H
  H91      1.0000 0.48750  0.66130  0.01570  Biso   1.000  H
  H92      1.0000 0.51250  0.16130  0.48430  Biso   1.000  H
  C89      1.0000 0.50630  0.27436  0.95420  Biso   1.000  C
  C90      1.0000 0.49370  0.77436  0.54580  Biso   1.000  C
  C91      1.0000 0.49370  0.72564  0.04580  Biso   1.000  C
  C92      1.0000 0.50630  0.22564  0.45420  Biso   1.000  C
  H93      1.0000 0.51710  0.26180  0.99750  Biso   1.000  H
  H94      1.0000 0.48290  0.76180  0.50250  Biso   1.000  H
  H95      1.0000 0.48290  0.73820  0.00250  Biso   1.000  H
  H96      1.0000 0.51710  0.23820  0.49750  Biso   1.000  H
  C93      1.0000 0.47590  0.39078  0.87210  Biso   1.000  C
  C94      1.0000 0.52410  0.89078  0.62790  Biso   1.000  C
  C95      1.0000 0.52410  0.60922  0.12790  Biso   1.000  C
  C96      1.0000 0.47590  0.10922  0.37210  Biso   1.000  C
  C97      1.0000 0.41490  0.11590  0.12650  Biso   1.000  C
  C98      1.0000 0.58510  0.61590  0.37350  Biso   1.000  C
  C99      1.0000 0.58510  0.88410  0.87350  Biso   1.000  C
  C100     1.0000 0.41490  0.38410  0.62650  Biso   1.000  C
  H97      1.0000 0.46840  0.09920  0.16160  Biso   1.000  H
  H98      1.0000 0.53160  0.59920  0.33840  Biso   1.000  H
  H99      1.0000 0.53160  0.90080  0.83840  Biso   1.000  H
  H100     1.0000 0.46840  0.40080  0.66160  Biso   1.000  H
  C101     1.0000 0.42770  0.16210  0.12370  Biso   1.000  C
  C102     1.0000 0.57230  0.66210  0.37630  Biso   1.000  C
  C103     1.0000 0.57230  0.83790  0.87630  Biso   1.000  C
  C104     1.0000 0.42770  0.33790  0.62370  Biso   1.000  C
  H101     1.0000 0.48970  0.17520  0.15560  Biso   1.000  H
  H102     1.0000 0.51030  0.67520  0.34440  Biso   1.000  H
  H103     1.0000 0.51030  0.82480  0.84440  Biso   1.000  H
  H104     1.0000 0.48970  0.32480  0.65560  Biso   1.000  H
  C105     1.0000 0.34960  0.18842  0.07380  Biso   1.000  C
  C106     1.0000 0.65040  0.68842  0.42620  Biso   1.000  C
  C107     1.0000 0.65040  0.81158  0.92620  Biso   1.000  C
  C108     1.0000 0.34960  0.31158  0.57380  Biso   1.000  C
  C109     1.0000 0.26080  0.16664  0.02600  Biso   1.000  C
  C110     1.0000 0.73920  0.66664  0.47400  Biso   1.000  C
  C111     1.0000 0.73920  0.83336  0.97400  Biso   1.000  C
  C112     1.0000 0.26080  0.33336  0.52600  Biso   1.000  C
  H105     1.0000 0.20580  0.18280  0.99070  Biso   1.000  H
  H106     1.0000 0.79420  0.68280  0.50930  Biso   1.000  H
  H107     1.0000 0.79420  0.81720  0.00930  Biso   1.000  H
  H108     1.0000 0.20580  0.31720  0.49070  Biso   1.000  H
  C113     1.0000 0.25360  0.12057  0.03080  Biso   1.000  C
  C114     1.0000 0.74640  0.62057  0.46920  Biso   1.000  C
  C115     1.0000 0.74640  0.87943  0.96920  Biso   1.000  C
  C116     1.0000 0.25360  0.37943  0.53080  Biso   1.000  C
  H109     1.0000 0.19360  0.10660  0.99730  Biso   1.000  H
  H110     1.0000 0.80640  0.60660  0.50270  Biso   1.000  H
  H111     1.0000 0.80640  0.89340  0.00270  Biso   1.000  H
  H112     1.0000 0.19360  0.39340  0.49730  Biso   1.000  H
  C117     1.0000 0.36220  0.23783  0.07160  Biso   1.000  C
  C118     1.0000 0.63780  0.73783  0.42840  Biso   1.000  C
  C119     1.0000 0.63780  0.76217  0.92840  Biso   1.000  C
  C120     1.0000 0.36220  0.26217  0.57160  Biso   1.000  C
  C121     1.0000 0.30820  0.26181  0.00810  Biso   1.000  C
  C122     1.0000 0.69180  0.76181  0.49190  Biso   1.000  C
  C123     1.0000 0.69180  0.73819  0.99190  Biso   1.000  C
  C124     1.0000 0.30820  0.23819  0.50810  Biso   1.000  C
  H113     1.0000 0.26040  0.24720  0.96620  Biso   1.000  H
  H114     1.0000 0.73960  0.74720  0.53380  Biso   1.000  H
  H115     1.0000 0.73960  0.75280  0.03380  Biso   1.000  H
  H116     1.0000 0.26040  0.25280  0.46620  Biso   1.000  H
  C125     1.0000 0.32500  0.30741  0.00610  Biso   1.000  C
  C126     1.0000 0.67500  0.80741  0.49390  Biso   1.000  C
  C127     1.0000 0.67500  0.69259  0.99390  Biso   1.000  C
  C128     1.0000 0.32500  0.19259  0.50610  Biso   1.000  C
  H117     1.0000 0.28770  0.32300  0.96270  Biso   1.000  H
  H118     1.0000 0.71230  0.82300  0.53730  Biso   1.000  H
  H119     1.0000 0.71230  0.67700  0.03730  Biso   1.000  H
  H120     1.0000 0.28770  0.17700  0.46270  Biso   1.000  H
  C129     1.0000 0.39570  0.32999  0.06710  Biso   1.000  C
  C130     1.0000 0.60430  0.82999  0.43290  Biso   1.000  C
  C131     1.0000 0.60430  0.67001  0.93290  Biso   1.000  C
  C132     1.0000 0.39570  0.17001  0.56710  Biso   1.000  C
  C133     1.0000 0.44480  0.30736  0.13150  Biso   1.000  C
  C134     1.0000 0.55520  0.80736  0.36850  Biso   1.000  C
  C135     1.0000 0.55520  0.69264  0.86850  Biso   1.000  C
  C136     1.0000 0.44480  0.19264  0.63150  Biso   1.000  C
  H121     1.0000 0.48890  0.32250  0.17390  Biso   1.000  H
  H122     1.0000 0.51110  0.82250  0.32610  Biso   1.000  H
  H123     1.0000 0.51110  0.67750  0.82610  Biso   1.000  H
  H124     1.0000 0.48890  0.17750  0.67390  Biso   1.000  H
  C137     1.0000 0.42860  0.26124  0.13360  Biso   1.000  C
  C138     1.0000 0.57140  0.76124  0.36640  Biso   1.000  C
  C139     1.0000 0.57140  0.73876  0.86640  Biso   1.000  C
  C140     1.0000 0.42860  0.23876  0.63360  Biso   1.000  C
  H125     1.0000 0.46310  0.24600  0.17750  Biso   1.000  H
  H126     1.0000 0.53690  0.74600  0.32250  Biso   1.000  H
  H127     1.0000 0.53690  0.75400  0.82250  Biso   1.000  H
  H128     1.0000 0.46310  0.25400  0.67750  Biso   1.000  H
  C141     1.0000 0.41720  0.37854  0.06070  Biso   1.000  C
  C142     1.0000 0.58280  0.87854  0.43930  Biso   1.000  C
  C143     1.0000 0.58280  0.62146  0.93930  Biso   1.000  C
  C144     1.0000 0.41720  0.12146  0.56070  Biso   1.000  C
  C145     1.0000 0.13770  0.14670  0.72700  Biso   1.000  C
  C146     1.0000 0.86230  0.64670  0.77300  Biso   1.000  C
  C147     1.0000 0.86230  0.85330  0.27300  Biso   1.000  C
  C148     1.0000 0.13770  0.35330  0.22700  Biso   1.000  C
  H129     1.0000 0.11510  0.12880  0.75180  Biso   1.000  H
  H130     1.0000 0.88490  0.62880  0.74820  Biso   1.000  H
  H131     1.0000 0.88490  0.87120  0.24820  Biso   1.000  H
  H132     1.0000 0.11510  0.37120  0.25180  Biso   1.000  H
  C149     1.0000 0.15730  0.19150  0.74710  Biso   1.000  C
  C150     1.0000 0.84270  0.69150  0.75290  Biso   1.000  C
  C151     1.0000 0.84270  0.80850  0.25290  Biso   1.000  C
  C152     1.0000 0.15730  0.30850  0.24710  Biso   1.000  C
  H133     1.0000 0.15000  0.20230  0.78520  Biso   1.000  H
  H134     1.0000 0.85000  0.70230  0.71480  Biso   1.000  H
  H135     1.0000 0.85000  0.79770  0.21480  Biso   1.000  H
  H136     1.0000 0.15000  0.29770  0.28520  Biso   1.000  H
  C153     1.0000 0.18830  0.21984  0.71060  Biso   1.000  C
  C154     1.0000 0.81170  0.71984  0.78940  Biso   1.000  C
  C155     1.0000 0.81170  0.78016  0.28940  Biso   1.000  C
  C156     1.0000 0.18830  0.28016  0.21060  Biso   1.000  C
  C157     1.0000 0.19820  0.20040  0.65570  Biso   1.000  C
  C158     1.0000 0.80180  0.70040  0.84430  Biso   1.000  C
  C159     1.0000 0.80180  0.79960  0.34430  Biso   1.000  C
  C160     1.0000 0.19820  0.29960  0.15570  Biso   1.000  C
  H137     1.0000 0.21910  0.21740  0.62900  Biso   1.000  H
  H138     1.0000 0.78090  0.71740  0.87100  Biso   1.000  H
  H139     1.0000 0.78090  0.78260  0.37100  Biso   1.000  H
  H140     1.0000 0.21910  0.28260  0.12900  Biso   1.000  H
  C161     1.0000 0.17640  0.15490  0.64010  Biso   1.000  C
  C162     1.0000 0.82360  0.65490  0.85990  Biso   1.000  C
  C163     1.0000 0.82360  0.84510  0.35990  Biso   1.000  C
  C164     1.0000 0.17640  0.34510  0.14010  Biso   1.000  C
  H141     1.0000 0.18280  0.14280  0.60230  Biso   1.000  H
  H142     1.0000 0.81720  0.64280  0.89770  Biso   1.000  H
  H143     1.0000 0.81720  0.85720  0.39770  Biso   1.000  H
  H144     1.0000 0.18280  0.35720  0.10230  Biso   1.000  H
  C165     1.0000 0.20390  0.26869  0.72760  Biso   1.000  C
  C166     1.0000 0.79610  0.76869  0.77240  Biso   1.000  C
  C167     1.0000 0.79610  0.73131  0.27240  Biso   1.000  C
  C168     1.0000 0.20390  0.23131  0.22760  Biso   1.000  C
  C169     1.0000 0.22050  0.28440  0.79360  Biso   1.000  C
  C170     1.0000 0.77950  0.78440  0.70640  Biso   1.000  C
  C171     1.0000 0.77950  0.71560  0.20640  Biso   1.000  C
  C172     1.0000 0.22050  0.21560  0.29360  Biso   1.000  C
  H145     1.0000 0.22650  0.26400  0.82850  Biso   1.000  H
  H146     1.0000 0.77350  0.76400  0.67150  Biso   1.000  H
  H147     1.0000 0.77350  0.73600  0.17150  Biso   1.000  H
  H148     1.0000 0.22650  0.23600  0.32850  Biso   1.000  H
  C173     1.0000 0.22830  0.32966  0.80890  Biso   1.000  C
  C174     1.0000 0.77170  0.82966  0.69110  Biso   1.000  C
  C175     1.0000 0.77170  0.67034  0.19110  Biso   1.000  C
  C176     1.0000 0.22830  0.17034  0.30890  Biso   1.000  C
  H149     1.0000 0.23970  0.33930  0.85390  Biso   1.000  H
  H150     1.0000 0.76030  0.83930  0.64610  Biso   1.000  H
  H151     1.0000 0.76030  0.66070  0.14610  Biso   1.000  H
  H152     1.0000 0.23970  0.16070  0.35390  Biso   1.000  H
  C177     1.0000 0.21940  0.36085  0.75790  Biso   1.000  C
  C178     1.0000 0.78060  0.86085  0.74210  Biso   1.000  C
  C179     1.0000 0.78060  0.63915  0.24210  Biso   1.000  C
  C180     1.0000 0.21940  0.13915  0.25790  Biso   1.000  C
  C181     1.0000 0.20610  0.34553  0.69260  Biso   1.000  C
  C182     1.0000 0.79390  0.84553  0.80740  Biso   1.000  C
  C183     1.0000 0.79390  0.65447  0.30740  Biso   1.000  C
  C184     1.0000 0.20610  0.15447  0.19260  Biso   1.000  C
  H153     1.0000 0.20250  0.36600  0.65840  Biso   1.000  H
  H154     1.0000 0.79750  0.86600  0.84160  Biso   1.000  H
  H155     1.0000 0.79750  0.63400  0.34160  Biso   1.000  H
  H156     1.0000 0.20250  0.13400  0.15840  Biso   1.000  H
  C185     1.0000 0.19840  0.30029  0.67760  Biso   1.000  C
  C186     1.0000 0.80160  0.80029  0.82240  Biso   1.000  C
  C187     1.0000 0.80160  0.69971  0.32240  Biso   1.000  C
  C188     1.0000 0.19840  0.19971  0.17760  Biso   1.000  C
  H157     1.0000 0.18930  0.29080  0.63310  Biso   1.000  H
  H158     1.0000 0.81070  0.79080  0.86690  Biso   1.000  H
  H159     1.0000 0.81070  0.70920  0.36690  Biso   1.000  H
  H160     1.0000 0.18930  0.20920  0.13310  Biso   1.000  H
  C189     1.0000 0.22930  0.40954  0.77860  Biso   1.000  C
  C190     1.0000 0.77070  0.90954  0.72140  Biso   1.000  C
  C191     1.0000 0.77070  0.59046  0.22140  Biso   1.000  C
  C192     1.0000 0.22930  0.09046  0.27860  Biso   1.000  C
  C193     1.0000 0.70150  0.14970  0.18200  Biso   1.000  C
  C194     1.0000 0.29850  0.64970  0.31800  Biso   1.000  C
  C195     1.0000 0.29850  0.85030  0.81800  Biso   1.000  C
  C196     1.0000 0.70150  0.35030  0.68200  Biso   1.000  C
  H161     1.0000 0.70900  0.13600  0.14580  Biso   1.000  H
  H162     1.0000 0.29100  0.63600  0.35420  Biso   1.000  H
  H163     1.0000 0.29100  0.86400  0.85420  Biso   1.000  H
  H164     1.0000 0.70900  0.36400  0.64580  Biso   1.000  H
  C197     1.0000 0.71660  0.19601  0.19120  Biso   1.000  C
  C198     1.0000 0.28340  0.69601  0.30880  Biso   1.000  C
  C199     1.0000 0.28340  0.80399  0.80880  Biso   1.000  C
  C200     1.0000 0.71660  0.30399  0.69120  Biso   1.000  C
  H165     1.0000 0.73480  0.21220  0.16220  Biso   1.000  H
  H166     1.0000 0.26520  0.71220  0.33780  Biso   1.000  H
  H167     1.0000 0.26520  0.78780  0.83780  Biso   1.000  H
  H168     1.0000 0.73480  0.28780  0.66220  Biso   1.000  H
  C201     1.0000 0.70380  0.21750  0.24410  Biso   1.000  C
  C202     1.0000 0.29620  0.71750  0.25590  Biso   1.000  C
  C203     1.0000 0.29620  0.78250  0.75590  Biso   1.000  C
  C204     1.0000 0.70380  0.28250  0.74410  Biso   1.000  C
  C205     1.0000 0.67960  0.19047  0.28610  Biso   1.000  C
  C206     1.0000 0.32040  0.69047  0.21390  Biso   1.000  C
  C207     1.0000 0.32040  0.80953  0.71390  Biso   1.000  C
  C208     1.0000 0.67960  0.30953  0.78610  Biso   1.000  C
  H169     1.0000 0.67090  0.20290  0.32260  Biso   1.000  H
  H170     1.0000 0.32910  0.70290  0.17740  Biso   1.000  H
  H171     1.0000 0.32910  0.79710  0.67740  Biso   1.000  H
  H172     1.0000 0.67090  0.29710  0.82260  Biso   1.000  H
  C209     1.0000 0.66770  0.14490  0.27330  Biso   1.000  C
  C210     1.0000 0.33230  0.64490  0.22670  Biso   1.000  C
  C211     1.0000 0.33230  0.85510  0.72670  Biso   1.000  C
  C212     1.0000 0.66770  0.35510  0.77330  Biso   1.000  C
  H173     1.0000 0.65170  0.12770  0.30260  Biso   1.000  H
  H174     1.0000 0.34830  0.62770  0.19740  Biso   1.000  H
  H175     1.0000 0.34830  0.87230  0.69740  Biso   1.000  H
  H176     1.0000 0.65170  0.37230  0.80260  Biso   1.000  H
  C213     1.0000 0.71370  0.26661  0.25420  Biso   1.000  C
  C214     1.0000 0.28630  0.76661  0.24580  Biso   1.000  C
  C215     1.0000 0.28630  0.73339  0.74580  Biso   1.000  C
  C216     1.0000 0.71370  0.23339  0.75420  Biso   1.000  C
  C217     1.0000 0.68970  0.29520  0.19590  Biso   1.000  C
  C218     1.0000 0.31030  0.79520  0.30410  Biso   1.000  C
  C219     1.0000 0.31030  0.70480  0.80410  Biso   1.000  C
  C220     1.0000 0.68970  0.20480  0.69590  Biso   1.000  C
  H177     1.0000 0.67050  0.28290  0.15070  Biso   1.000  H
  H178     1.0000 0.32950  0.78290  0.34930  Biso   1.000  H
  H179     1.0000 0.32950  0.71710  0.84930  Biso   1.000  H
  H180     1.0000 0.67050  0.21710  0.65070  Biso   1.000  H
  C221     1.0000 0.69320  0.34173  0.20360  Biso   1.000  C
  C222     1.0000 0.30680  0.84173  0.29640  Biso   1.000  C
  C223     1.0000 0.30680  0.65827  0.79640  Biso   1.000  C
  C224     1.0000 0.69320  0.15827  0.70360  Biso   1.000  C
  H181     1.0000 0.67750  0.36010  0.16420  Biso   1.000  H
  H182     1.0000 0.32250  0.86010  0.33580  Biso   1.000  H
  H183     1.0000 0.32250  0.63990  0.83580  Biso   1.000  H
  H184     1.0000 0.67750  0.13990  0.66420  Biso   1.000  H
  C225     1.0000 0.72050  0.36007  0.27100  Biso   1.000  C
  C226     1.0000 0.27950  0.86007  0.22900  Biso   1.000  C
  C227     1.0000 0.27950  0.63993  0.72900  Biso   1.000  C
  C228     1.0000 0.72050  0.13993  0.77100  Biso   1.000  C
  C229     1.0000 0.74470  0.33217  0.32940  Biso   1.000  C
  C230     1.0000 0.25530  0.83217  0.17060  Biso   1.000  C
  C231     1.0000 0.25530  0.66783  0.67060  Biso   1.000  C
  C232     1.0000 0.74470  0.16783  0.82940  Biso   1.000  C
  H185     1.0000 0.76290  0.34430  0.37450  Biso   1.000  H
  H186     1.0000 0.23710  0.84430  0.12550  Biso   1.000  H
  H187     1.0000 0.23710  0.65570  0.62550  Biso   1.000  H
  H188     1.0000 0.76290  0.15570  0.87450  Biso   1.000  H
  C233     1.0000 0.74170  0.28616  0.32050  Biso   1.000  C
  C234     1.0000 0.25830  0.78616  0.17950  Biso   1.000  C
  C235     1.0000 0.25830  0.71384  0.67950  Biso   1.000  C
  C236     1.0000 0.74170  0.21384  0.82050  Biso   1.000  C
  H189     1.0000 0.75900  0.26770  0.36030  Biso   1.000  H
  H190     1.0000 0.24100  0.76770  0.13970  Biso   1.000  H
  H191     1.0000 0.24100  0.73230  0.63970  Biso   1.000  H
  H192     1.0000 0.75900  0.23230  0.86030  Biso   1.000  H
  C237     1.0000 0.72670  0.40992  0.28200  Biso   1.000  C
  C238     1.0000 0.27330  0.90992  0.21800  Biso   1.000  C
  C239     1.0000 0.27330  0.59008  0.71800  Biso   1.000  C
  C240     1.0000 0.72670  0.09008  0.78200  Biso   1.000  C
  C241     1.0000 0.85180  0.12780  0.65320  Biso   1.000  C
  C242     1.0000 0.14820  0.62780  0.84680  Biso   1.000  C
  C243     1.0000 0.14820  0.87220  0.34680  Biso   1.000  C
  C244     1.0000 0.85180  0.37220  0.15320  Biso   1.000  C
  H193     1.0000 0.88440  0.11420  0.69860  Biso   1.000  H
  H194     1.0000 0.11560  0.61420  0.80140  Biso   1.000  H
  H195     1.0000 0.11560  0.88580  0.30140  Biso   1.000  H
  H196     1.0000 0.88440  0.38580  0.19860  Biso   1.000  H
  C245     1.0000 0.87070  0.17290  0.64870  Biso   1.000  C
  C246     1.0000 0.12930  0.67290  0.85130  Biso   1.000  C
  C247     1.0000 0.12930  0.82710  0.35130  Biso   1.000  C
  C248     1.0000 0.87070  0.32710  0.14870  Biso   1.000  C
  H197     1.0000 0.91450  0.18870  0.69050  Biso   1.000  H
  H198     1.0000 0.08550  0.68870  0.80950  Biso   1.000  H
  H199     1.0000 0.08550  0.81130  0.30950  Biso   1.000  H
  H200     1.0000 0.91450  0.31130  0.19050  Biso   1.000  H
  C249     1.0000 0.82520  0.19461  0.58250  Biso   1.000  C
  C250     1.0000 0.17480  0.69461  0.91750  Biso   1.000  C
  C251     1.0000 0.17480  0.80539  0.41750  Biso   1.000  C
  C252     1.0000 0.82520  0.30539  0.08250  Biso   1.000  C
  C253     1.0000 0.76090  0.16837  0.52290  Biso   1.000  C
  C254     1.0000 0.23910  0.66837  0.97710  Biso   1.000  C
  C255     1.0000 0.23910  0.83163  0.47710  Biso   1.000  C
  C256     1.0000 0.76090  0.33163  0.02290  Biso   1.000  C
  H201     1.0000 0.72760  0.18090  0.47670  Biso   1.000  H
  H202     1.0000 0.27240  0.68090  0.02330  Biso   1.000  H
  H203     1.0000 0.27240  0.81910  0.52330  Biso   1.000  H
  H204     1.0000 0.72760  0.31910  0.97670  Biso   1.000  H
  C257     1.0000 0.74640  0.12390  0.53290  Biso   1.000  C
  C258     1.0000 0.25360  0.62390  0.96710  Biso   1.000  C
  C259     1.0000 0.25360  0.87610  0.46710  Biso   1.000  C
  C260     1.0000 0.74640  0.37610  0.03290  Biso   1.000  C
  H205     1.0000 0.70300  0.10730  0.49200  Biso   1.000  H
  H206     1.0000 0.29700  0.60730  0.00800  Biso   1.000  H
  H207     1.0000 0.29700  0.89270  0.50800  Biso   1.000  H
  H208     1.0000 0.70300  0.39270  0.99200  Biso   1.000  H
  C261     1.0000 0.84360  0.24322  0.57770  Biso   1.000  C
  C262     1.0000 0.15640  0.74322  0.92230  Biso   1.000  C
  C263     1.0000 0.15640  0.75678  0.42230  Biso   1.000  C
  C264     1.0000 0.84360  0.25678  0.07770  Biso   1.000  C
  C265     1.0000 0.93010  0.26440  0.63270  Biso   1.000  C
  C266     1.0000 0.06990  0.76440  0.86730  Biso   1.000  C
  C267     1.0000 0.06990  0.73560  0.36730  Biso   1.000  C
  C268     1.0000 0.93010  0.23560  0.13270  Biso   1.000  C
  H209     1.0000 0.97680  0.24770  0.67240  Biso   1.000  H
  H210     1.0000 0.02320  0.74770  0.82760  Biso   1.000  H
  H211     1.0000 0.02320  0.75230  0.32760  Biso   1.000  H
  H212     1.0000 0.97680  0.25230  0.17240  Biso   1.000  H
  C269     1.0000 0.94790  0.30977  0.62930  Biso   1.000  C
  C270     1.0000 0.05210  0.80977  0.87070  Biso   1.000  C
  C271     1.0000 0.05210  0.69023  0.37070  Biso   1.000  C
  C272     1.0000 0.94790  0.19023  0.12930  Biso   1.000  C
  H213     1.0000 0.00510  0.32310  0.66720  Biso   1.000  H
  H214     1.0000 0.99490  0.82310  0.83280  Biso   1.000  H
  H215     1.0000 0.99490  0.67690  0.33280  Biso   1.000  H
  H216     1.0000 0.00510  0.17690  0.16720  Biso   1.000  H
  C273     1.0000 0.88140  0.33514  0.56990  Biso   1.000  C
  C274     1.0000 0.11860  0.83514  0.93010  Biso   1.000  C
  C275     1.0000 0.11860  0.66486  0.43010  Biso   1.000  C
  C276     1.0000 0.88140  0.16486  0.06990  Biso   1.000  C
  C277     1.0000 0.79470  0.31465  0.51620  Biso   1.000  C
  C278     1.0000 0.20530  0.81465  0.98380  Biso   1.000  C
  C279     1.0000 0.20530  0.68535  0.48380  Biso   1.000  C
  C280     1.0000 0.79470  0.18535  0.01620  Biso   1.000  C
  H217     1.0000 0.74800  0.33140  0.47670  Biso   1.000  H
  H218     1.0000 0.25200  0.83140  0.02330  Biso   1.000  H
  H219     1.0000 0.25200  0.66860  0.52330  Biso   1.000  H
  H220     1.0000 0.74800  0.16860  0.97670  Biso   1.000  H
  C281     1.0000 0.77580  0.26974  0.52020  Biso   1.000  C
  C282     1.0000 0.22420  0.76974  0.97980  Biso   1.000  C
  C283     1.0000 0.22420  0.73026  0.47980  Biso   1.000  C
  C284     1.0000 0.77580  0.23026  0.02020  Biso   1.000  C
  H221     1.0000 0.71650  0.25700  0.48340  Biso   1.000  H
  H222     1.0000 0.28350  0.75700  0.01660  Biso   1.000  H
  H223     1.0000 0.28350  0.74300  0.51660  Biso   1.000  H
  H224     1.0000 0.71650  0.24300  0.98340  Biso   1.000  H
  C285     1.0000 0.90480  0.38361  0.56290  Biso   1.000  C
  C286     1.0000 0.09520  0.88361  0.93710  Biso   1.000  C
  C287     1.0000 0.09520  0.61639  0.43710  Biso   1.000  C
  C288     1.0000 0.90480  0.11639  0.06290  Biso   1.000  C
  C289     1.0000 0.04850  0.86990  0.54330  Biso   1.000  C
  C290     1.0000 0.95150  0.36990  0.95670  Biso   1.000  C
  C291     1.0000 0.95150  0.13010  0.45670  Biso   1.000  C
  C292     1.0000 0.04850  0.63010  0.04330  Biso   1.000  C
  H225     1.0000 0.08770  0.88320  0.52610  Biso   1.000  H
  H226     1.0000 0.91230  0.38320  0.97390  Biso   1.000  H
  H227     1.0000 0.91230  0.11680  0.47390  Biso   1.000  H
  H228     1.0000 0.08770  0.61680  0.02610  Biso   1.000  H
  C293     1.0000 0.04960  0.82380  0.54790  Biso   1.000  C
  C294     1.0000 0.95040  0.32380  0.95210  Biso   1.000  C
  C295     1.0000 0.95040  0.17620  0.45210  Biso   1.000  C
  C296     1.0000 0.04960  0.67620  0.04790  Biso   1.000  C
  H229     1.0000 0.08730  0.80690  0.53310  Biso   1.000  H
  H230     1.0000 0.91270  0.30690  0.96690  Biso   1.000  H
  H231     1.0000 0.91270  0.19310  0.46690  Biso   1.000  H
  H232     1.0000 0.08730  0.69310  0.03310  Biso   1.000  H
  C297     1.0000 0.99400  0.80330  0.57490  Biso   1.000  C
  C298     1.0000 0.00600  0.30330  0.92510  Biso   1.000  C
  C299     1.0000 0.00600  0.19670  0.42510  Biso   1.000  C
  C300     1.0000 0.99400  0.69670  0.07490  Biso   1.000  C
  C301     1.0000 0.93990  0.83070  0.59440  Biso   1.000  C
  C302     1.0000 0.06010  0.33070  0.90560  Biso   1.000  C
  C303     1.0000 0.06010  0.16930  0.40560  Biso   1.000  C
  C304     1.0000 0.93990  0.66930  0.09440  Biso   1.000  C
  H233     1.0000 0.90180  0.81850  0.61330  Biso   1.000  H
  H234     1.0000 0.09820  0.31850  0.88670  Biso   1.000  H
  H235     1.0000 0.09820  0.18150  0.38670  Biso   1.000  H
  H236     1.0000 0.90180  0.68150  0.11330  Biso   1.000  H
  C305     1.0000 0.94110  0.87640  0.58610  Biso   1.000  C
  C306     1.0000 0.05890  0.37640  0.91390  Biso   1.000  C
  C307     1.0000 0.05890  0.12360  0.41390  Biso   1.000  C
  C308     1.0000 0.94110  0.62360  0.08610  Biso   1.000  C
  H237     1.0000 0.90170  0.89410  0.59850  Biso   1.000  H
  H238     1.0000 0.09830  0.39410  0.90150  Biso   1.000  H
  H239     1.0000 0.09830  0.10590  0.40150  Biso   1.000  H
  H240     1.0000 0.90170  0.60590  0.09850  Biso   1.000  H
  C309     1.0000 0.99380  0.75372  0.58210  Biso   1.000  C
  C310     1.0000 0.00620  0.25372  0.91790  Biso   1.000  C
  C311     1.0000 0.00620  0.24628  0.41790  Biso   1.000  C
  C312     1.0000 0.99380  0.74628  0.08210  Biso   1.000  C
  C313     1.0000 0.99740  0.72580  0.53090  Biso   1.000  C
  C314     1.0000 0.00260  0.22580  0.96910  Biso   1.000  C
  C315     1.0000 0.00260  0.27420  0.46910  Biso   1.000  C
  C316     1.0000 0.99740  0.77420  0.03090  Biso   1.000  C
  H241     1.0000 0.99640  0.73820  0.49050  Biso   1.000  H
  H242     1.0000 0.00360  0.23820  0.00950  Biso   1.000  H
  H243     1.0000 0.00360  0.26180  0.50950  Biso   1.000  H
  H244     1.0000 0.99640  0.76180  0.99050  Biso   1.000  H
  C317     1.0000 0.00260  0.67961  0.53990  Biso   1.000  C
  C318     1.0000 0.99740  0.17961  0.96010  Biso   1.000  C
  C319     1.0000 0.99740  0.32039  0.46010  Biso   1.000  C
  C320     1.0000 0.00260  0.82039  0.03990  Biso   1.000  C
  H245     1.0000 0.00470  0.66140  0.50540  Biso   1.000  H
  H246     1.0000 0.99530  0.16140  0.99460  Biso   1.000  H
  H247     1.0000 0.99530  0.33860  0.49460  Biso   1.000  H
  H248     1.0000 0.00470  0.83860  0.00540  Biso   1.000  H
  C321     1.0000 0.00420  0.66067  0.59970  Biso   1.000  C
  C322     1.0000 0.99580  0.16067  0.90030  Biso   1.000  C
  C323     1.0000 0.99580  0.33933  0.40030  Biso   1.000  C
  C324     1.0000 0.00420  0.83933  0.09970  Biso   1.000  C
  C325     1.0000 0.99740  0.68811  0.64920  Biso   1.000  C
  C326     1.0000 0.00260  0.18811  0.85080  Biso   1.000  C
  C327     1.0000 0.00260  0.31189  0.35080  Biso   1.000  C
  C328     1.0000 0.99740  0.81189  0.14920  Biso   1.000  C
  H249     1.0000 0.99710  0.67550  0.68900  Biso   1.000  H
  H250     1.0000 0.00290  0.17550  0.81100  Biso   1.000  H
  H251     1.0000 0.00290  0.32450  0.31100  Biso   1.000  H
  H252     1.0000 0.99710  0.82450  0.18900  Biso   1.000  H
  C329     1.0000 0.99110  0.73444  0.64010  Biso   1.000  C
  C330     1.0000 0.00890  0.23444  0.85990  Biso   1.000  C
  C331     1.0000 0.00890  0.26556  0.35990  Biso   1.000  C
  C332     1.0000 0.99110  0.76556  0.14010  Biso   1.000  C
  H253     1.0000 0.98490  0.75240  0.67330  Biso   1.000  H
  H254     1.0000 0.01510  0.25240  0.82670  Biso   1.000  H
  H255     1.0000 0.01510  0.24760  0.32670  Biso   1.000  H
  H256     1.0000 0.98490  0.74760  0.17330  Biso   1.000  H
  C333     1.0000 0.02210  0.61101  0.61490  Biso   1.000  C
  C334     1.0000 0.97790  0.11101  0.88510  Biso   1.000  C
  C335     1.0000 0.97790  0.38899  0.38510  Biso   1.000  C
  C336     1.0000 0.02210  0.88899  0.11490  Biso   1.000  C
  C337     1.0000 0.06860  0.56300  0.27580  Biso   1.000  C
  C338     1.0000 0.93140  0.06300  0.22420  Biso   1.000  C
  C339     1.0000 0.93140  0.43700  0.72420  Biso   1.000  C
  C340     1.0000 0.06860  0.93700  0.77580  Biso   1.000  C
  H257     1.0000 0.07670  0.59010  0.29960  Biso   1.000  H
  H258     1.0000 0.92330  0.09010  0.20040  Biso   1.000  H
  H259     1.0000 0.92330  0.40990  0.70040  Biso   1.000  H
  H260     1.0000 0.07670  0.90990  0.79960  Biso   1.000  H
  C341     1.0000 0.10710  0.55930  0.22940  Biso   1.000  C
  C342     1.0000 0.89290  0.05930  0.27060  Biso   1.000  C
  C343     1.0000 0.89290  0.44070  0.77060  Biso   1.000  C
  C344     1.0000 0.10710  0.94070  0.72940  Biso   1.000  C
  H261     1.0000 0.13990  0.58360  0.22260  Biso   1.000  H
  H262     1.0000 0.86010  0.08360  0.27740  Biso   1.000  H
  H263     1.0000 0.86010  0.41640  0.77740  Biso   1.000  H
  H264     1.0000 0.13990  0.91640  0.72260  Biso   1.000  H
  C345     1.0000 0.09690  0.51946  0.19370  Biso   1.000  C
  C346     1.0000 0.90310  0.01946  0.30630  Biso   1.000  C
  C347     1.0000 0.90310  0.48054  0.80630  Biso   1.000  C
  C348     1.0000 0.09690  0.98054  0.69370  Biso   1.000  C
  C349     1.0000 0.04590  0.48534  0.20550  Biso   1.000  C
  C350     1.0000 0.95410  0.98534  0.29450  Biso   1.000  C
  C351     1.0000 0.95410  0.51466  0.79450  Biso   1.000  C
  C352     1.0000 0.04590  0.01466  0.70550  Biso   1.000  C
  H265     1.0000 0.03540  0.45820  0.18130  Biso   1.000  H
  H266     1.0000 0.96460  0.95820  0.31870  Biso   1.000  H
  H267     1.0000 0.96460  0.54180  0.81870  Biso   1.000  H
  H268     1.0000 0.03540  0.04180  0.68130  Biso   1.000  H
  C353     1.0000 0.00940  0.49122  0.25280  Biso   1.000  C
  C354     1.0000 0.99060  0.99122  0.24720  Biso   1.000  C
  C355     1.0000 0.99060  0.50878  0.74720  Biso   1.000  C
  C356     1.0000 0.00940  0.00878  0.75280  Biso   1.000  C
  H269     1.0000 0.97610  0.46760  0.26060  Biso   1.000  H
  H270     1.0000 0.02390  0.96760  0.23940  Biso   1.000  H
  H271     1.0000 0.02390  0.53240  0.73940  Biso   1.000  H
  H272     1.0000 0.97610  0.03240  0.76060  Biso   1.000  H
  C357     1.0000 0.14010  0.51356  0.14580  Biso   1.000  C
  C358     1.0000 0.85990  0.01356  0.35420  Biso   1.000  C
  C359     1.0000 0.85990  0.48644  0.85420  Biso   1.000  C
  C360     1.0000 0.14010  0.98644  0.64580  Biso   1.000  C
  C361     1.0000 0.09570  0.48391  0.08780  Biso   1.000  C
  C362     1.0000 0.90430  0.98391  0.41220  Biso   1.000  C
  C363     1.0000 0.90430  0.51609  0.91220  Biso   1.000  C
  C364     1.0000 0.09570  0.01609  0.58780  Biso   1.000  C
  H273     1.0000 0.03720  0.46840  0.07810  Biso   1.000  H
  H274     1.0000 0.96280  0.96840  0.42190  Biso   1.000  H
  H275     1.0000 0.96280  0.53160  0.92190  Biso   1.000  H
  H276     1.0000 0.03720  0.03160  0.57810  Biso   1.000  H
  C365     1.0000 0.13790  0.47751  0.04410  Biso   1.000  C
  C366     1.0000 0.86210  0.97751  0.45590  Biso   1.000  C
  C367     1.0000 0.86210  0.52249  0.95590  Biso   1.000  C
  C368     1.0000 0.13790  0.02249  0.54410  Biso   1.000  C
  H277     1.0000 0.10600  0.45870  0.00400  Biso   1.000  H
  H278     1.0000 0.89400  0.95870  0.49600  Biso   1.000  H
  H279     1.0000 0.89400  0.54130  0.99600  Biso   1.000  H
  H280     1.0000 0.10600  0.04130  0.50400  Biso   1.000  H
  C369     1.0000 0.22750  0.49922  0.05980  Biso   1.000  C
  C370     1.0000 0.77250  0.99922  0.44020  Biso   1.000  C
  C371     1.0000 0.77250  0.50078  0.94020  Biso   1.000  C
  C372     1.0000 0.22750  0.00078  0.55980  Biso   1.000  C
  C373     1.0000 0.27300  0.52925  0.11740  Biso   1.000  C
  C374     1.0000 0.72700  0.02925  0.38260  Biso   1.000  C
  C375     1.0000 0.72700  0.47075  0.88260  Biso   1.000  C
  C376     1.0000 0.27300  0.97075  0.61740  Biso   1.000  C
  H281     1.0000 0.33210  0.54430  0.12740  Biso   1.000  H
  H282     1.0000 0.66790  0.04430  0.37260  Biso   1.000  H
  H283     1.0000 0.66790  0.45570  0.87260  Biso   1.000  H
  H284     1.0000 0.33210  0.95570  0.62740  Biso   1.000  H
  C377     1.0000 0.22830  0.53621  0.15980  Biso   1.000  C
  C378     1.0000 0.77170  0.03621  0.34020  Biso   1.000  C
  C379     1.0000 0.77170  0.46379  0.84020  Biso   1.000  C
  C380     1.0000 0.22830  0.96379  0.65980  Biso   1.000  C
  H285     1.0000 0.25730  0.55660  0.19780  Biso   1.000  H
  H286     1.0000 0.74270  0.05660  0.30220  Biso   1.000  H
  H287     1.0000 0.74270  0.44340  0.80220  Biso   1.000  H
  H288     1.0000 0.25730  0.94340  0.69780  Biso   1.000  H
  C381     1.0000 0.27540  0.48809  0.01530  Biso   1.000  C
  C382     1.0000 0.72460  0.98809  0.48470  Biso   1.000  C
  C383     1.0000 0.72460  0.51191  0.98470  Biso   1.000  C
  C384     1.0000 0.27540  0.01191  0.51530  Biso   1.000  C
