data_image0
_cell_length_a       15.2175
_cell_length_b       29.825
_cell_length_c       21.3743
_cell_angle_alpha    90
_cell_angle_beta     120.124
_cell_angle_gamma    90

_symmetry_space_group_name_H-M    "P 1"
_symmetry_int_tables_number       1

loop_
  _symmetry_equiv_pos_as_xyz
  'x, y, z'

loop_
  _atom_site_label
  _atom_site_occupancy
  _atom_site_fract_x
  _atom_site_fract_y
  _atom_site_fract_z
  _atom_site_thermal_displace_type
  _atom_site_B_iso_or_equiv
  _atom_site_type_symbol
  Eu1      1.0000 0.37729  0.46400  0.93932  Biso   1.000  Eu
  Eu2      1.0000 0.62271  0.96400  0.56068  Biso   1.000  Eu
  Eu3      1.0000 0.62271  0.53600  0.06068  Biso   1.000  Eu
  Eu4      1.0000 0.37729  0.03600  0.43932  Biso   1.000  Eu
  Eu5      1.0000 0.13274  0.53143  0.56000  Biso   1.000  Eu
  Eu6      1.0000 0.86726  0.03143  0.94000  Biso   1.000  Eu
  Eu7      1.0000 0.86726  0.46857  0.44000  Biso   1.000  Eu
  Eu8      1.0000 0.13274  0.96857  0.06000  Biso   1.000  Eu
  Cu1      1.0000 0.52868  0.45891  0.13501  Biso   1.000  Cu
  Cu2      1.0000 0.47132  0.95891  0.36499  Biso   1.000  Cu
  Cu3      1.0000 0.47132  0.54109  0.86499  Biso   1.000  Cu
  Cu4      1.0000 0.52868  0.04109  0.63501  Biso   1.000  Cu
  Cu5      1.0000 0.24666  0.50249  0.75453  Biso   1.000  Cu
  Cu6      1.0000 0.75334  0.00249  0.74547  Biso   1.000  Cu
  Cu7      1.0000 0.75334  0.49751  0.24547  Biso   1.000  Cu
  Cu8      1.0000 0.24666  0.99751  0.25453  Biso   1.000  Cu
  Cu9      1.0000 0.01838  0.46424  0.63458  Biso   1.000  Cu
  Cu10     1.0000 0.98162  0.96424  0.86542  Biso   1.000  Cu
  Cu11     1.0000 0.98162  0.53576  0.36542  Biso   1.000  Cu
  Cu12     1.0000 0.01838  0.03576  0.13458  Biso   1.000  Cu
  O1       1.0000 0.27970  0.52515  0.54097  Biso   1.000  O
  O2       1.0000 0.72030  0.02515  0.95903  Biso   1.000  O
  O3       1.0000 0.72030  0.47485  0.45903  Biso   1.000  O
  O4       1.0000 0.27970  0.97485  0.04097  Biso   1.000  O
  O5       1.0000 0.13604  0.49410  0.45800  Biso   1.000  O
  O6       1.0000 0.86396  0.99410  0.04200  Biso   1.000  O
  O7       1.0000 0.86396  0.50590  0.54200  Biso   1.000  O
  O8       1.0000 0.13604  0.00590  0.95800  Biso   1.000  O
  O9       1.0000 0.48350  0.41207  0.92643  Biso   1.000  O
  O10      1.0000 0.51650  0.91207  0.57357  Biso   1.000  O
  O11      1.0000 0.51650  0.58793  0.07357  Biso   1.000  O
  O12      1.0000 0.48350  0.08793  0.42643  Biso   1.000  O
  O13      1.0000 0.45900  0.40728  0.81433  Biso   1.000  O
  O14      1.0000 0.54100  0.90728  0.68567  Biso   1.000  O
  O15      1.0000 0.54100  0.59272  0.18567  Biso   1.000  O
  O16      1.0000 0.45900  0.09272  0.31433  Biso   1.000  O
  O17      1.0000 0.48630  0.39631  0.11909  Biso   1.000  O
  O18      1.0000 0.51370  0.89631  0.38091  Biso   1.000  O
  O19      1.0000 0.51370  0.60369  0.88091  Biso   1.000  O
  O20      1.0000 0.48630  0.10369  0.61909  Biso   1.000  O
  O21      1.0000 0.36940  0.39707  0.00127  Biso   1.000  O
  O22      1.0000 0.63060  0.89707  0.49873  Biso   1.000  O
  O23      1.0000 0.63060  0.60293  0.99873  Biso   1.000  O
  O24      1.0000 0.36940  0.10293  0.50127  Biso   1.000  O
  O25      1.0000 0.21079  0.43861  0.72894  Biso   1.000  O
  O26      1.0000 0.78921  0.93861  0.77106  Biso   1.000  O
  O27      1.0000 0.78921  0.56139  0.27106  Biso   1.000  O
  O28      1.0000 0.21079  0.06139  0.22894  Biso   1.000  O
  O29      1.0000 0.25290  0.41950  0.84165  Biso   1.000  O
  O30      1.0000 0.74710  0.91950  0.65835  Biso   1.000  O
  O31      1.0000 0.74710  0.58050  0.15835  Biso   1.000  O
  O32      1.0000 0.25290  0.08050  0.34165  Biso   1.000  O
  O33      1.0000 0.71320  0.43419  0.22853  Biso   1.000  O
  O34      1.0000 0.28680  0.93419  0.27147  Biso   1.000  O
  O35      1.0000 0.28680  0.56581  0.77147  Biso   1.000  O
  O36      1.0000 0.71320  0.06581  0.72853  Biso   1.000  O
  O37      1.0000 0.74456  0.42507  0.34142  Biso   1.000  O
  O38      1.0000 0.25544  0.92507  0.15858  Biso   1.000  O
  O39      1.0000 0.25544  0.57493  0.65858  Biso   1.000  O
  O40      1.0000 0.74456  0.07493  0.84142  Biso   1.000  O
  O41      1.0000 0.97610  0.40117  0.61990  Biso   1.000  O
  O42      1.0000 0.02390  0.90117  0.88010  Biso   1.000  O
  O43      1.0000 0.02390  0.59883  0.38010  Biso   1.000  O
  O44      1.0000 0.97610  0.09883  0.11990  Biso   1.000  O
  O45      1.0000 0.85340  0.40222  0.50323  Biso   1.000  O
  O46      1.0000 0.14660  0.90222  0.99677  Biso   1.000  O
  O47      1.0000 0.14660  0.59778  0.49677  Biso   1.000  O
  O48      1.0000 0.85340  0.09778  0.00323  Biso   1.000  O
  O49      1.0000 0.02660  0.58820  0.56612  Biso   1.000  O
  O50      1.0000 0.97340  0.08820  0.93388  Biso   1.000  O
  O51      1.0000 0.97340  0.41180  0.43388  Biso   1.000  O
  O52      1.0000 0.02660  0.91180  0.06612  Biso   1.000  O
  O53      1.0000 0.03360  0.59585  0.67215  Biso   1.000  O
  O54      1.0000 0.96640  0.09585  0.82785  Biso   1.000  O
  O55      1.0000 0.96640  0.40415  0.32785  Biso   1.000  O
  O56      1.0000 0.03360  0.90415  0.17215  Biso   1.000  O
  O57      1.0000 0.22520  0.46665  0.95718  Biso   1.000  O
  O58      1.0000 0.77480  0.96665  0.54282  Biso   1.000  O
  O59      1.0000 0.77480  0.53335  0.04282  Biso   1.000  O
  O60      1.0000 0.22520  0.03335  0.45718  Biso   1.000  O
  O61      1.0000 0.36680  0.49954  0.03870  Biso   1.000  O
  O62      1.0000 0.63320  0.99954  0.46130  Biso   1.000  O
  O63      1.0000 0.63320  0.50046  0.96130  Biso   1.000  O
  O64      1.0000 0.36680  0.00046  0.53870  Biso   1.000  O
  O65      1.0000 0.54342  0.46391  0.04938  Biso   1.000  O
  O66      1.0000 0.45658  0.96391  0.45062  Biso   1.000  O
  O67      1.0000 0.45658  0.53609  0.95062  Biso   1.000  O
  O68      1.0000 0.54342  0.03609  0.54938  Biso   1.000  O
  H1       1.0000 0.57160  0.44270  0.04530  Biso   1.000  H
  H2       1.0000 0.42840  0.94270  0.45470  Biso   1.000  H
  H3       1.0000 0.42840  0.55730  0.95470  Biso   1.000  H
  H4       1.0000 0.57160  0.05730  0.54530  Biso   1.000  H
  O69      1.0000 0.38490  0.48738  0.83109  Biso   1.000  O
  O70      1.0000 0.61510  0.98738  0.66891  Biso   1.000  O
  O71      1.0000 0.61510  0.51262  0.16891  Biso   1.000  O
  O72      1.0000 0.38490  0.01262  0.33109  Biso   1.000  O
  H5       1.0000 0.41030  0.46890  0.81110  Biso   1.000  H
  H6       1.0000 0.58970  0.96890  0.68890  Biso   1.000  H
  H7       1.0000 0.58970  0.53110  0.18890  Biso   1.000  H
  H8       1.0000 0.41030  0.03110  0.31110  Biso   1.000  H
  O73      1.0000 0.11528  0.51471  0.66970  Biso   1.000  O
  O74      1.0000 0.88472  0.01471  0.83030  Biso   1.000  O
  O75      1.0000 0.88472  0.48529  0.33030  Biso   1.000  O
  O76      1.0000 0.11528  0.98529  0.16970  Biso   1.000  O
  H9       1.0000 0.09550  0.53460  0.67360  Biso   1.000  H
  H10      1.0000 0.90450  0.03460  0.82640  Biso   1.000  H
  H11      1.0000 0.90450  0.46540  0.32640  Biso   1.000  H
  H12      1.0000 0.09550  0.96540  0.17360  Biso   1.000  H
  O77      1.0000 0.03235  0.46568  0.54930  Biso   1.000  O
  O78      1.0000 0.96765  0.96568  0.95070  Biso   1.000  O
  O79      1.0000 0.96765  0.53432  0.45070  Biso   1.000  O
  O80      1.0000 0.03235  0.03432  0.04930  Biso   1.000  O
  H13      1.0000 0.04950  0.44650  0.54760  Biso   1.000  H
  H14      1.0000 0.95050  0.94650  0.95240  Biso   1.000  H
  H15      1.0000 0.95050  0.55350  0.45240  Biso   1.000  H
  H16      1.0000 0.04950  0.05350  0.04760  Biso   1.000  H
  O81      1.0000 0.22810  0.51715  0.85745  Biso   1.000  O
  O82      1.0000 0.77190  0.01715  0.64255  Biso   1.000  O
  O83      1.0000 0.77190  0.48285  0.14255  Biso   1.000  O
  O84      1.0000 0.22810  0.98285  0.35745  Biso   1.000  O
  H17      1.0000 0.23490  0.54160  0.87130  Biso   1.000  H
  H18      1.0000 0.76510  0.04160  0.62870  Biso   1.000  H
  H19      1.0000 0.76510  0.45840  0.12870  Biso   1.000  H
  H20      1.0000 0.23490  0.95840  0.37130  Biso   1.000  H
  H21      1.0000 0.17720  0.50550  0.86090  Biso   1.000  H
  H22      1.0000 0.82280  0.00550  0.63910  Biso   1.000  H
  H23      1.0000 0.82280  0.49450  0.13910  Biso   1.000  H
  H24      1.0000 0.17720  0.99450  0.36090  Biso   1.000  H
  O85      1.0000 0.24900  0.46919  0.62806  Biso   1.000  O
  O86      1.0000 0.75100  0.96919  0.87194  Biso   1.000  O
  O87      1.0000 0.75100  0.53081  0.37194  Biso   1.000  O
  O88      1.0000 0.24900  0.03081  0.12806  Biso   1.000  O
  H25      1.0000 0.26910  0.45730  0.60290  Biso   1.000  H
  H26      1.0000 0.73090  0.95730  0.89710  Biso   1.000  H
  H27      1.0000 0.73090  0.54270  0.39710  Biso   1.000  H
  H28      1.0000 0.26910  0.04270  0.10290  Biso   1.000  H
  H29      1.0000 0.25270  0.45050  0.65910  Biso   1.000  H
  H30      1.0000 0.74730  0.95050  0.84090  Biso   1.000  H
  H31      1.0000 0.74730  0.54950  0.34090  Biso   1.000  H
  H32      1.0000 0.25270  0.04950  0.15910  Biso   1.000  H
  N1       1.0000 0.48390  0.46126  0.20873  Biso   1.000  N
  N2       1.0000 0.51610  0.96126  0.29127  Biso   1.000  N
  N3       1.0000 0.51610  0.53874  0.79127  Biso   1.000  N
  N4       1.0000 0.48390  0.03874  0.70873  Biso   1.000  N
  N5       1.0000 0.51840  0.10363  0.93060  Biso   1.000  N
  N6       1.0000 0.48160  0.60363  0.56940  Biso   1.000  N
  N7       1.0000 0.48160  0.89637  0.06940  Biso   1.000  N
  N8       1.0000 0.51840  0.39637  0.43060  Biso   1.000  N
  N9       1.0000 0.32880  0.09523  0.08040  Biso   1.000  N
  N10      1.0000 0.67120  0.59523  0.41960  Biso   1.000  N
  N11      1.0000 0.67120  0.90477  0.91960  Biso   1.000  N
  N12      1.0000 0.32880  0.40477  0.58040  Biso   1.000  N
  N13      1.0000 0.14800  0.12790  0.67520  Biso   1.000  N
  N14      1.0000 0.85200  0.62790  0.82480  Biso   1.000  N
  N15      1.0000 0.85200  0.87210  0.32480  Biso   1.000  N
  N16      1.0000 0.14800  0.37210  0.17520  Biso   1.000  N
  N17      1.0000 0.67820  0.12410  0.22300  Biso   1.000  N
  N18      1.0000 0.32180  0.62410  0.27700  Biso   1.000  N
  N19      1.0000 0.32180  0.87590  0.77700  Biso   1.000  N
  N20      1.0000 0.67820  0.37590  0.72300  Biso   1.000  N
  N21      1.0000 0.79130  0.10288  0.59730  Biso   1.000  N
  N22      1.0000 0.20870  0.60288  0.90270  Biso   1.000  N
  N23      1.0000 0.20870  0.89712  0.40270  Biso   1.000  N
  N24      1.0000 0.79130  0.39712  0.09730  Biso   1.000  N
  N25      1.0000 0.99540  0.89679  0.56140  Biso   1.000  N
  N26      1.0000 0.00460  0.39679  0.93860  Biso   1.000  N
  N27      1.0000 0.00460  0.10321  0.43860  Biso   1.000  N
  N28      1.0000 0.99540  0.60321  0.06140  Biso   1.000  N
  N29      1.0000 0.02090  0.53041  0.28857  Biso   1.000  N
  N30      1.0000 0.97910  0.03041  0.21143  Biso   1.000  N
  N31      1.0000 0.97910  0.46959  0.71143  Biso   1.000  N
  N32      1.0000 0.02090  0.96959  0.78857  Biso   1.000  N
  C1       1.0000 0.53300  0.48502  0.26960  Biso   1.000  C
  C2       1.0000 0.46700  0.98502  0.23040  Biso   1.000  C
  C3       1.0000 0.46700  0.51498  0.73040  Biso   1.000  C
  C4       1.0000 0.53300  0.01498  0.76960  Biso   1.000  C
  H33      1.0000 0.59410  0.49870  0.28060  Biso   1.000  H
  H34      1.0000 0.40590  0.99870  0.21940  Biso   1.000  H
  H35      1.0000 0.40590  0.50130  0.71940  Biso   1.000  H
  H36      1.0000 0.59410  0.00130  0.78060  Biso   1.000  H
  C5       1.0000 0.49790  0.49008  0.31780  Biso   1.000  C
  C6       1.0000 0.50210  0.99008  0.18220  Biso   1.000  C
  C7       1.0000 0.50210  0.50992  0.68220  Biso   1.000  C
  C8       1.0000 0.49790  0.00992  0.81780  Biso   1.000  C
  H37      1.0000 0.53590  0.50640  0.36030  Biso   1.000  H
  H38      1.0000 0.46410  0.00640  0.13970  Biso   1.000  H
  H39      1.0000 0.46410  0.49360  0.63970  Biso   1.000  H
  H40      1.0000 0.53590  0.99360  0.86030  Biso   1.000  H
  C9       1.0000 0.40640  0.47098  0.30310  Biso   1.000  C
  C10      1.0000 0.59360  0.97098  0.19690  Biso   1.000  C
  C11      1.0000 0.59360  0.52902  0.69690  Biso   1.000  C
  C12      1.0000 0.40640  0.02902  0.80310  Biso   1.000  C
  C13      1.0000 0.35740  0.44477  0.24070  Biso   1.000  C
  C14      1.0000 0.64260  0.94477  0.25930  Biso   1.000  C
  C15      1.0000 0.64260  0.55523  0.75930  Biso   1.000  C
  C16      1.0000 0.35740  0.05523  0.74070  Biso   1.000  C
  H41      1.0000 0.29730  0.43010  0.22920  Biso   1.000  H
  H42      1.0000 0.70270  0.93010  0.27080  Biso   1.000  H
  H43      1.0000 0.70270  0.56990  0.77080  Biso   1.000  H
  H44      1.0000 0.29730  0.06990  0.72920  Biso   1.000  H
  C17      1.0000 0.39870  0.44051  0.19660  Biso   1.000  C
  C18      1.0000 0.60130  0.94051  0.30340  Biso   1.000  C
  C19      1.0000 0.60130  0.55949  0.80340  Biso   1.000  C
  C20      1.0000 0.39870  0.05949  0.69660  Biso   1.000  C
  H45      1.0000 0.36550  0.42210  0.15600  Biso   1.000  H
  H46      1.0000 0.63450  0.92210  0.34400  Biso   1.000  H
  H47      1.0000 0.63450  0.57790  0.84400  Biso   1.000  H
  H48      1.0000 0.36550  0.07790  0.65600  Biso   1.000  H
  C21      1.0000 0.36210  0.47879  0.34990  Biso   1.000  C
  C22      1.0000 0.63790  0.97879  0.15010  Biso   1.000  C
  C23      1.0000 0.63790  0.52121  0.65010  Biso   1.000  C
  C24      1.0000 0.36210  0.02121  0.84990  Biso   1.000  C
  C25      1.0000 0.39950  0.51260  0.40210  Biso   1.000  C
  C26      1.0000 0.60050  0.01260  0.09790  Biso   1.000  C
  C27      1.0000 0.60050  0.48740  0.59790  Biso   1.000  C
  C28      1.0000 0.39950  0.98740  0.90210  Biso   1.000  C
  H49      1.0000 0.45340  0.53030  0.40790  Biso   1.000  H
  H50      1.0000 0.54660  0.03030  0.09210  Biso   1.000  H
  H51      1.0000 0.54660  0.46970  0.59210  Biso   1.000  H
  H52      1.0000 0.45340  0.96970  0.90790  Biso   1.000  H
  C29      1.0000 0.35800  0.52036  0.44590  Biso   1.000  C
  C30      1.0000 0.64200  0.02036  0.05410  Biso   1.000  C
  C31      1.0000 0.64200  0.47964  0.55410  Biso   1.000  C
  C32      1.0000 0.35800  0.97964  0.94590  Biso   1.000  C
  H53      1.0000 0.38520  0.54240  0.48160  Biso   1.000  H
  H54      1.0000 0.61480  0.04240  0.01840  Biso   1.000  H
  H55      1.0000 0.61480  0.45760  0.51840  Biso   1.000  H
  H56      1.0000 0.38520  0.95760  0.98160  Biso   1.000  H
  C33      1.0000 0.27600  0.49500  0.43660  Biso   1.000  C
  C34      1.0000 0.72400  0.99500  0.06340  Biso   1.000  C
  C35      1.0000 0.72400  0.50500  0.56340  Biso   1.000  C
  C36      1.0000 0.27600  0.00500  0.93660  Biso   1.000  C
  C37      1.0000 0.23810  0.46133  0.38520  Biso   1.000  C
  C38      1.0000 0.76190  0.96133  0.11480  Biso   1.000  C
  C39      1.0000 0.76190  0.53867  0.61480  Biso   1.000  C
  C40      1.0000 0.23810  0.03867  0.88520  Biso   1.000  C
  H57      1.0000 0.18240  0.44460  0.37840  Biso   1.000  H
  H58      1.0000 0.81760  0.94460  0.12160  Biso   1.000  H
  H59      1.0000 0.81760  0.55540  0.62160  Biso   1.000  H
  H60      1.0000 0.18240  0.05540  0.87840  Biso   1.000  H
  C41      1.0000 0.28170  0.45311  0.34330  Biso   1.000  C
  C42      1.0000 0.71830  0.95311  0.15670  Biso   1.000  C
  C43      1.0000 0.71830  0.54689  0.65670  Biso   1.000  C
  C44      1.0000 0.28170  0.04689  0.84330  Biso   1.000  C
  H61      1.0000 0.25700  0.42980  0.30970  Biso   1.000  H
  H62      1.0000 0.74300  0.92980  0.19030  Biso   1.000  H
  H63      1.0000 0.74300  0.57020  0.69030  Biso   1.000  H
  H64      1.0000 0.25700  0.07020  0.80970  Biso   1.000  H
  C45      1.0000 0.22850  0.50509  0.48130  Biso   1.000  C
  C46      1.0000 0.77150  0.00509  0.01870  Biso   1.000  C
  C47      1.0000 0.77150  0.49491  0.51870  Biso   1.000  C
  C48      1.0000 0.22850  0.99491  0.98130  Biso   1.000  C
  C49      1.0000 0.55030  0.12384  0.88990  Biso   1.000  C
  C50      1.0000 0.44970  0.62384  0.61010  Biso   1.000  C
  C51      1.0000 0.44970  0.87616  0.11010  Biso   1.000  C
  C52      1.0000 0.55030  0.37616  0.38990  Biso   1.000  C
  H65      1.0000 0.57930  0.10610  0.86910  Biso   1.000  H
  H66      1.0000 0.42070  0.60610  0.63090  Biso   1.000  H
  H67      1.0000 0.42070  0.89390  0.13090  Biso   1.000  H
  H68      1.0000 0.57930  0.39390  0.36910  Biso   1.000  H
  C53      1.0000 0.54000  0.16951  0.87530  Biso   1.000  C
  C54      1.0000 0.46000  0.66951  0.62470  Biso   1.000  C
  C55      1.0000 0.46000  0.83049  0.12470  Biso   1.000  C
  C56      1.0000 0.54000  0.33049  0.37530  Biso   1.000  C
  H69      1.0000 0.56210  0.18190  0.84560  Biso   1.000  H
  H70      1.0000 0.43790  0.68190  0.65440  Biso   1.000  H
  H71      1.0000 0.43790  0.81810  0.15440  Biso   1.000  H
  H72      1.0000 0.56210  0.31810  0.34560  Biso   1.000  H
  C57      1.0000 0.49880  0.19701  0.90650  Biso   1.000  C
  C58      1.0000 0.50120  0.69701  0.59350  Biso   1.000  C
  C59      1.0000 0.50120  0.80299  0.09350  Biso   1.000  C
  C60      1.0000 0.49880  0.30299  0.40650  Biso   1.000  C
  C61      1.0000 0.46500  0.17613  0.94860  Biso   1.000  C
  C62      1.0000 0.53500  0.67613  0.55140  Biso   1.000  C
  C63      1.0000 0.53500  0.82387  0.05140  Biso   1.000  C
  C64      1.0000 0.46500  0.32387  0.44860  Biso   1.000  C
  H73      1.0000 0.43460  0.19260  0.96960  Biso   1.000  H
  H74      1.0000 0.56540  0.69260  0.53040  Biso   1.000  H
  H75      1.0000 0.56540  0.80740  0.03040  Biso   1.000  H
  H76      1.0000 0.43460  0.30740  0.46960  Biso   1.000  H
  C65      1.0000 0.47560  0.12998  0.95790  Biso   1.000  C
  C66      1.0000 0.52440  0.62998  0.54210  Biso   1.000  C
  C67      1.0000 0.52440  0.87002  0.04210  Biso   1.000  C
  C68      1.0000 0.47560  0.37002  0.45790  Biso   1.000  C
  H77      1.0000 0.45130  0.11640  0.98550  Biso   1.000  H
  H78      1.0000 0.54870  0.61640  0.51450  Biso   1.000  H
  H79      1.0000 0.54870  0.88360  0.01450  Biso   1.000  H
  H80      1.0000 0.45130  0.38360  0.48550  Biso   1.000  H
  C69      1.0000 0.49390  0.24643  0.89740  Biso   1.000  C
  C70      1.0000 0.50610  0.74643  0.60260  Biso   1.000  C
  C71      1.0000 0.50610  0.75357  0.10260  Biso   1.000  C
  C72      1.0000 0.49390  0.25357  0.39740  Biso   1.000  C
  C73      1.0000 0.47750  0.26628  0.83330  Biso   1.000  C
  C74      1.0000 0.52250  0.76628  0.66670  Biso   1.000  C
  C75      1.0000 0.52250  0.73372  0.16670  Biso   1.000  C
  C76      1.0000 0.47750  0.23372  0.33330  Biso   1.000  C
  H81      1.0000 0.47000  0.24820  0.79530  Biso   1.000  H
  H82      1.0000 0.53000  0.74820  0.70470  Biso   1.000  H
  H83      1.0000 0.53000  0.75180  0.20470  Biso   1.000  H
  H84      1.0000 0.47000  0.25180  0.29530  Biso   1.000  H
  C77      1.0000 0.47290  0.31226  0.82480  Biso   1.000  C
  C78      1.0000 0.52710  0.81226  0.67520  Biso   1.000  C
  C79      1.0000 0.52710  0.68774  0.17520  Biso   1.000  C
  C80      1.0000 0.47290  0.18774  0.32480  Biso   1.000  C
  H85      1.0000 0.46150  0.32510  0.78150  Biso   1.000  H
  H86      1.0000 0.53850  0.82510  0.71850  Biso   1.000  H
  H87      1.0000 0.53850  0.67490  0.21850  Biso   1.000  H
  H88      1.0000 0.46150  0.17490  0.28150  Biso   1.000  H
  C81      1.0000 0.48650  0.33995  0.88190  Biso   1.000  C
  C82      1.0000 0.51350  0.83995  0.61810  Biso   1.000  C
  C83      1.0000 0.51350  0.66005  0.11810  Biso   1.000  C
  C84      1.0000 0.48650  0.16005  0.38190  Biso   1.000  C
  C85      1.0000 0.50290  0.32062  0.94590  Biso   1.000  C
  C86      1.0000 0.49710  0.82062  0.55410  Biso   1.000  C
  C87      1.0000 0.49710  0.67938  0.05410  Biso   1.000  C
  C88      1.0000 0.50290  0.17938  0.44590  Biso   1.000  C
  H89      1.0000 0.51220  0.33880  0.98410  Biso   1.000  H
  H90      1.0000 0.48780  0.83880  0.51590  Biso   1.000  H
  H91      1.0000 0.48780  0.66120  0.01590  Biso   1.000  H
  H92      1.0000 0.51220  0.16120  0.48410  Biso   1.000  H
  C89      1.0000 0.50690  0.27423  0.95350  Biso   1.000  C
  C90      1.0000 0.49310  0.77423  0.54650  Biso   1.000  C
  C91      1.0000 0.49310  0.72577  0.04650  Biso   1.000  C
  C92      1.0000 0.50690  0.22577  0.45350  Biso   1.000  C
  H93      1.0000 0.51770  0.26170  0.99680  Biso   1.000  H
  H94      1.0000 0.48230  0.76170  0.50320  Biso   1.000  H
  H95      1.0000 0.48230  0.73830  0.00320  Biso   1.000  H
  H96      1.0000 0.51770  0.23830  0.49680  Biso   1.000  H
  C93      1.0000 0.47600  0.39066  0.87250  Biso   1.000  C
  C94      1.0000 0.52400  0.89066  0.62750  Biso   1.000  C
  C95      1.0000 0.52400  0.60934  0.12750  Biso   1.000  C
  C96      1.0000 0.47600  0.10934  0.37250  Biso   1.000  C
  C97      1.0000 0.41540  0.11607  0.12630  Biso   1.000  C
  C98      1.0000 0.58460  0.61607  0.37370  Biso   1.000  C
  C99      1.0000 0.58460  0.88393  0.87370  Biso   1.000  C
  C100     1.0000 0.41540  0.38393  0.62630  Biso   1.000  C
  H97      1.0000 0.46890  0.09940  0.16140  Biso   1.000  H
  H98      1.0000 0.53110  0.59940  0.33860  Biso   1.000  H
  H99      1.0000 0.53110  0.90060  0.83860  Biso   1.000  H
  H100     1.0000 0.46890  0.40060  0.66140  Biso   1.000  H
  C101     1.0000 0.42950  0.16198  0.12420  Biso   1.000  C
  C102     1.0000 0.57050  0.66198  0.37580  Biso   1.000  C
  C103     1.0000 0.57050  0.83802  0.87580  Biso   1.000  C
  C104     1.0000 0.42950  0.33802  0.62420  Biso   1.000  C
  H101     1.0000 0.49150  0.17510  0.15610  Biso   1.000  H
  H102     1.0000 0.50850  0.67510  0.34390  Biso   1.000  H
  H103     1.0000 0.50850  0.82490  0.84390  Biso   1.000  H
  H104     1.0000 0.49150  0.32490  0.65610  Biso   1.000  H
  C105     1.0000 0.35010  0.18835  0.07430  Biso   1.000  C
  C106     1.0000 0.64990  0.68835  0.42570  Biso   1.000  C
  C107     1.0000 0.64990  0.81165  0.92570  Biso   1.000  C
  C108     1.0000 0.35010  0.31165  0.57430  Biso   1.000  C
  C109     1.0000 0.26170  0.16660  0.02630  Biso   1.000  C
  C110     1.0000 0.73830  0.66660  0.47370  Biso   1.000  C
  C111     1.0000 0.73830  0.83340  0.97370  Biso   1.000  C
  C112     1.0000 0.26170  0.33340  0.52630  Biso   1.000  C
  H105     1.0000 0.20680  0.18280  0.99100  Biso   1.000  H
  H106     1.0000 0.79320  0.68280  0.50900  Biso   1.000  H
  H107     1.0000 0.79320  0.81720  0.00900  Biso   1.000  H
  H108     1.0000 0.20680  0.31720  0.49100  Biso   1.000  H
  C113     1.0000 0.25410  0.12067  0.03120  Biso   1.000  C
  C114     1.0000 0.74590  0.62067  0.46880  Biso   1.000  C
  C115     1.0000 0.74590  0.87933  0.96880  Biso   1.000  C
  C116     1.0000 0.25410  0.37933  0.53120  Biso   1.000  C
  H109     1.0000 0.19410  0.10670  0.99770  Biso   1.000  H
  H110     1.0000 0.80590  0.60670  0.50230  Biso   1.000  H
  H111     1.0000 0.80590  0.89330  0.00230  Biso   1.000  H
  H112     1.0000 0.19410  0.39330  0.49770  Biso   1.000  H
  C117     1.0000 0.36200  0.23767  0.07200  Biso   1.000  C
  C118     1.0000 0.63800  0.73767  0.42800  Biso   1.000  C
  C119     1.0000 0.63800  0.76233  0.92800  Biso   1.000  C
  C120     1.0000 0.36200  0.26233  0.57200  Biso   1.000  C
  C121     1.0000 0.30860  0.26176  0.00840  Biso   1.000  C
  C122     1.0000 0.69140  0.76176  0.49160  Biso   1.000  C
  C123     1.0000 0.69140  0.73824  0.99160  Biso   1.000  C
  C124     1.0000 0.30860  0.23824  0.50840  Biso   1.000  C
  H113     1.0000 0.26080  0.24720  0.96650  Biso   1.000  H
  H114     1.0000 0.73920  0.74720  0.53350  Biso   1.000  H
  H115     1.0000 0.73920  0.75280  0.03350  Biso   1.000  H
  H116     1.0000 0.26080  0.25280  0.46650  Biso   1.000  H
  C125     1.0000 0.32600  0.30691  0.00650  Biso   1.000  C
  C126     1.0000 0.67400  0.80691  0.49350  Biso   1.000  C
  C127     1.0000 0.67400  0.69309  0.99350  Biso   1.000  C
  C128     1.0000 0.32600  0.19309  0.50650  Biso   1.000  C
  H117     1.0000 0.28870  0.32240  0.96310  Biso   1.000  H
  H118     1.0000 0.71130  0.82240  0.53690  Biso   1.000  H
  H119     1.0000 0.71130  0.67760  0.03690  Biso   1.000  H
  H120     1.0000 0.28870  0.17760  0.46310  Biso   1.000  H
  C129     1.0000 0.39490  0.33017  0.06680  Biso   1.000  C
  C130     1.0000 0.60510  0.83017  0.43320  Biso   1.000  C
  C131     1.0000 0.60510  0.66983  0.93320  Biso   1.000  C
  C132     1.0000 0.39490  0.16983  0.56680  Biso   1.000  C
  C133     1.0000 0.44480  0.30714  0.13190  Biso   1.000  C
  C134     1.0000 0.55520  0.80714  0.36810  Biso   1.000  C
  C135     1.0000 0.55520  0.69286  0.86810  Biso   1.000  C
  C136     1.0000 0.44480  0.19286  0.63190  Biso   1.000  C
  H121     1.0000 0.48890  0.32230  0.17430  Biso   1.000  H
  H122     1.0000 0.51110  0.82230  0.32570  Biso   1.000  H
  H123     1.0000 0.51110  0.67770  0.82570  Biso   1.000  H
  H124     1.0000 0.48890  0.17770  0.67430  Biso   1.000  H
  C137     1.0000 0.42920  0.26116  0.13390  Biso   1.000  C
  C138     1.0000 0.57080  0.76116  0.36610  Biso   1.000  C
  C139     1.0000 0.57080  0.73884  0.86610  Biso   1.000  C
  C140     1.0000 0.42920  0.23884  0.63390  Biso   1.000  C
  H125     1.0000 0.46370  0.24600  0.17780  Biso   1.000  H
  H126     1.0000 0.53630  0.74600  0.32220  Biso   1.000  H
  H127     1.0000 0.53630  0.75400  0.82220  Biso   1.000  H
  H128     1.0000 0.46370  0.25400  0.67780  Biso   1.000  H
  C141     1.0000 0.41750  0.37855  0.06110  Biso   1.000  C
  C142     1.0000 0.58250  0.87855  0.43890  Biso   1.000  C
  C143     1.0000 0.58250  0.62145  0.93890  Biso   1.000  C
  C144     1.0000 0.41750  0.12145  0.56110  Biso   1.000  C
  C145     1.0000 0.13750  0.14689  0.72690  Biso   1.000  C
  C146     1.0000 0.86250  0.64689  0.77310  Biso   1.000  C
  C147     1.0000 0.86250  0.85311  0.27310  Biso   1.000  C
  C148     1.0000 0.13750  0.35311  0.22690  Biso   1.000  C
  H129     1.0000 0.11490  0.12900  0.75170  Biso   1.000  H
  H130     1.0000 0.88510  0.62900  0.74830  Biso   1.000  H
  H131     1.0000 0.88510  0.87100  0.24830  Biso   1.000  H
  H132     1.0000 0.11490  0.37100  0.25170  Biso   1.000  H
  C149     1.0000 0.15700  0.19148  0.74660  Biso   1.000  C
  C150     1.0000 0.84300  0.69148  0.75340  Biso   1.000  C
  C151     1.0000 0.84300  0.80852  0.25340  Biso   1.000  C
  C152     1.0000 0.15700  0.30852  0.24660  Biso   1.000  C
  H133     1.0000 0.14970  0.20230  0.78470  Biso   1.000  H
  H134     1.0000 0.85030  0.70230  0.71530  Biso   1.000  H
  H135     1.0000 0.85030  0.79770  0.21530  Biso   1.000  H
  H136     1.0000 0.14970  0.29770  0.28470  Biso   1.000  H
  C153     1.0000 0.18820  0.21981  0.70960  Biso   1.000  C
  C154     1.0000 0.81180  0.71981  0.79040  Biso   1.000  C
  C155     1.0000 0.81180  0.78019  0.29040  Biso   1.000  C
  C156     1.0000 0.18820  0.28019  0.20960  Biso   1.000  C
  C157     1.0000 0.19870  0.20079  0.65490  Biso   1.000  C
  C158     1.0000 0.80130  0.70079  0.84510  Biso   1.000  C
  C159     1.0000 0.80130  0.79921  0.34510  Biso   1.000  C
  C160     1.0000 0.19870  0.29921  0.15490  Biso   1.000  C
  H137     1.0000 0.21960  0.21780  0.62820  Biso   1.000  H
  H138     1.0000 0.78040  0.71780  0.87180  Biso   1.000  H
  H139     1.0000 0.78040  0.78220  0.37180  Biso   1.000  H
  H140     1.0000 0.21960  0.28220  0.12820  Biso   1.000  H
  C161     1.0000 0.17640  0.15505  0.63950  Biso   1.000  C
  C162     1.0000 0.82360  0.65505  0.86050  Biso   1.000  C
  C163     1.0000 0.82360  0.84495  0.36050  Biso   1.000  C
  C164     1.0000 0.17640  0.34495  0.13950  Biso   1.000  C
  H141     1.0000 0.18270  0.14290  0.60170  Biso   1.000  H
  H142     1.0000 0.81730  0.64290  0.89830  Biso   1.000  H
  H143     1.0000 0.81730  0.85710  0.39830  Biso   1.000  H
  H144     1.0000 0.18270  0.35710  0.10170  Biso   1.000  H
  C165     1.0000 0.20360  0.26877  0.72720  Biso   1.000  C
  C166     1.0000 0.79640  0.76877  0.77280  Biso   1.000  C
  C167     1.0000 0.79640  0.73123  0.27280  Biso   1.000  C
  C168     1.0000 0.20360  0.23123  0.22720  Biso   1.000  C
  C169     1.0000 0.22080  0.28406  0.79320  Biso   1.000  C
  C170     1.0000 0.77920  0.78406  0.70680  Biso   1.000  C
  C171     1.0000 0.77920  0.71594  0.20680  Biso   1.000  C
  C172     1.0000 0.22080  0.21594  0.29320  Biso   1.000  C
  H145     1.0000 0.22680  0.26370  0.82810  Biso   1.000  H
  H146     1.0000 0.77320  0.76370  0.67190  Biso   1.000  H
  H147     1.0000 0.77320  0.73630  0.17190  Biso   1.000  H
  H148     1.0000 0.22680  0.23630  0.32810  Biso   1.000  H
  C173     1.0000 0.22840  0.32942  0.80870  Biso   1.000  C
  C174     1.0000 0.77160  0.82942  0.69130  Biso   1.000  C
  C175     1.0000 0.77160  0.67058  0.19130  Biso   1.000  C
  C176     1.0000 0.22840  0.17058  0.30870  Biso   1.000  C
  H149     1.0000 0.23980  0.33910  0.85370  Biso   1.000  H
  H150     1.0000 0.76020  0.83910  0.64630  Biso   1.000  H
  H151     1.0000 0.76020  0.66090  0.14630  Biso   1.000  H
  H152     1.0000 0.23980  0.16090  0.35370  Biso   1.000  H
  C177     1.0000 0.21900  0.36078  0.75790  Biso   1.000  C
  C178     1.0000 0.78100  0.86078  0.74210  Biso   1.000  C
  C179     1.0000 0.78100  0.63922  0.24210  Biso   1.000  C
  C180     1.0000 0.21900  0.13922  0.25790  Biso   1.000  C
  C181     1.0000 0.20540  0.34581  0.69170  Biso   1.000  C
  C182     1.0000 0.79460  0.84581  0.80830  Biso   1.000  C
  C183     1.0000 0.79460  0.65419  0.30830  Biso   1.000  C
  C184     1.0000 0.20540  0.15419  0.19170  Biso   1.000  C
  H153     1.0000 0.20180  0.36630  0.65750  Biso   1.000  H
  H154     1.0000 0.79820  0.86630  0.84250  Biso   1.000  H
  H155     1.0000 0.79820  0.63370  0.34250  Biso   1.000  H
  H156     1.0000 0.20180  0.13370  0.15750  Biso   1.000  H
  C185     1.0000 0.19810  0.30037  0.67680  Biso   1.000  C
  C186     1.0000 0.80190  0.80037  0.82320  Biso   1.000  C
  C187     1.0000 0.80190  0.69963  0.32320  Biso   1.000  C
  C188     1.0000 0.19810  0.19963  0.17680  Biso   1.000  C
  H157     1.0000 0.18900  0.29080  0.63230  Biso   1.000  H
  H158     1.0000 0.81100  0.79080  0.86770  Biso   1.000  H
  H159     1.0000 0.81100  0.70920  0.36770  Biso   1.000  H
  H160     1.0000 0.18900  0.20920  0.13230  Biso   1.000  H
  C189     1.0000 0.22850  0.40959  0.77810  Biso   1.000  C
  C190     1.0000 0.77150  0.90959  0.72190  Biso   1.000  C
  C191     1.0000 0.77150  0.59041  0.22190  Biso   1.000  C
  C192     1.0000 0.22850  0.09041  0.27810  Biso   1.000  C
  C193     1.0000 0.70280  0.14974  0.18300  Biso   1.000  C
  C194     1.0000 0.29720  0.64974  0.31700  Biso   1.000  C
  C195     1.0000 0.29720  0.85026  0.81700  Biso   1.000  C
  C196     1.0000 0.70280  0.35026  0.68300  Biso   1.000  C
  H161     1.0000 0.71030  0.13600  0.14680  Biso   1.000  H
  H162     1.0000 0.28970  0.63600  0.35320  Biso   1.000  H
  H163     1.0000 0.28970  0.86400  0.85320  Biso   1.000  H
  H164     1.0000 0.71030  0.36400  0.64680  Biso   1.000  H
  C197     1.0000 0.71740  0.19607  0.19200  Biso   1.000  C
  C198     1.0000 0.28260  0.69607  0.30800  Biso   1.000  C
  C199     1.0000 0.28260  0.80393  0.80800  Biso   1.000  C
  C200     1.0000 0.71740  0.30393  0.69200  Biso   1.000  C
  H165     1.0000 0.73560  0.21230  0.16300  Biso   1.000  H
  H166     1.0000 0.26440  0.71230  0.33700  Biso   1.000  H
  H167     1.0000 0.26440  0.78770  0.83700  Biso   1.000  H
  H168     1.0000 0.73560  0.28770  0.66300  Biso   1.000  H
  C201     1.0000 0.70540  0.21759  0.24450  Biso   1.000  C
  C202     1.0000 0.29460  0.71759  0.25550  Biso   1.000  C
  C203     1.0000 0.29460  0.78241  0.75550  Biso   1.000  C
  C204     1.0000 0.70540  0.28241  0.74450  Biso   1.000  C
  C205     1.0000 0.68030  0.19067  0.28650  Biso   1.000  C
  C206     1.0000 0.31970  0.69067  0.21350  Biso   1.000  C
  C207     1.0000 0.31970  0.80933  0.71350  Biso   1.000  C
  C208     1.0000 0.68030  0.30933  0.78650  Biso   1.000  C
  H169     1.0000 0.67160  0.20320  0.32300  Biso   1.000  H
  H170     1.0000 0.32840  0.70320  0.17700  Biso   1.000  H
  H171     1.0000 0.32840  0.79680  0.67700  Biso   1.000  H
  H172     1.0000 0.67160  0.29680  0.82300  Biso   1.000  H
  C209     1.0000 0.66730  0.14505  0.27370  Biso   1.000  C
  C210     1.0000 0.33270  0.64505  0.22630  Biso   1.000  C
  C211     1.0000 0.33270  0.85495  0.72630  Biso   1.000  C
  C212     1.0000 0.66730  0.35495  0.77370  Biso   1.000  C
  H173     1.0000 0.65130  0.12790  0.30300  Biso   1.000  H
  H174     1.0000 0.34870  0.62790  0.19700  Biso   1.000  H
  H175     1.0000 0.34870  0.87210  0.69700  Biso   1.000  H
  H176     1.0000 0.65130  0.37210  0.80300  Biso   1.000  H
  C213     1.0000 0.71370  0.26708  0.25430  Biso   1.000  C
  C214     1.0000 0.28630  0.76708  0.24570  Biso   1.000  C
  C215     1.0000 0.28630  0.73292  0.74570  Biso   1.000  C
  C216     1.0000 0.71370  0.23292  0.75430  Biso   1.000  C
  C217     1.0000 0.69090  0.29546  0.19600  Biso   1.000  C
  C218     1.0000 0.30910  0.79546  0.30400  Biso   1.000  C
  C219     1.0000 0.30910  0.70454  0.80400  Biso   1.000  C
  C220     1.0000 0.69090  0.20454  0.69600  Biso   1.000  C
  H177     1.0000 0.67170  0.28310  0.15080  Biso   1.000  H
  H178     1.0000 0.32830  0.78310  0.34920  Biso   1.000  H
  H179     1.0000 0.32830  0.71690  0.84920  Biso   1.000  H
  H180     1.0000 0.67170  0.21690  0.65080  Biso   1.000  H
  C221     1.0000 0.69350  0.34136  0.20410  Biso   1.000  C
  C222     1.0000 0.30650  0.84136  0.29590  Biso   1.000  C
  C223     1.0000 0.30650  0.65864  0.79590  Biso   1.000  C
  C224     1.0000 0.69350  0.15864  0.70410  Biso   1.000  C
  H181     1.0000 0.67780  0.35980  0.16470  Biso   1.000  H
  H182     1.0000 0.32220  0.85980  0.33530  Biso   1.000  H
  H183     1.0000 0.32220  0.64020  0.83530  Biso   1.000  H
  H184     1.0000 0.67780  0.14020  0.66470  Biso   1.000  H
  C225     1.0000 0.71990  0.36039  0.27080  Biso   1.000  C
  C226     1.0000 0.28010  0.86039  0.22920  Biso   1.000  C
  C227     1.0000 0.28010  0.63961  0.72920  Biso   1.000  C
  C228     1.0000 0.71990  0.13961  0.77080  Biso   1.000  C
  C229     1.0000 0.74500  0.33244  0.32900  Biso   1.000  C
  C230     1.0000 0.25500  0.83244  0.17100  Biso   1.000  C
  C231     1.0000 0.25500  0.66756  0.67100  Biso   1.000  C
  C232     1.0000 0.74500  0.16756  0.82900  Biso   1.000  C
  H185     1.0000 0.76320  0.34450  0.37410  Biso   1.000  H
  H186     1.0000 0.23680  0.84450  0.12590  Biso   1.000  H
  H187     1.0000 0.23680  0.65550  0.62590  Biso   1.000  H
  H188     1.0000 0.76320  0.15550  0.87410  Biso   1.000  H
  C233     1.0000 0.74190  0.28622  0.32130  Biso   1.000  C
  C234     1.0000 0.25810  0.78622  0.17870  Biso   1.000  C
  C235     1.0000 0.25810  0.71378  0.67870  Biso   1.000  C
  C236     1.0000 0.74190  0.21378  0.82130  Biso   1.000  C
  H189     1.0000 0.75920  0.26780  0.36110  Biso   1.000  H
  H190     1.0000 0.24080  0.76780  0.13890  Biso   1.000  H
  H191     1.0000 0.24080  0.73220  0.63890  Biso   1.000  H
  H192     1.0000 0.75920  0.23220  0.86110  Biso   1.000  H
  C237     1.0000 0.72610  0.40979  0.28090  Biso   1.000  C
  C238     1.0000 0.27390  0.90979  0.21910  Biso   1.000  C
  C239     1.0000 0.27390  0.59021  0.71910  Biso   1.000  C
  C240     1.0000 0.72610  0.09021  0.78090  Biso   1.000  C
  C241     1.0000 0.85230  0.12774  0.65460  Biso   1.000  C
  C242     1.0000 0.14770  0.62774  0.84540  Biso   1.000  C
  C243     1.0000 0.14770  0.87226  0.34540  Biso   1.000  C
  C244     1.0000 0.85230  0.37226  0.15460  Biso   1.000  C
  H193     1.0000 0.88490  0.11410  0.70000  Biso   1.000  H
  H194     1.0000 0.11510  0.61410  0.80000  Biso   1.000  H
  H195     1.0000 0.11510  0.88590  0.30000  Biso   1.000  H
  H196     1.0000 0.88490  0.38590  0.20000  Biso   1.000  H
  C245     1.0000 0.87110  0.17300  0.64910  Biso   1.000  C
  C246     1.0000 0.12890  0.67300  0.85090  Biso   1.000  C
  C247     1.0000 0.12890  0.82700  0.35090  Biso   1.000  C
  C248     1.0000 0.87110  0.32700  0.14910  Biso   1.000  C
  H197     1.0000 0.91490  0.18880  0.69090  Biso   1.000  H
  H198     1.0000 0.08510  0.68880  0.80910  Biso   1.000  H
  H199     1.0000 0.08510  0.81120  0.30910  Biso   1.000  H
  H200     1.0000 0.91490  0.31120  0.19090  Biso   1.000  H
  C249     1.0000 0.82560  0.19484  0.58310  Biso   1.000  C
  C250     1.0000 0.17440  0.69484  0.91690  Biso   1.000  C
  C251     1.0000 0.17440  0.80516  0.41690  Biso   1.000  C
  C252     1.0000 0.82560  0.30516  0.08310  Biso   1.000  C
  C253     1.0000 0.76200  0.16827  0.52390  Biso   1.000  C
  C254     1.0000 0.23800  0.66827  0.97610  Biso   1.000  C
  C255     1.0000 0.23800  0.83173  0.47610  Biso   1.000  C
  C256     1.0000 0.76200  0.33173  0.02390  Biso   1.000  C
  H201     1.0000 0.72870  0.18080  0.47770  Biso   1.000  H
  H202     1.0000 0.27130  0.68080  0.02230  Biso   1.000  H
  H203     1.0000 0.27130  0.81920  0.52230  Biso   1.000  H
  H204     1.0000 0.72870  0.31920  0.97770  Biso   1.000  H
  C257     1.0000 0.74640  0.12352  0.53250  Biso   1.000  C
  C258     1.0000 0.25360  0.62352  0.96750  Biso   1.000  C
  C259     1.0000 0.25360  0.87648  0.46750  Biso   1.000  C
  C260     1.0000 0.74640  0.37648  0.03250  Biso   1.000  C
  H205     1.0000 0.70300  0.10690  0.49170  Biso   1.000  H
  H206     1.0000 0.29700  0.60690  0.00830  Biso   1.000  H
  H207     1.0000 0.29700  0.89310  0.50830  Biso   1.000  H
  H208     1.0000 0.70300  0.39310  0.99170  Biso   1.000  H
  C261     1.0000 0.84430  0.24332  0.57810  Biso   1.000  C
  C262     1.0000 0.15570  0.74332  0.92190  Biso   1.000  C
  C263     1.0000 0.15570  0.75668  0.42190  Biso   1.000  C
  C264     1.0000 0.84430  0.25668  0.07810  Biso   1.000  C
  C265     1.0000 0.92980  0.26425  0.63320  Biso   1.000  C
  C266     1.0000 0.07020  0.76425  0.86680  Biso   1.000  C
  C267     1.0000 0.07020  0.73575  0.36680  Biso   1.000  C
  C268     1.0000 0.92980  0.23575  0.13320  Biso   1.000  C
  H209     1.0000 0.97650  0.24760  0.67290  Biso   1.000  H
  H210     1.0000 0.02350  0.74760  0.82710  Biso   1.000  H
  H211     1.0000 0.02350  0.75240  0.32710  Biso   1.000  H
  H212     1.0000 0.97650  0.25240  0.17290  Biso   1.000  H
  C269     1.0000 0.94750  0.30977  0.62940  Biso   1.000  C
  C270     1.0000 0.05250  0.80977  0.87060  Biso   1.000  C
  C271     1.0000 0.05250  0.69023  0.37060  Biso   1.000  C
  C272     1.0000 0.94750  0.19023  0.12940  Biso   1.000  C
  H213     1.0000 0.00470  0.32310  0.66730  Biso   1.000  H
  H214     1.0000 0.99530  0.82310  0.83270  Biso   1.000  H
  H215     1.0000 0.99530  0.67690  0.33270  Biso   1.000  H
  H216     1.0000 0.00470  0.17690  0.16730  Biso   1.000  H
  C273     1.0000 0.88100  0.33518  0.56990  Biso   1.000  C
  C274     1.0000 0.11900  0.83518  0.93010  Biso   1.000  C
  C275     1.0000 0.11900  0.66482  0.43010  Biso   1.000  C
  C276     1.0000 0.88100  0.16482  0.06990  Biso   1.000  C
  C277     1.0000 0.79430  0.31472  0.51570  Biso   1.000  C
  C278     1.0000 0.20570  0.81472  0.98430  Biso   1.000  C
  C279     1.0000 0.20570  0.68528  0.48430  Biso   1.000  C
  C280     1.0000 0.79430  0.18528  0.01570  Biso   1.000  C
  H217     1.0000 0.74760  0.33150  0.47610  Biso   1.000  H
  H218     1.0000 0.25240  0.83150  0.02390  Biso   1.000  H
  H219     1.0000 0.25240  0.66850  0.52390  Biso   1.000  H
  H220     1.0000 0.74760  0.16850  0.97610  Biso   1.000  H
  C281     1.0000 0.77560  0.26950  0.51970  Biso   1.000  C
  C282     1.0000 0.22440  0.76950  0.98030  Biso   1.000  C
  C283     1.0000 0.22440  0.73050  0.48030  Biso   1.000  C
  C284     1.0000 0.77560  0.23050  0.01970  Biso   1.000  C
  H221     1.0000 0.71630  0.25680  0.48290  Biso   1.000  H
  H222     1.0000 0.28370  0.75680  0.01710  Biso   1.000  H
  H223     1.0000 0.28370  0.74320  0.51710  Biso   1.000  H
  H224     1.0000 0.71630  0.24320  0.98290  Biso   1.000  H
  C285     1.0000 0.90430  0.38337  0.56300  Biso   1.000  C
  C286     1.0000 0.09570  0.88337  0.93700  Biso   1.000  C
  C287     1.0000 0.09570  0.61663  0.43700  Biso   1.000  C
  C288     1.0000 0.90430  0.11663  0.06300  Biso   1.000  C
  C289     1.0000 0.04960  0.87004  0.54310  Biso   1.000  C
  C290     1.0000 0.95040  0.37004  0.95690  Biso   1.000  C
  C291     1.0000 0.95040  0.12996  0.45690  Biso   1.000  C
  C292     1.0000 0.04960  0.62996  0.04310  Biso   1.000  C
  H225     1.0000 0.08880  0.88330  0.52590  Biso   1.000  H
  H226     1.0000 0.91120  0.38330  0.97410  Biso   1.000  H
  H227     1.0000 0.91120  0.11670  0.47410  Biso   1.000  H
  H228     1.0000 0.08880  0.61670  0.02590  Biso   1.000  H
  C293     1.0000 0.05030  0.82361  0.54850  Biso   1.000  C
  C294     1.0000 0.94970  0.32361  0.95150  Biso   1.000  C
  C295     1.0000 0.94970  0.17639  0.45150  Biso   1.000  C
  C296     1.0000 0.05030  0.67639  0.04850  Biso   1.000  C
  H229     1.0000 0.08800  0.80670  0.53370  Biso   1.000  H
  H230     1.0000 0.91200  0.30670  0.96630  Biso   1.000  H
  H231     1.0000 0.91200  0.19330  0.46630  Biso   1.000  H
  H232     1.0000 0.08800  0.69330  0.03370  Biso   1.000  H
  C297     1.0000 0.99380  0.80359  0.57460  Biso   1.000  C
  C298     1.0000 0.00620  0.30359  0.92540  Biso   1.000  C
  C299     1.0000 0.00620  0.19641  0.42540  Biso   1.000  C
  C300     1.0000 0.99380  0.69641  0.07460  Biso   1.000  C
  C301     1.0000 0.93980  0.83110  0.59400  Biso   1.000  C
  C302     1.0000 0.06020  0.33110  0.90600  Biso   1.000  C
  C303     1.0000 0.06020  0.16890  0.40600  Biso   1.000  C
  C304     1.0000 0.93980  0.66890  0.09400  Biso   1.000  C
  H233     1.0000 0.90170  0.81890  0.61290  Biso   1.000  H
  H234     1.0000 0.09830  0.31890  0.88710  Biso   1.000  H
  H235     1.0000 0.09830  0.18110  0.38710  Biso   1.000  H
  H236     1.0000 0.90170  0.68110  0.11290  Biso   1.000  H
  C305     1.0000 0.94080  0.87680  0.58580  Biso   1.000  C
  C306     1.0000 0.05920  0.37680  0.91420  Biso   1.000  C
  C307     1.0000 0.05920  0.12320  0.41420  Biso   1.000  C
  C308     1.0000 0.94080  0.62320  0.08580  Biso   1.000  C
  H237     1.0000 0.90140  0.89450  0.59820  Biso   1.000  H
  H238     1.0000 0.09860  0.39450  0.90180  Biso   1.000  H
  H239     1.0000 0.09860  0.10550  0.40180  Biso   1.000  H
  H240     1.0000 0.90140  0.60550  0.09820  Biso   1.000  H
  C309     1.0000 0.99340  0.75381  0.58140  Biso   1.000  C
  C310     1.0000 0.00660  0.25381  0.91860  Biso   1.000  C
  C311     1.0000 0.00660  0.24619  0.41860  Biso   1.000  C
  C312     1.0000 0.99340  0.74619  0.08140  Biso   1.000  C
  C313     1.0000 0.99720  0.72577  0.53100  Biso   1.000  C
  C314     1.0000 0.00280  0.22577  0.96900  Biso   1.000  C
  C315     1.0000 0.00280  0.27423  0.46900  Biso   1.000  C
  C316     1.0000 0.99720  0.77423  0.03100  Biso   1.000  C
  H241     1.0000 0.99620  0.73810  0.49060  Biso   1.000  H
  H242     1.0000 0.00380  0.23810  0.00940  Biso   1.000  H
  H243     1.0000 0.00380  0.26190  0.50940  Biso   1.000  H
  H244     1.0000 0.99620  0.76190  0.99060  Biso   1.000  H
  C317     1.0000 0.00280  0.67965  0.54010  Biso   1.000  C
  C318     1.0000 0.99720  0.17965  0.95990  Biso   1.000  C
  C319     1.0000 0.99720  0.32035  0.45990  Biso   1.000  C
  C320     1.0000 0.00280  0.82035  0.04010  Biso   1.000  C
  H245     1.0000 0.00490  0.66140  0.50560  Biso   1.000  H
  H246     1.0000 0.99510  0.16140  0.99440  Biso   1.000  H
  H247     1.0000 0.99510  0.33860  0.49440  Biso   1.000  H
  H248     1.0000 0.00490  0.83860  0.00560  Biso   1.000  H
  C321     1.0000 0.00410  0.66106  0.59990  Biso   1.000  C
  C322     1.0000 0.99590  0.16106  0.90010  Biso   1.000  C
  C323     1.0000 0.99590  0.33894  0.40010  Biso   1.000  C
  C324     1.0000 0.00410  0.83894  0.09990  Biso   1.000  C
  C325     1.0000 0.99640  0.68850  0.64910  Biso   1.000  C
  C326     1.0000 0.00360  0.18850  0.85090  Biso   1.000  C
  C327     1.0000 0.00360  0.31150  0.35090  Biso   1.000  C
  C328     1.0000 0.99640  0.81150  0.14910  Biso   1.000  C
  H249     1.0000 0.99610  0.67590  0.68890  Biso   1.000  H
  H250     1.0000 0.00390  0.17590  0.81110  Biso   1.000  H
  H251     1.0000 0.00390  0.32410  0.31110  Biso   1.000  H
  H252     1.0000 0.99610  0.82410  0.18890  Biso   1.000  H
  C329     1.0000 0.99110  0.73450  0.63990  Biso   1.000  C
  C330     1.0000 0.00890  0.23450  0.86010  Biso   1.000  C
  C331     1.0000 0.00890  0.26550  0.36010  Biso   1.000  C
  C332     1.0000 0.99110  0.76550  0.13990  Biso   1.000  C
  H253     1.0000 0.98490  0.75250  0.67310  Biso   1.000  H
  H254     1.0000 0.01510  0.25250  0.82690  Biso   1.000  H
  H255     1.0000 0.01510  0.24750  0.32690  Biso   1.000  H
  H256     1.0000 0.98490  0.74750  0.17310  Biso   1.000  H
  C333     1.0000 0.02220  0.61121  0.61490  Biso   1.000  C
  C334     1.0000 0.97780  0.11121  0.88510  Biso   1.000  C
  C335     1.0000 0.97780  0.38879  0.38510  Biso   1.000  C
  C336     1.0000 0.02220  0.88879  0.11490  Biso   1.000  C
  C337     1.0000 0.06770  0.56333  0.27530  Biso   1.000  C
  C338     1.0000 0.93230  0.06333  0.22470  Biso   1.000  C
  C339     1.0000 0.93230  0.43667  0.72470  Biso   1.000  C
  C340     1.0000 0.06770  0.93667  0.77530  Biso   1.000  C
  H257     1.0000 0.07580  0.59040  0.29910  Biso   1.000  H
  H258     1.0000 0.92420  0.09040  0.20090  Biso   1.000  H
  H259     1.0000 0.92420  0.40960  0.70090  Biso   1.000  H
  H260     1.0000 0.07580  0.90960  0.79910  Biso   1.000  H
  C341     1.0000 0.10640  0.55946  0.22910  Biso   1.000  C
  C342     1.0000 0.89360  0.05946  0.27090  Biso   1.000  C
  C343     1.0000 0.89360  0.44054  0.77090  Biso   1.000  C
  C344     1.0000 0.10640  0.94054  0.72910  Biso   1.000  C
  H261     1.0000 0.13920  0.58380  0.22230  Biso   1.000  H
  H262     1.0000 0.86080  0.08380  0.27770  Biso   1.000  H
  H263     1.0000 0.86080  0.41620  0.77770  Biso   1.000  H
  H264     1.0000 0.13920  0.91620  0.72230  Biso   1.000  H
  C345     1.0000 0.09690  0.51956  0.19350  Biso   1.000  C
  C346     1.0000 0.90310  0.01956  0.30650  Biso   1.000  C
  C347     1.0000 0.90310  0.48044  0.80650  Biso   1.000  C
  C348     1.0000 0.09690  0.98044  0.69350  Biso   1.000  C
  C349     1.0000 0.04670  0.48517  0.20640  Biso   1.000  C
  C350     1.0000 0.95330  0.98517  0.29360  Biso   1.000  C
  C351     1.0000 0.95330  0.51483  0.79360  Biso   1.000  C
  C352     1.0000 0.04670  0.01483  0.70640  Biso   1.000  C
  H265     1.0000 0.03620  0.45800  0.18220  Biso   1.000  H
  H266     1.0000 0.96380  0.95800  0.31780  Biso   1.000  H
  H267     1.0000 0.96380  0.54200  0.81780  Biso   1.000  H
  H268     1.0000 0.03620  0.04200  0.68220  Biso   1.000  H
  C353     1.0000 0.01080  0.49145  0.25390  Biso   1.000  C
  C354     1.0000 0.98920  0.99145  0.24610  Biso   1.000  C
  C355     1.0000 0.98920  0.50855  0.74610  Biso   1.000  C
  C356     1.0000 0.01080  0.00855  0.75390  Biso   1.000  C
  H269     1.0000 0.97750  0.46780  0.26170  Biso   1.000  H
  H270     1.0000 0.02250  0.96780  0.23830  Biso   1.000  H
  H271     1.0000 0.02250  0.53220  0.73830  Biso   1.000  H
  H272     1.0000 0.97750  0.03220  0.76170  Biso   1.000  H
  C357     1.0000 0.14050  0.51364  0.14630  Biso   1.000  C
  C358     1.0000 0.85950  0.01364  0.35370  Biso   1.000  C
  C359     1.0000 0.85950  0.48636  0.85370  Biso   1.000  C
  C360     1.0000 0.14050  0.98636  0.64630  Biso   1.000  C
  C361     1.0000 0.09550  0.48413  0.08790  Biso   1.000  C
  C362     1.0000 0.90450  0.98413  0.41210  Biso   1.000  C
  C363     1.0000 0.90450  0.51587  0.91210  Biso   1.000  C
  C364     1.0000 0.09550  0.01587  0.58790  Biso   1.000  C
  H273     1.0000 0.03690  0.46860  0.07820  Biso   1.000  H
  H274     1.0000 0.96310  0.96860  0.42180  Biso   1.000  H
  H275     1.0000 0.96310  0.53140  0.92180  Biso   1.000  H
  H276     1.0000 0.03690  0.03140  0.57820  Biso   1.000  H
  C365     1.0000 0.13780  0.47751  0.04470  Biso   1.000  C
  C366     1.0000 0.86220  0.97751  0.45530  Biso   1.000  C
  C367     1.0000 0.86220  0.52249  0.95530  Biso   1.000  C
  C368     1.0000 0.13780  0.02249  0.54470  Biso   1.000  C
  H277     1.0000 0.10590  0.45870  0.00460  Biso   1.000  H
  H278     1.0000 0.89410  0.95870  0.49540  Biso   1.000  H
  H279     1.0000 0.89410  0.54130  0.99540  Biso   1.000  H
  H280     1.0000 0.10590  0.04130  0.50460  Biso   1.000  H
  C369     1.0000 0.22710  0.49955  0.05980  Biso   1.000  C
  C370     1.0000 0.77290  0.99955  0.44020  Biso   1.000  C
  C371     1.0000 0.77290  0.50045  0.94020  Biso   1.000  C
  C372     1.0000 0.22710  0.00045  0.55980  Biso   1.000  C
  C373     1.0000 0.27190  0.52923  0.11730  Biso   1.000  C
  C374     1.0000 0.72810  0.02923  0.38270  Biso   1.000  C
  C375     1.0000 0.72810  0.47077  0.88270  Biso   1.000  C
  C376     1.0000 0.27190  0.97077  0.61730  Biso   1.000  C
  H281     1.0000 0.33100  0.54430  0.12730  Biso   1.000  H
  H282     1.0000 0.66900  0.04430  0.37270  Biso   1.000  H
  H283     1.0000 0.66900  0.45570  0.87270  Biso   1.000  H
  H284     1.0000 0.33100  0.95570  0.62730  Biso   1.000  H
  C377     1.0000 0.22860  0.53632  0.16020  Biso   1.000  C
  C378     1.0000 0.77140  0.03632  0.33980  Biso   1.000  C
  C379     1.0000 0.77140  0.46368  0.83980  Biso   1.000  C
  C380     1.0000 0.22860  0.96368  0.66020  Biso   1.000  C
  H285     1.0000 0.25770  0.55670  0.19820  Biso   1.000  H
  H286     1.0000 0.74230  0.05670  0.30180  Biso   1.000  H
  H287     1.0000 0.74230  0.44330  0.80180  Biso   1.000  H
  H288     1.0000 0.25770  0.94330  0.69820  Biso   1.000  H
  C381     1.0000 0.27460  0.48810  0.01570  Biso   1.000  C
  C382     1.0000 0.72540  0.98810  0.48430  Biso   1.000  C
  C383     1.0000 0.72540  0.51190  0.98430  Biso   1.000  C
  C384     1.0000 0.27460  0.01190  0.51570  Biso   1.000  C
