data_image0
_cell_length_a       15.166
_cell_length_b       29.955
_cell_length_c       21.596
_cell_angle_alpha    90
_cell_angle_beta     120.309
_cell_angle_gamma    90

_symmetry_space_group_name_H-M    "P 1"
_symmetry_int_tables_number       1

loop_
  _symmetry_equiv_pos_as_xyz
  'x, y, z'

loop_
  _atom_site_label
  _atom_site_occupancy
  _atom_site_fract_x
  _atom_site_fract_y
  _atom_site_fract_z
  _atom_site_thermal_displace_type
  _atom_site_B_iso_or_equiv
  _atom_site_type_symbol
  Pr1      1.0000 0.37342  0.46430  0.93879  Biso   1.000  Pr
  Pr2      1.0000 0.62658  0.96430  0.56121  Biso   1.000  Pr
  Pr3      1.0000 0.62658  0.53570  0.06121  Biso   1.000  Pr
  Pr4      1.0000 0.37342  0.03570  0.43879  Biso   1.000  Pr
  Pr5      1.0000 0.13542  0.53174  0.56071  Biso   1.000  Pr
  Pr6      1.0000 0.86458  0.03174  0.93929  Biso   1.000  Pr
  Pr7      1.0000 0.86458  0.46826  0.43929  Biso   1.000  Pr
  Pr8      1.0000 0.13542  0.96826  0.06071  Biso   1.000  Pr
  Cu1      1.0000 0.52682  0.45937  0.13500  Biso   1.000  Cu
  Cu2      1.0000 0.47318  0.95937  0.36500  Biso   1.000  Cu
  Cu3      1.0000 0.47318  0.54063  0.86500  Biso   1.000  Cu
  Cu4      1.0000 0.52682  0.04063  0.63500  Biso   1.000  Cu
  Cu5      1.0000 0.24606  0.50248  0.75416  Biso   1.000  Cu
  Cu6      1.0000 0.75394  0.00248  0.74584  Biso   1.000  Cu
  Cu7      1.0000 0.75394  0.49752  0.24584  Biso   1.000  Cu
  Cu8      1.0000 0.24606  0.99752  0.25416  Biso   1.000  Cu
  Cu9      1.0000 0.01764  0.46403  0.63467  Biso   1.000  Cu
  Cu10     1.0000 0.98236  0.96403  0.86533  Biso   1.000  Cu
  Cu11     1.0000 0.98236  0.53597  0.36533  Biso   1.000  Cu
  Cu12     1.0000 0.01764  0.03597  0.13467  Biso   1.000  Cu
  O1       1.0000 0.28350  0.52322  0.54007  Biso   1.000  O
  O2       1.0000 0.71650  0.02322  0.95993  Biso   1.000  O
  O3       1.0000 0.71650  0.47678  0.45993  Biso   1.000  O
  O4       1.0000 0.28350  0.97678  0.04007  Biso   1.000  O
  O5       1.0000 0.13830  0.49391  0.45714  Biso   1.000  O
  O6       1.0000 0.86170  0.99391  0.04286  Biso   1.000  O
  O7       1.0000 0.86170  0.50609  0.54286  Biso   1.000  O
  O8       1.0000 0.13830  0.00609  0.95714  Biso   1.000  O
  O9       1.0000 0.48170  0.41100  0.92631  Biso   1.000  O
  O10      1.0000 0.51830  0.91100  0.57369  Biso   1.000  O
  O11      1.0000 0.51830  0.58900  0.07369  Biso   1.000  O
  O12      1.0000 0.48170  0.08900  0.42631  Biso   1.000  O
  O13      1.0000 0.45780  0.40646  0.81550  Biso   1.000  O
  O14      1.0000 0.54220  0.90646  0.68450  Biso   1.000  O
  O15      1.0000 0.54220  0.59354  0.18450  Biso   1.000  O
  O16      1.0000 0.45780  0.09354  0.31550  Biso   1.000  O
  O17      1.0000 0.48380  0.39677  0.11905  Biso   1.000  O
  O18      1.0000 0.51620  0.89677  0.38095  Biso   1.000  O
  O19      1.0000 0.51620  0.60323  0.88095  Biso   1.000  O
  O20      1.0000 0.48380  0.10323  0.61905  Biso   1.000  O
  O21      1.0000 0.36460  0.39729  0.00259  Biso   1.000  O
  O22      1.0000 0.63540  0.89729  0.49741  Biso   1.000  O
  O23      1.0000 0.63540  0.60271  0.99741  Biso   1.000  O
  O24      1.0000 0.36460  0.10271  0.50259  Biso   1.000  O
  O25      1.0000 0.21040  0.43839  0.72878  Biso   1.000  O
  O26      1.0000 0.78960  0.93839  0.77122  Biso   1.000  O
  O27      1.0000 0.78960  0.56161  0.27122  Biso   1.000  O
  O28      1.0000 0.21040  0.06161  0.22878  Biso   1.000  O
  O29      1.0000 0.24330  0.42051  0.83773  Biso   1.000  O
  O30      1.0000 0.75670  0.92051  0.66227  Biso   1.000  O
  O31      1.0000 0.75670  0.57949  0.16227  Biso   1.000  O
  O32      1.0000 0.24330  0.07949  0.33773  Biso   1.000  O
  O33      1.0000 0.71380  0.43413  0.22781  Biso   1.000  O
  O34      1.0000 0.28620  0.93413  0.27219  Biso   1.000  O
  O35      1.0000 0.28620  0.56587  0.77219  Biso   1.000  O
  O36      1.0000 0.71380  0.06587  0.72781  Biso   1.000  O
  O37      1.0000 0.73830  0.42490  0.33767  Biso   1.000  O
  O38      1.0000 0.26170  0.92490  0.16233  Biso   1.000  O
  O39      1.0000 0.26170  0.57510  0.66233  Biso   1.000  O
  O40      1.0000 0.73830  0.07510  0.83767  Biso   1.000  O
  O41      1.0000 0.97450  0.40116  0.61983  Biso   1.000  O
  O42      1.0000 0.02550  0.90116  0.88017  Biso   1.000  O
  O43      1.0000 0.02550  0.59884  0.38017  Biso   1.000  O
  O44      1.0000 0.97450  0.09884  0.11983  Biso   1.000  O
  O45      1.0000 0.85100  0.40140  0.50419  Biso   1.000  O
  O46      1.0000 0.14900  0.90140  0.99581  Biso   1.000  O
  O47      1.0000 0.14900  0.59860  0.49581  Biso   1.000  O
  O48      1.0000 0.85100  0.09860  0.00419  Biso   1.000  O
  O49      1.0000 0.02580  0.58921  0.56634  Biso   1.000  O
  O50      1.0000 0.97420  0.08921  0.93366  Biso   1.000  O
  O51      1.0000 0.97420  0.41079  0.43366  Biso   1.000  O
  O52      1.0000 0.02580  0.91079  0.06634  Biso   1.000  O
  O53      1.0000 0.03240  0.59658  0.67095  Biso   1.000  O
  O54      1.0000 0.96760  0.09658  0.82905  Biso   1.000  O
  O55      1.0000 0.96760  0.40342  0.32905  Biso   1.000  O
  O56      1.0000 0.03240  0.90342  0.17095  Biso   1.000  O
  O57      1.0000 0.22050  0.46962  0.95813  Biso   1.000  O
  O58      1.0000 0.77950  0.96962  0.54187  Biso   1.000  O
  O59      1.0000 0.77950  0.53038  0.04187  Biso   1.000  O
  O60      1.0000 0.22050  0.03038  0.45813  Biso   1.000  O
  O61      1.0000 0.36510  0.50079  0.04034  Biso   1.000  O
  O62      1.0000 0.63490  0.00079  0.45966  Biso   1.000  O
  O63      1.0000 0.63490  0.49921  0.95966  Biso   1.000  O
  O64      1.0000 0.36510  0.99921  0.54034  Biso   1.000  O
  O65      1.0000 0.54340  0.46308  0.05119  Biso   1.000  O
  O66      1.0000 0.45660  0.96308  0.44881  Biso   1.000  O
  O67      1.0000 0.45660  0.53692  0.94881  Biso   1.000  O
  O68      1.0000 0.54340  0.03692  0.55119  Biso   1.000  O
  H1       1.0000 0.54940  0.44390  0.03360  Biso   1.000  H
  H2       1.0000 0.45060  0.94390  0.46640  Biso   1.000  H
  H3       1.0000 0.45060  0.55610  0.96640  Biso   1.000  H
  H4       1.0000 0.54940  0.05610  0.53360  Biso   1.000  H
  O69      1.0000 0.38420  0.48753  0.82975  Biso   1.000  O
  O70      1.0000 0.61580  0.98753  0.67025  Biso   1.000  O
  O71      1.0000 0.61580  0.51247  0.17025  Biso   1.000  O
  O72      1.0000 0.38420  0.01247  0.32975  Biso   1.000  O
  H5       1.0000 0.41510  0.46400  0.82130  Biso   1.000  H
  H6       1.0000 0.58490  0.96400  0.67870  Biso   1.000  H
  H7       1.0000 0.58490  0.53600  0.17870  Biso   1.000  H
  H8       1.0000 0.41510  0.03600  0.32130  Biso   1.000  H
  O73      1.0000 0.11460  0.51435  0.67037  Biso   1.000  O
  O74      1.0000 0.88540  0.01435  0.82963  Biso   1.000  O
  O75      1.0000 0.88540  0.48565  0.32963  Biso   1.000  O
  O76      1.0000 0.11460  0.98565  0.17037  Biso   1.000  O
  H9       1.0000 0.09610  0.53730  0.68130  Biso   1.000  H
  H10      1.0000 0.90390  0.03730  0.81870  Biso   1.000  H
  H11      1.0000 0.90390  0.46270  0.31870  Biso   1.000  H
  H12      1.0000 0.09610  0.96270  0.18130  Biso   1.000  H
  O77      1.0000 0.03300  0.46463  0.55069  Biso   1.000  O
  O78      1.0000 0.96700  0.96463  0.94931  Biso   1.000  O
  O79      1.0000 0.96700  0.53537  0.44931  Biso   1.000  O
  O80      1.0000 0.03300  0.03537  0.05069  Biso   1.000  O
  H13      1.0000 0.05990  0.44030  0.53720  Biso   1.000  H
  H14      1.0000 0.94010  0.94030  0.96280  Biso   1.000  H
  H15      1.0000 0.94010  0.55970  0.46280  Biso   1.000  H
  H16      1.0000 0.05990  0.05970  0.03720  Biso   1.000  H
  O81      1.0000 0.22300  0.51857  0.85511  Biso   1.000  O
  O82      1.0000 0.77700  0.01857  0.64489  Biso   1.000  O
  O83      1.0000 0.77700  0.48143  0.14489  Biso   1.000  O
  O84      1.0000 0.22300  0.98143  0.35511  Biso   1.000  O
  H17      1.0000 0.23990  0.54220  0.87330  Biso   1.000  H
  H18      1.0000 0.76010  0.04220  0.62670  Biso   1.000  H
  H19      1.0000 0.76010  0.45780  0.12670  Biso   1.000  H
  H20      1.0000 0.23990  0.95780  0.37330  Biso   1.000  H
  H21      1.0000 0.16750  0.51320  0.85970  Biso   1.000  H
  H22      1.0000 0.83250  0.01320  0.64030  Biso   1.000  H
  H23      1.0000 0.83250  0.48680  0.14030  Biso   1.000  H
  H24      1.0000 0.16750  0.98680  0.35970  Biso   1.000  H
  O85      1.0000 0.25380  0.46725  0.62989  Biso   1.000  O
  O86      1.0000 0.74620  0.96725  0.87011  Biso   1.000  O
  O87      1.0000 0.74620  0.53275  0.37011  Biso   1.000  O
  O88      1.0000 0.25380  0.03275  0.12989  Biso   1.000  O
  H25      1.0000 0.30570  0.45180  0.62880  Biso   1.000  H
  H26      1.0000 0.69430  0.95180  0.87120  Biso   1.000  H
  H27      1.0000 0.69430  0.54820  0.37120  Biso   1.000  H
  H28      1.0000 0.30570  0.04820  0.12880  Biso   1.000  H
  H29      1.0000 0.27740  0.49200  0.65190  Biso   1.000  H
  H30      1.0000 0.72260  0.99200  0.84810  Biso   1.000  H
  H31      1.0000 0.72260  0.50800  0.34810  Biso   1.000  H
  H32      1.0000 0.27740  0.00800  0.15190  Biso   1.000  H
  N1       1.0000 0.48240  0.46220  0.20780  Biso   1.000  N
  N2       1.0000 0.51760  0.96220  0.29220  Biso   1.000  N
  N3       1.0000 0.51760  0.53780  0.79220  Biso   1.000  N
  N4       1.0000 0.48240  0.03780  0.70780  Biso   1.000  N
  N5       1.0000 0.33010  0.09655  0.08210  Biso   1.000  N
  N6       1.0000 0.66990  0.59655  0.41790  Biso   1.000  N
  N7       1.0000 0.66990  0.90345  0.91790  Biso   1.000  N
  N8       1.0000 0.33010  0.40345  0.58210  Biso   1.000  N
  N9       1.0000 0.52020  0.10412  0.93180  Biso   1.000  N
  N10      1.0000 0.47980  0.60412  0.56820  Biso   1.000  N
  N11      1.0000 0.47980  0.89588  0.06820  Biso   1.000  N
  N12      1.0000 0.52020  0.39588  0.43180  Biso   1.000  N
  N13      1.0000 0.79450  0.10359  0.60050  Biso   1.000  N
  N14      1.0000 0.20550  0.60359  0.89950  Biso   1.000  N
  N15      1.0000 0.20550  0.89641  0.39950  Biso   1.000  N
  N16      1.0000 0.79450  0.39641  0.10050  Biso   1.000  N
  N17      1.0000 0.67990  0.12512  0.22370  Biso   1.000  N
  N18      1.0000 0.32010  0.62512  0.27630  Biso   1.000  N
  N19      1.0000 0.32010  0.87488  0.77630  Biso   1.000  N
  N20      1.0000 0.67990  0.37488  0.72370  Biso   1.000  N
  N21      1.0000 0.99400  0.89606  0.55830  Biso   1.000  N
  N22      1.0000 0.00600  0.39606  0.94170  Biso   1.000  N
  N23      1.0000 0.00600  0.10394  0.44170  Biso   1.000  N
  N24      1.0000 0.99400  0.60394  0.05830  Biso   1.000  N
  N25      1.0000 0.15160  0.12910  0.68000  Biso   1.000  N
  N26      1.0000 0.84840  0.62910  0.82000  Biso   1.000  N
  N27      1.0000 0.84840  0.87090  0.32000  Biso   1.000  N
  N28      1.0000 0.15160  0.37090  0.18000  Biso   1.000  N
  N29      1.0000 0.02150  0.53069  0.28940  Biso   1.000  N
  N30      1.0000 0.97850  0.03069  0.21060  Biso   1.000  N
  N31      1.0000 0.97850  0.46931  0.71060  Biso   1.000  N
  N32      1.0000 0.02150  0.96931  0.78940  Biso   1.000  N
  C1       1.0000 0.53080  0.48591  0.26750  Biso   1.000  C
  C2       1.0000 0.46920  0.98591  0.23250  Biso   1.000  C
  C3       1.0000 0.46920  0.51409  0.73250  Biso   1.000  C
  C4       1.0000 0.53080  0.01409  0.76750  Biso   1.000  C
  H33      1.0000 0.59250  0.50030  0.27800  Biso   1.000  H
  H34      1.0000 0.40750  0.00030  0.22200  Biso   1.000  H
  H35      1.0000 0.40750  0.49970  0.72200  Biso   1.000  H
  H36      1.0000 0.59250  0.99970  0.77800  Biso   1.000  H
  C5       1.0000 0.49690  0.49090  0.31550  Biso   1.000  C
  C6       1.0000 0.50310  0.99090  0.18450  Biso   1.000  C
  C7       1.0000 0.50310  0.50910  0.68450  Biso   1.000  C
  C8       1.0000 0.49690  0.00910  0.81550  Biso   1.000  C
  H37      1.0000 0.53620  0.50770  0.35820  Biso   1.000  H
  H38      1.0000 0.46380  0.00770  0.14180  Biso   1.000  H
  H39      1.0000 0.46380  0.49230  0.64180  Biso   1.000  H
  H40      1.0000 0.53620  0.99230  0.85820  Biso   1.000  H
  C9       1.0000 0.40570  0.47162  0.30200  Biso   1.000  C
  C10      1.0000 0.59430  0.97162  0.19800  Biso   1.000  C
  C11      1.0000 0.59430  0.52838  0.69800  Biso   1.000  C
  C12      1.0000 0.40570  0.02838  0.80200  Biso   1.000  C
  C13      1.0000 0.35770  0.44532  0.24090  Biso   1.000  C
  C14      1.0000 0.64230  0.94532  0.25910  Biso   1.000  C
  C15      1.0000 0.64230  0.55468  0.75910  Biso   1.000  C
  C16      1.0000 0.35770  0.05468  0.74090  Biso   1.000  C
  H41      1.0000 0.29660  0.43000  0.22980  Biso   1.000  H
  H42      1.0000 0.70340  0.93000  0.27020  Biso   1.000  H
  H43      1.0000 0.70340  0.57000  0.77020  Biso   1.000  H
  H44      1.0000 0.29660  0.07000  0.72980  Biso   1.000  H
  C17      1.0000 0.39720  0.44097  0.19580  Biso   1.000  C
  C18      1.0000 0.60280  0.94097  0.30420  Biso   1.000  C
  C19      1.0000 0.60280  0.55903  0.80420  Biso   1.000  C
  C20      1.0000 0.39720  0.05903  0.69580  Biso   1.000  C
  H45      1.0000 0.36280  0.42230  0.15480  Biso   1.000  H
  H46      1.0000 0.63720  0.92230  0.34520  Biso   1.000  H
  H47      1.0000 0.63720  0.57770  0.84520  Biso   1.000  H
  H48      1.0000 0.36280  0.07770  0.65480  Biso   1.000  H
  C21      1.0000 0.36270  0.47893  0.34960  Biso   1.000  C
  C22      1.0000 0.63730  0.97893  0.15040  Biso   1.000  C
  C23      1.0000 0.63730  0.52107  0.65040  Biso   1.000  C
  C24      1.0000 0.36270  0.02107  0.84960  Biso   1.000  C
  C25      1.0000 0.40070  0.51210  0.40050  Biso   1.000  C
  C26      1.0000 0.59930  0.01210  0.09950  Biso   1.000  C
  C27      1.0000 0.59930  0.48790  0.59950  Biso   1.000  C
  C28      1.0000 0.40070  0.98790  0.90050  Biso   1.000  C
  H49      1.0000 0.45540  0.53020  0.40560  Biso   1.000  H
  H50      1.0000 0.54460  0.03020  0.09440  Biso   1.000  H
  H51      1.0000 0.54460  0.46980  0.59440  Biso   1.000  H
  H52      1.0000 0.45540  0.96980  0.90560  Biso   1.000  H
  C29      1.0000 0.36000  0.51954  0.44480  Biso   1.000  C
  C30      1.0000 0.64000  0.01954  0.05520  Biso   1.000  C
  C31      1.0000 0.64000  0.48046  0.55520  Biso   1.000  C
  C32      1.0000 0.36000  0.98046  0.94480  Biso   1.000  C
  H53      1.0000 0.38810  0.54190  0.48090  Biso   1.000  H
  H54      1.0000 0.61190  0.04190  0.01910  Biso   1.000  H
  H55      1.0000 0.61190  0.45810  0.51910  Biso   1.000  H
  H56      1.0000 0.38810  0.95810  0.98090  Biso   1.000  H
  C33      1.0000 0.27840  0.49401  0.43570  Biso   1.000  C
  C34      1.0000 0.72160  0.99401  0.06430  Biso   1.000  C
  C35      1.0000 0.72160  0.50599  0.56430  Biso   1.000  C
  C36      1.0000 0.27840  0.00599  0.93570  Biso   1.000  C
  C37      1.0000 0.24030  0.46096  0.38490  Biso   1.000  C
  C38      1.0000 0.75970  0.96096  0.11510  Biso   1.000  C
  C39      1.0000 0.75970  0.53904  0.61510  Biso   1.000  C
  C40      1.0000 0.24030  0.03904  0.88490  Biso   1.000  C
  H57      1.0000 0.18400  0.44350  0.37860  Biso   1.000  H
  H58      1.0000 0.81600  0.94350  0.12140  Biso   1.000  H
  H59      1.0000 0.81600  0.55650  0.62140  Biso   1.000  H
  H60      1.0000 0.18400  0.05650  0.87860  Biso   1.000  H
  C41      1.0000 0.28300  0.45285  0.34300  Biso   1.000  C
  C42      1.0000 0.71700  0.95285  0.15700  Biso   1.000  C
  C43      1.0000 0.71700  0.54715  0.65700  Biso   1.000  C
  C44      1.0000 0.28300  0.04715  0.84300  Biso   1.000  C
  H61      1.0000 0.25760  0.42910  0.30920  Biso   1.000  H
  H62      1.0000 0.74240  0.92910  0.19080  Biso   1.000  H
  H63      1.0000 0.74240  0.57090  0.69080  Biso   1.000  H
  H64      1.0000 0.25760  0.07090  0.80920  Biso   1.000  H
  C45      1.0000 0.23170  0.50465  0.48080  Biso   1.000  C
  C46      1.0000 0.76830  0.00465  0.01920  Biso   1.000  C
  C47      1.0000 0.76830  0.49535  0.51920  Biso   1.000  C
  C48      1.0000 0.23170  0.99535  0.98080  Biso   1.000  C
  C49      1.0000 0.47640  0.12990  0.95920  Biso   1.000  C
  C50      1.0000 0.52360  0.62990  0.54080  Biso   1.000  C
  C51      1.0000 0.52360  0.87010  0.04080  Biso   1.000  C
  C52      1.0000 0.47640  0.37010  0.45920  Biso   1.000  C
  H65      1.0000 0.45170  0.11640  0.98730  Biso   1.000  H
  H66      1.0000 0.54830  0.61640  0.51270  Biso   1.000  H
  H67      1.0000 0.54830  0.88360  0.01270  Biso   1.000  H
  H68      1.0000 0.45170  0.38360  0.48730  Biso   1.000  H
  C53      1.0000 0.46580  0.17570  0.94820  Biso   1.000  C
  C54      1.0000 0.53420  0.67570  0.55180  Biso   1.000  C
  C55      1.0000 0.53420  0.82430  0.05180  Biso   1.000  C
  C56      1.0000 0.46580  0.32430  0.44820  Biso   1.000  C
  H69      1.0000 0.43440  0.19280  0.96890  Biso   1.000  H
  H70      1.0000 0.56560  0.69280  0.53110  Biso   1.000  H
  H71      1.0000 0.56560  0.80720  0.03110  Biso   1.000  H
  H72      1.0000 0.43440  0.30720  0.46890  Biso   1.000  H
  C57      1.0000 0.49980  0.19664  0.90770  Biso   1.000  C
  C58      1.0000 0.50020  0.69664  0.59230  Biso   1.000  C
  C59      1.0000 0.50020  0.80336  0.09230  Biso   1.000  C
  C60      1.0000 0.49980  0.30336  0.40770  Biso   1.000  C
  C61      1.0000 0.53980  0.16947  0.87630  Biso   1.000  C
  C62      1.0000 0.46020  0.66947  0.62370  Biso   1.000  C
  C63      1.0000 0.46020  0.83053  0.12370  Biso   1.000  C
  C64      1.0000 0.53980  0.33053  0.37630  Biso   1.000  C
  H73      1.0000 0.56020  0.18170  0.84490  Biso   1.000  H
  H74      1.0000 0.43980  0.68170  0.65510  Biso   1.000  H
  H75      1.0000 0.43980  0.81830  0.15510  Biso   1.000  H
  H76      1.0000 0.56020  0.31830  0.34490  Biso   1.000  H
  C65      1.0000 0.54990  0.12382  0.89110  Biso   1.000  C
  C66      1.0000 0.45010  0.62382  0.60890  Biso   1.000  C
  C67      1.0000 0.45010  0.87618  0.10890  Biso   1.000  C
  C68      1.0000 0.54990  0.37618  0.39110  Biso   1.000  C
  H77      1.0000 0.58010  0.10590  0.87050  Biso   1.000  H
  H78      1.0000 0.41990  0.60590  0.62950  Biso   1.000  H
  H79      1.0000 0.41990  0.89410  0.12950  Biso   1.000  H
  H80      1.0000 0.58010  0.39410  0.37050  Biso   1.000  H
  C69      1.0000 0.49450  0.24608  0.89840  Biso   1.000  C
  C70      1.0000 0.50550  0.74608  0.60160  Biso   1.000  C
  C71      1.0000 0.50550  0.75392  0.10160  Biso   1.000  C
  C72      1.0000 0.49450  0.25392  0.39840  Biso   1.000  C
  C73      1.0000 0.47850  0.26587  0.83480  Biso   1.000  C
  C74      1.0000 0.52150  0.76587  0.66520  Biso   1.000  C
  C75      1.0000 0.52150  0.73413  0.16520  Biso   1.000  C
  C76      1.0000 0.47850  0.23413  0.33480  Biso   1.000  C
  H81      1.0000 0.47080  0.24740  0.79660  Biso   1.000  H
  H82      1.0000 0.52920  0.74740  0.70340  Biso   1.000  H
  H83      1.0000 0.52920  0.75260  0.20340  Biso   1.000  H
  H84      1.0000 0.47080  0.25260  0.29660  Biso   1.000  H
  C77      1.0000 0.47380  0.31185  0.82650  Biso   1.000  C
  C78      1.0000 0.52620  0.81185  0.67350  Biso   1.000  C
  C79      1.0000 0.52620  0.68815  0.17350  Biso   1.000  C
  C80      1.0000 0.47380  0.18815  0.32650  Biso   1.000  C
  H85      1.0000 0.46230  0.32470  0.78280  Biso   1.000  H
  H86      1.0000 0.53770  0.82470  0.71720  Biso   1.000  H
  H87      1.0000 0.53770  0.67530  0.21720  Biso   1.000  H
  H88      1.0000 0.46230  0.17530  0.28280  Biso   1.000  H
  C81      1.0000 0.48570  0.33888  0.88180  Biso   1.000  C
  C82      1.0000 0.51430  0.83888  0.61820  Biso   1.000  C
  C83      1.0000 0.51430  0.66112  0.11820  Biso   1.000  C
  C84      1.0000 0.48570  0.16112  0.38180  Biso   1.000  C
  C85      1.0000 0.50240  0.31994  0.94590  Biso   1.000  C
  C86      1.0000 0.49760  0.81994  0.55410  Biso   1.000  C
  C87      1.0000 0.49760  0.68006  0.05410  Biso   1.000  C
  C88      1.0000 0.50240  0.18006  0.44590  Biso   1.000  C
  H89      1.0000 0.51110  0.33850  0.98420  Biso   1.000  H
  H90      1.0000 0.48890  0.83850  0.51580  Biso   1.000  H
  H91      1.0000 0.48890  0.66150  0.01580  Biso   1.000  H
  H92      1.0000 0.51110  0.16150  0.48420  Biso   1.000  H
  C89      1.0000 0.50620  0.27410  0.95340  Biso   1.000  C
  C90      1.0000 0.49380  0.77410  0.54660  Biso   1.000  C
  C91      1.0000 0.49380  0.72590  0.04660  Biso   1.000  C
  C92      1.0000 0.50620  0.22590  0.45340  Biso   1.000  C
  H93      1.0000 0.51700  0.26140  0.99700  Biso   1.000  H
  H94      1.0000 0.48300  0.76140  0.50300  Biso   1.000  H
  H95      1.0000 0.48300  0.73860  0.00300  Biso   1.000  H
  H96      1.0000 0.51700  0.23860  0.49700  Biso   1.000  H
  C93      1.0000 0.47500  0.38985  0.87240  Biso   1.000  C
  C94      1.0000 0.52500  0.88985  0.62760  Biso   1.000  C
  C95      1.0000 0.52500  0.61015  0.12760  Biso   1.000  C
  C96      1.0000 0.47500  0.11015  0.37240  Biso   1.000  C
  C97      1.0000 0.41670  0.11780  0.12750  Biso   1.000  C
  C98      1.0000 0.58330  0.61780  0.37250  Biso   1.000  C
  C99      1.0000 0.58330  0.88220  0.87250  Biso   1.000  C
  C100     1.0000 0.41670  0.38220  0.62750  Biso   1.000  C
  H97      1.0000 0.47150  0.10070  0.16330  Biso   1.000  H
  H98      1.0000 0.52850  0.60070  0.33670  Biso   1.000  H
  H99      1.0000 0.52850  0.89930  0.83670  Biso   1.000  H
  H100     1.0000 0.47150  0.39930  0.66330  Biso   1.000  H
  C101     1.0000 0.43070  0.16296  0.12500  Biso   1.000  C
  C102     1.0000 0.56930  0.66296  0.37500  Biso   1.000  C
  C103     1.0000 0.56930  0.83704  0.87500  Biso   1.000  C
  C104     1.0000 0.43070  0.33704  0.62500  Biso   1.000  C
  H101     1.0000 0.49470  0.17610  0.15730  Biso   1.000  H
  H102     1.0000 0.50530  0.67610  0.34270  Biso   1.000  H
  H103     1.0000 0.50530  0.82390  0.84270  Biso   1.000  H
  H104     1.0000 0.49470  0.32390  0.65730  Biso   1.000  H
  C105     1.0000 0.35110  0.18929  0.07520  Biso   1.000  C
  C106     1.0000 0.64890  0.68929  0.42480  Biso   1.000  C
  C107     1.0000 0.64890  0.81071  0.92480  Biso   1.000  C
  C108     1.0000 0.35110  0.31071  0.57520  Biso   1.000  C
  C109     1.0000 0.26260  0.16727  0.02710  Biso   1.000  C
  C110     1.0000 0.73740  0.66727  0.47290  Biso   1.000  C
  C111     1.0000 0.73740  0.83273  0.97290  Biso   1.000  C
  C112     1.0000 0.26260  0.33273  0.52710  Biso   1.000  C
  H105     1.0000 0.20690  0.18350  0.99040  Biso   1.000  H
  H106     1.0000 0.79310  0.68350  0.50960  Biso   1.000  H
  H107     1.0000 0.79310  0.81650  0.00960  Biso   1.000  H
  H108     1.0000 0.20690  0.31650  0.49040  Biso   1.000  H
  C113     1.0000 0.25540  0.12148  0.03260  Biso   1.000  C
  C114     1.0000 0.74460  0.62148  0.46740  Biso   1.000  C
  C115     1.0000 0.74460  0.87852  0.96740  Biso   1.000  C
  C116     1.0000 0.25540  0.37852  0.53260  Biso   1.000  C
  H109     1.0000 0.19360  0.10710  0.99910  Biso   1.000  H
  H110     1.0000 0.80640  0.60710  0.50090  Biso   1.000  H
  H111     1.0000 0.80640  0.89290  0.00090  Biso   1.000  H
  H112     1.0000 0.19360  0.39290  0.49910  Biso   1.000  H
  C117     1.0000 0.36250  0.23856  0.07300  Biso   1.000  C
  C118     1.0000 0.63750  0.73856  0.42700  Biso   1.000  C
  C119     1.0000 0.63750  0.76144  0.92700  Biso   1.000  C
  C120     1.0000 0.36250  0.26144  0.57300  Biso   1.000  C
  C121     1.0000 0.42710  0.26201  0.13450  Biso   1.000  C
  C122     1.0000 0.57290  0.76201  0.36550  Biso   1.000  C
  C123     1.0000 0.57290  0.73799  0.86550  Biso   1.000  C
  C124     1.0000 0.42710  0.23799  0.63450  Biso   1.000  C
  H113     1.0000 0.46160  0.24680  0.17920  Biso   1.000  H
  H114     1.0000 0.53840  0.74680  0.32080  Biso   1.000  H
  H115     1.0000 0.53840  0.75320  0.82080  Biso   1.000  H
  H116     1.0000 0.46160  0.25320  0.67920  Biso   1.000  H
  C125     1.0000 0.44240  0.30799  0.13210  Biso   1.000  C
  C126     1.0000 0.55760  0.80799  0.36790  Biso   1.000  C
  C127     1.0000 0.55760  0.69201  0.86790  Biso   1.000  C
  C128     1.0000 0.44240  0.19201  0.63210  Biso   1.000  C
  H117     1.0000 0.48660  0.32380  0.17490  Biso   1.000  H
  H118     1.0000 0.51340  0.82380  0.32510  Biso   1.000  H
  H119     1.0000 0.51340  0.67620  0.82510  Biso   1.000  H
  H120     1.0000 0.48660  0.17620  0.67490  Biso   1.000  H
  C129     1.0000 0.39360  0.33014  0.06770  Biso   1.000  C
  C130     1.0000 0.60640  0.83014  0.43230  Biso   1.000  C
  C131     1.0000 0.60640  0.66986  0.93230  Biso   1.000  C
  C132     1.0000 0.39360  0.16986  0.56770  Biso   1.000  C
  C133     1.0000 0.32760  0.30699  0.00650  Biso   1.000  C
  C134     1.0000 0.67240  0.80699  0.49350  Biso   1.000  C
  C135     1.0000 0.67240  0.69301  0.99350  Biso   1.000  C
  C136     1.0000 0.32760  0.19301  0.50650  Biso   1.000  C
  H121     1.0000 0.29270  0.32230  0.96200  Biso   1.000  H
  H122     1.0000 0.70730  0.82230  0.53800  Biso   1.000  H
  H123     1.0000 0.70730  0.67770  0.03800  Biso   1.000  H
  H124     1.0000 0.29270  0.17770  0.46200  Biso   1.000  H
  C137     1.0000 0.31130  0.26127  0.00910  Biso   1.000  C
  C138     1.0000 0.68870  0.76127  0.49090  Biso   1.000  C
  C139     1.0000 0.68870  0.73873  0.99090  Biso   1.000  C
  C140     1.0000 0.31130  0.23873  0.50910  Biso   1.000  C
  H125     1.0000 0.26460  0.24580  0.96660  Biso   1.000  H
  H126     1.0000 0.73540  0.74580  0.53340  Biso   1.000  H
  H127     1.0000 0.73540  0.75420  0.03340  Biso   1.000  H
  H128     1.0000 0.26460  0.25420  0.46660  Biso   1.000  H
  C141     1.0000 0.41510  0.37881  0.06200  Biso   1.000  C
  C142     1.0000 0.58490  0.87881  0.43800  Biso   1.000  C
  C143     1.0000 0.58490  0.62119  0.93800  Biso   1.000  C
  C144     1.0000 0.41510  0.12119  0.56200  Biso   1.000  C
  C145     1.0000 0.14300  0.14760  0.73270  Biso   1.000  C
  C146     1.0000 0.85700  0.64760  0.76730  Biso   1.000  C
  C147     1.0000 0.85700  0.85240  0.26730  Biso   1.000  C
  C148     1.0000 0.14300  0.35240  0.23270  Biso   1.000  C
  H129     1.0000 0.12360  0.12870  0.75920  Biso   1.000  H
  H130     1.0000 0.87640  0.62870  0.74080  Biso   1.000  H
  H131     1.0000 0.87640  0.87130  0.24080  Biso   1.000  H
  H132     1.0000 0.12360  0.37130  0.25920  Biso   1.000  H
  C149     1.0000 0.16040  0.19250  0.75200  Biso   1.000  C
  C150     1.0000 0.83960  0.69250  0.74800  Biso   1.000  C
  C151     1.0000 0.83960  0.80750  0.24800  Biso   1.000  C
  C152     1.0000 0.16040  0.30750  0.25200  Biso   1.000  C
  H133     1.0000 0.15340  0.20370  0.79040  Biso   1.000  H
  H134     1.0000 0.84660  0.70370  0.70960  Biso   1.000  H
  H135     1.0000 0.84660  0.79630  0.20960  Biso   1.000  H
  H136     1.0000 0.15340  0.29630  0.29040  Biso   1.000  H
  C153     1.0000 0.18870  0.22083  0.71300  Biso   1.000  C
  C154     1.0000 0.81130  0.72083  0.78700  Biso   1.000  C
  C155     1.0000 0.81130  0.77917  0.28700  Biso   1.000  C
  C156     1.0000 0.18870  0.27917  0.21300  Biso   1.000  C
  C157     1.0000 0.19780  0.20170  0.65720  Biso   1.000  C
  C158     1.0000 0.80220  0.70170  0.84280  Biso   1.000  C
  C159     1.0000 0.80220  0.79830  0.34280  Biso   1.000  C
  C160     1.0000 0.19780  0.29830  0.15720  Biso   1.000  C
  H137     1.0000 0.21620  0.21950  0.62910  Biso   1.000  H
  H138     1.0000 0.78380  0.71950  0.87090  Biso   1.000  H
  H139     1.0000 0.78380  0.78050  0.37090  Biso   1.000  H
  H140     1.0000 0.21620  0.28050  0.12910  Biso   1.000  H
  C161     1.0000 0.17960  0.15640  0.64390  Biso   1.000  C
  C162     1.0000 0.82040  0.65640  0.85610  Biso   1.000  C
  C163     1.0000 0.82040  0.84360  0.35610  Biso   1.000  C
  C164     1.0000 0.17960  0.34360  0.14390  Biso   1.000  C
  H141     1.0000 0.18750  0.14380  0.60660  Biso   1.000  H
  H142     1.0000 0.81250  0.64380  0.89340  Biso   1.000  H
  H143     1.0000 0.81250  0.85620  0.39340  Biso   1.000  H
  H144     1.0000 0.18750  0.35620  0.10660  Biso   1.000  H
  C165     1.0000 0.20240  0.27001  0.72840  Biso   1.000  C
  C166     1.0000 0.79760  0.77001  0.77160  Biso   1.000  C
  C167     1.0000 0.79760  0.72999  0.27160  Biso   1.000  C
  C168     1.0000 0.20240  0.22999  0.22840  Biso   1.000  C
  C169     1.0000 0.19860  0.30096  0.67930  Biso   1.000  C
  C170     1.0000 0.80140  0.80096  0.82070  Biso   1.000  C
  C171     1.0000 0.80140  0.69904  0.32070  Biso   1.000  C
  C172     1.0000 0.19860  0.19904  0.17930  Biso   1.000  C
  H145     1.0000 0.19150  0.29100  0.63530  Biso   1.000  H
  H146     1.0000 0.80850  0.79100  0.86470  Biso   1.000  H
  H147     1.0000 0.80850  0.70900  0.36470  Biso   1.000  H
  H148     1.0000 0.19150  0.20900  0.13530  Biso   1.000  H
  C173     1.0000 0.20500  0.34611  0.69370  Biso   1.000  C
  C174     1.0000 0.79500  0.84611  0.80630  Biso   1.000  C
  C175     1.0000 0.79500  0.65389  0.30630  Biso   1.000  C
  C176     1.0000 0.20500  0.15389  0.19370  Biso   1.000  C
  H149     1.0000 0.20120  0.36680  0.65910  Biso   1.000  H
  H150     1.0000 0.79880  0.86680  0.84090  Biso   1.000  H
  H151     1.0000 0.79880  0.63320  0.34090  Biso   1.000  H
  H152     1.0000 0.20120  0.13320  0.15910  Biso   1.000  H
  C177     1.0000 0.21680  0.36166  0.75750  Biso   1.000  C
  C178     1.0000 0.78320  0.86166  0.74250  Biso   1.000  C
  C179     1.0000 0.78320  0.63834  0.24250  Biso   1.000  C
  C180     1.0000 0.21680  0.13834  0.25750  Biso   1.000  C
  C181     1.0000 0.22400  0.33062  0.80800  Biso   1.000  C
  C182     1.0000 0.77600  0.83062  0.69200  Biso   1.000  C
  C183     1.0000 0.77600  0.66938  0.19200  Biso   1.000  C
  C184     1.0000 0.22400  0.16938  0.30800  Biso   1.000  C
  H153     1.0000 0.23340  0.34050  0.85270  Biso   1.000  H
  H154     1.0000 0.76660  0.84050  0.64730  Biso   1.000  H
  H155     1.0000 0.76660  0.65950  0.14730  Biso   1.000  H
  H156     1.0000 0.23340  0.15950  0.35270  Biso   1.000  H
  C185     1.0000 0.21750  0.28555  0.79290  Biso   1.000  C
  C186     1.0000 0.78250  0.78555  0.70710  Biso   1.000  C
  C187     1.0000 0.78250  0.71445  0.20710  Biso   1.000  C
  C188     1.0000 0.21750  0.21445  0.29290  Biso   1.000  C
  H157     1.0000 0.22360  0.26470  0.82800  Biso   1.000  H
  H158     1.0000 0.77640  0.76470  0.67200  Biso   1.000  H
  H159     1.0000 0.77640  0.73530  0.17200  Biso   1.000  H
  H160     1.0000 0.22360  0.23530  0.32800  Biso   1.000  H
  C189     1.0000 0.22390  0.40980  0.77640  Biso   1.000  C
  C190     1.0000 0.77610  0.90980  0.72360  Biso   1.000  C
  C191     1.0000 0.77610  0.59020  0.22360  Biso   1.000  C
  C192     1.0000 0.22390  0.09020  0.27640  Biso   1.000  C
  C193     1.0000 0.70460  0.15090  0.18440  Biso   1.000  C
  C194     1.0000 0.29540  0.65090  0.31560  Biso   1.000  C
  C195     1.0000 0.29540  0.84910  0.81560  Biso   1.000  C
  C196     1.0000 0.70460  0.34910  0.68440  Biso   1.000  C
  H161     1.0000 0.71310  0.13700  0.14820  Biso   1.000  H
  H162     1.0000 0.28690  0.63700  0.35180  Biso   1.000  H
  H163     1.0000 0.28690  0.86300  0.85180  Biso   1.000  H
  H164     1.0000 0.71310  0.36300  0.64820  Biso   1.000  H
  C197     1.0000 0.71880  0.19650  0.19310  Biso   1.000  C
  C198     1.0000 0.28120  0.69650  0.30690  Biso   1.000  C
  C199     1.0000 0.28120  0.80350  0.80690  Biso   1.000  C
  C200     1.0000 0.71880  0.30350  0.69310  Biso   1.000  C
  H165     1.0000 0.73820  0.21300  0.16420  Biso   1.000  H
  H166     1.0000 0.26180  0.71300  0.33580  Biso   1.000  H
  H167     1.0000 0.26180  0.78700  0.83580  Biso   1.000  H
  H168     1.0000 0.73820  0.28700  0.66420  Biso   1.000  H
  C201     1.0000 0.70470  0.21808  0.24400  Biso   1.000  C
  C202     1.0000 0.29530  0.71808  0.25600  Biso   1.000  C
  C203     1.0000 0.29530  0.78192  0.75600  Biso   1.000  C
  C204     1.0000 0.70470  0.28192  0.74400  Biso   1.000  C
  C205     1.0000 0.68010  0.19158  0.28570  Biso   1.000  C
  C206     1.0000 0.31990  0.69158  0.21430  Biso   1.000  C
  C207     1.0000 0.31990  0.80842  0.71430  Biso   1.000  C
  C208     1.0000 0.68010  0.30842  0.78570  Biso   1.000  C
  H169     1.0000 0.67120  0.20460  0.32230  Biso   1.000  H
  H170     1.0000 0.32880  0.70460  0.17770  Biso   1.000  H
  H171     1.0000 0.32880  0.79540  0.67770  Biso   1.000  H
  H172     1.0000 0.67120  0.29540  0.82230  Biso   1.000  H
  C209     1.0000 0.66870  0.14636  0.27370  Biso   1.000  C
  C210     1.0000 0.33130  0.64636  0.22630  Biso   1.000  C
  C211     1.0000 0.33130  0.85364  0.72630  Biso   1.000  C
  C212     1.0000 0.66870  0.35364  0.77370  Biso   1.000  C
  H173     1.0000 0.65170  0.12900  0.30300  Biso   1.000  H
  H174     1.0000 0.34830  0.62900  0.19700  Biso   1.000  H
  H175     1.0000 0.34830  0.87100  0.69700  Biso   1.000  H
  H176     1.0000 0.65170  0.37100  0.80300  Biso   1.000  H
  C213     1.0000 0.71180  0.26770  0.25290  Biso   1.000  C
  C214     1.0000 0.28820  0.76770  0.24710  Biso   1.000  C
  C215     1.0000 0.28820  0.73230  0.74710  Biso   1.000  C
  C216     1.0000 0.71180  0.23230  0.75290  Biso   1.000  C
  C217     1.0000 0.73790  0.28715  0.31840  Biso   1.000  C
  C218     1.0000 0.26210  0.78715  0.18160  Biso   1.000  C
  C219     1.0000 0.26210  0.71285  0.68160  Biso   1.000  C
  C220     1.0000 0.73790  0.21285  0.81840  Biso   1.000  C
  H177     1.0000 0.75370  0.26870  0.35850  Biso   1.000  H
  H178     1.0000 0.24630  0.76870  0.14150  Biso   1.000  H
  H179     1.0000 0.24630  0.73130  0.64150  Biso   1.000  H
  H180     1.0000 0.75370  0.23130  0.85850  Biso   1.000  H
  C221     1.0000 0.74100  0.33290  0.32600  Biso   1.000  C
  C222     1.0000 0.25900  0.83290  0.17400  Biso   1.000  C
  C223     1.0000 0.25900  0.66710  0.67400  Biso   1.000  C
  C224     1.0000 0.74100  0.16710  0.82600  Biso   1.000  C
  H181     1.0000 0.75950  0.34550  0.37130  Biso   1.000  H
  H182     1.0000 0.24050  0.84550  0.12870  Biso   1.000  H
  H183     1.0000 0.24050  0.65450  0.62870  Biso   1.000  H
  H184     1.0000 0.75950  0.15450  0.87130  Biso   1.000  H
  C225     1.0000 0.71780  0.36075  0.26870  Biso   1.000  C
  C226     1.0000 0.28220  0.86075  0.23130  Biso   1.000  C
  C227     1.0000 0.28220  0.63925  0.73130  Biso   1.000  C
  C228     1.0000 0.71780  0.13925  0.76870  Biso   1.000  C
  C229     1.0000 0.69320  0.34153  0.20320  Biso   1.000  C
  C230     1.0000 0.30680  0.84153  0.29680  Biso   1.000  C
  C231     1.0000 0.30680  0.65847  0.79680  Biso   1.000  C
  C232     1.0000 0.69320  0.15847  0.70320  Biso   1.000  C
  H185     1.0000 0.67810  0.36010  0.16340  Biso   1.000  H
  H186     1.0000 0.32190  0.86010  0.33660  Biso   1.000  H
  H187     1.0000 0.32190  0.63990  0.83660  Biso   1.000  H
  H188     1.0000 0.67810  0.13990  0.66340  Biso   1.000  H
  C233     1.0000 0.69040  0.29567  0.19540  Biso   1.000  C
  C234     1.0000 0.30960  0.79567  0.30460  Biso   1.000  C
  C235     1.0000 0.30960  0.70433  0.80460  Biso   1.000  C
  C236     1.0000 0.69040  0.20433  0.69540  Biso   1.000  C
  H189     1.0000 0.67390  0.28310  0.15040  Biso   1.000  H
  H190     1.0000 0.32610  0.78310  0.34960  Biso   1.000  H
  H191     1.0000 0.32610  0.71690  0.84960  Biso   1.000  H
  H192     1.0000 0.67390  0.21690  0.65040  Biso   1.000  H
  C237     1.0000 0.72290  0.40993  0.27890  Biso   1.000  C
  C238     1.0000 0.27710  0.90993  0.22110  Biso   1.000  C
  C239     1.0000 0.27710  0.59007  0.72110  Biso   1.000  C
  C240     1.0000 0.72290  0.09007  0.77890  Biso   1.000  C
  C241     1.0000 0.74970  0.12375  0.53680  Biso   1.000  C
  C242     1.0000 0.25030  0.62375  0.96320  Biso   1.000  C
  C243     1.0000 0.25030  0.87625  0.46320  Biso   1.000  C
  C244     1.0000 0.74970  0.37625  0.03680  Biso   1.000  C
  H193     1.0000 0.70630  0.10650  0.49550  Biso   1.000  H
  H194     1.0000 0.29370  0.60650  0.00450  Biso   1.000  H
  H195     1.0000 0.29370  0.89350  0.50450  Biso   1.000  H
  H196     1.0000 0.70630  0.39350  0.99550  Biso   1.000  H
  C245     1.0000 0.76310  0.16868  0.52750  Biso   1.000  C
  C246     1.0000 0.23690  0.66868  0.97250  Biso   1.000  C
  C247     1.0000 0.23690  0.83132  0.47250  Biso   1.000  C
  C248     1.0000 0.76310  0.33132  0.02750  Biso   1.000  C
  H197     1.0000 0.72700  0.18150  0.48090  Biso   1.000  H
  H198     1.0000 0.27300  0.68150  0.01910  Biso   1.000  H
  H199     1.0000 0.27300  0.81850  0.51910  Biso   1.000  H
  H200     1.0000 0.72700  0.31850  0.98090  Biso   1.000  H
  C249     1.0000 0.82860  0.19467  0.58550  Biso   1.000  C
  C250     1.0000 0.17140  0.69467  0.91450  Biso   1.000  C
  C251     1.0000 0.17140  0.80533  0.41450  Biso   1.000  C
  C252     1.0000 0.82860  0.30533  0.08550  Biso   1.000  C
  C253     1.0000 0.87350  0.17340  0.65100  Biso   1.000  C
  C254     1.0000 0.12650  0.67340  0.84900  Biso   1.000  C
  C255     1.0000 0.12650  0.82660  0.34900  Biso   1.000  C
  C256     1.0000 0.87350  0.32660  0.15100  Biso   1.000  C
  H201     1.0000 0.91700  0.18990  0.69320  Biso   1.000  H
  H202     1.0000 0.08300  0.68990  0.80680  Biso   1.000  H
  H203     1.0000 0.08300  0.81010  0.30680  Biso   1.000  H
  H204     1.0000 0.91700  0.31010  0.19320  Biso   1.000  H
  C257     1.0000 0.85650  0.12840  0.65650  Biso   1.000  C
  C258     1.0000 0.14350  0.62840  0.84350  Biso   1.000  C
  C259     1.0000 0.14350  0.87160  0.34350  Biso   1.000  C
  C260     1.0000 0.85650  0.37160  0.15650  Biso   1.000  C
  H205     1.0000 0.89090  0.11480  0.70260  Biso   1.000  H
  H206     1.0000 0.10910  0.61480  0.79740  Biso   1.000  H
  H207     1.0000 0.10910  0.88520  0.29740  Biso   1.000  H
  H208     1.0000 0.89090  0.38520  0.20260  Biso   1.000  H
  C261     1.0000 0.84660  0.24322  0.58020  Biso   1.000  C
  C262     1.0000 0.15340  0.74322  0.91980  Biso   1.000  C
  C263     1.0000 0.15340  0.75678  0.41980  Biso   1.000  C
  C264     1.0000 0.84660  0.25678  0.08020  Biso   1.000  C
  C265     1.0000 0.77870  0.26877  0.52070  Biso   1.000  C
  C266     1.0000 0.22130  0.76877  0.97930  Biso   1.000  C
  C267     1.0000 0.22130  0.73123  0.47930  Biso   1.000  C
  C268     1.0000 0.77870  0.23123  0.02070  Biso   1.000  C
  H209     1.0000 0.71950  0.25510  0.48280  Biso   1.000  H
  H210     1.0000 0.28050  0.75510  0.01720  Biso   1.000  H
  H211     1.0000 0.28050  0.74490  0.51720  Biso   1.000  H
  H212     1.0000 0.71950  0.24490  0.98280  Biso   1.000  H
  C269     1.0000 0.79640  0.31361  0.51620  Biso   1.000  C
  C270     1.0000 0.20360  0.81361  0.98380  Biso   1.000  C
  C271     1.0000 0.20360  0.68639  0.48380  Biso   1.000  C
  C272     1.0000 0.79640  0.18639  0.01620  Biso   1.000  C
  H213     1.0000 0.74950  0.33020  0.47520  Biso   1.000  H
  H214     1.0000 0.25050  0.83020  0.02480  Biso   1.000  H
  H215     1.0000 0.25050  0.66980  0.52480  Biso   1.000  H
  H216     1.0000 0.74950  0.16980  0.97520  Biso   1.000  H
  C273     1.0000 0.88170  0.33477  0.57090  Biso   1.000  C
  C274     1.0000 0.11830  0.83477  0.92910  Biso   1.000  C
  C275     1.0000 0.11830  0.66523  0.42910  Biso   1.000  C
  C276     1.0000 0.88170  0.16523  0.07090  Biso   1.000  C
  C277     1.0000 0.94630  0.31013  0.63130  Biso   1.000  C
  C278     1.0000 0.05370  0.81013  0.86870  Biso   1.000  C
  C279     1.0000 0.05370  0.68987  0.36870  Biso   1.000  C
  C280     1.0000 0.94630  0.18987  0.13130  Biso   1.000  C
  H217     1.0000 0.00310  0.32430  0.67050  Biso   1.000  H
  H218     1.0000 0.99690  0.82430  0.82950  Biso   1.000  H
  H219     1.0000 0.99690  0.67570  0.32950  Biso   1.000  H
  H220     1.0000 0.00310  0.17570  0.17050  Biso   1.000  H
  C281     1.0000 0.92920  0.26513  0.63530  Biso   1.000  C
  C282     1.0000 0.07080  0.76513  0.86470  Biso   1.000  C
  C283     1.0000 0.07080  0.73487  0.36470  Biso   1.000  C
  C284     1.0000 0.92920  0.23487  0.13530  Biso   1.000  C
  H221     1.0000 0.97540  0.24890  0.67700  Biso   1.000  H
  H222     1.0000 0.02460  0.74890  0.82300  Biso   1.000  H
  H223     1.0000 0.02460  0.75110  0.32300  Biso   1.000  H
  H224     1.0000 0.97540  0.25110  0.17700  Biso   1.000  H
  C285     1.0000 0.90300  0.38310  0.56370  Biso   1.000  C
  C286     1.0000 0.09700  0.88310  0.93630  Biso   1.000  C
  C287     1.0000 0.09700  0.61690  0.43630  Biso   1.000  C
  C288     1.0000 0.90300  0.11690  0.06370  Biso   1.000  C
  C289     1.0000 0.04940  0.86930  0.54150  Biso   1.000  C
  C290     1.0000 0.95060  0.36930  0.95850  Biso   1.000  C
  C291     1.0000 0.95060  0.13070  0.45850  Biso   1.000  C
  C292     1.0000 0.04940  0.63070  0.04150  Biso   1.000  C
  H225     1.0000 0.09030  0.88250  0.52470  Biso   1.000  H
  H226     1.0000 0.90970  0.38250  0.97530  Biso   1.000  H
  H227     1.0000 0.90970  0.11750  0.47530  Biso   1.000  H
  H228     1.0000 0.09030  0.61750  0.02470  Biso   1.000  H
  C293     1.0000 0.05010  0.82330  0.54750  Biso   1.000  C
  C294     1.0000 0.94990  0.32330  0.95250  Biso   1.000  C
  C295     1.0000 0.94990  0.17670  0.45250  Biso   1.000  C
  C296     1.0000 0.05010  0.67670  0.04750  Biso   1.000  C
  H229     1.0000 0.08890  0.80560  0.53340  Biso   1.000  H
  H230     1.0000 0.91110  0.30560  0.96660  Biso   1.000  H
  H231     1.0000 0.91110  0.19440  0.46660  Biso   1.000  H
  H232     1.0000 0.08890  0.69440  0.03340  Biso   1.000  H
  C297     1.0000 0.99490  0.80384  0.57360  Biso   1.000  C
  C298     1.0000 0.00510  0.30384  0.92640  Biso   1.000  C
  C299     1.0000 0.00510  0.19616  0.42640  Biso   1.000  C
  C300     1.0000 0.99490  0.69616  0.07360  Biso   1.000  C
  C301     1.0000 0.94000  0.83060  0.59170  Biso   1.000  C
  C302     1.0000 0.06000  0.33060  0.90830  Biso   1.000  C
  C303     1.0000 0.06000  0.16940  0.40830  Biso   1.000  C
  C304     1.0000 0.94000  0.66940  0.09170  Biso   1.000  C
  H233     1.0000 0.90140  0.81780  0.61070  Biso   1.000  H
  H234     1.0000 0.09860  0.31780  0.88930  Biso   1.000  H
  H235     1.0000 0.09860  0.18220  0.38930  Biso   1.000  H
  H236     1.0000 0.90140  0.68220  0.11070  Biso   1.000  H
  C305     1.0000 0.93860  0.87680  0.58310  Biso   1.000  C
  C306     1.0000 0.06140  0.37680  0.91690  Biso   1.000  C
  C307     1.0000 0.06140  0.12320  0.41690  Biso   1.000  C
  C308     1.0000 0.93860  0.62320  0.08310  Biso   1.000  C
  H237     1.0000 0.89770  0.89470  0.59500  Biso   1.000  H
  H238     1.0000 0.10230  0.39470  0.90500  Biso   1.000  H
  H239     1.0000 0.10230  0.10530  0.40500  Biso   1.000  H
  H240     1.0000 0.89770  0.60530  0.09500  Biso   1.000  H
  C309     1.0000 0.99530  0.75416  0.58150  Biso   1.000  C
  C310     1.0000 0.00470  0.25416  0.91850  Biso   1.000  C
  C311     1.0000 0.00470  0.24584  0.41850  Biso   1.000  C
  C312     1.0000 0.99530  0.74584  0.08150  Biso   1.000  C
  C313     1.0000 0.99930  0.72615  0.53200  Biso   1.000  C
  C314     1.0000 0.00070  0.22615  0.96800  Biso   1.000  C
  C315     1.0000 0.00070  0.27385  0.46800  Biso   1.000  C
  C316     1.0000 0.99930  0.77385  0.03200  Biso   1.000  C
  H241     1.0000 0.99830  0.73850  0.49110  Biso   1.000  H
  H242     1.0000 0.00170  0.23850  0.00890  Biso   1.000  H
  H243     1.0000 0.00170  0.26150  0.50890  Biso   1.000  H
  H244     1.0000 0.99830  0.76150  0.99110  Biso   1.000  H
  C317     1.0000 0.00470  0.68013  0.54150  Biso   1.000  C
  C318     1.0000 0.99530  0.18013  0.95850  Biso   1.000  C
  C319     1.0000 0.99530  0.31987  0.45850  Biso   1.000  C
  C320     1.0000 0.00470  0.81987  0.04150  Biso   1.000  C
  H245     1.0000 0.00760  0.66140  0.50710  Biso   1.000  H
  H246     1.0000 0.99240  0.16140  0.99290  Biso   1.000  H
  H247     1.0000 0.99240  0.33860  0.49290  Biso   1.000  H
  H248     1.0000 0.00760  0.83860  0.00710  Biso   1.000  H
  C321     1.0000 0.00590  0.66147  0.59990  Biso   1.000  C
  C322     1.0000 0.99410  0.16147  0.90010  Biso   1.000  C
  C323     1.0000 0.99410  0.33853  0.40010  Biso   1.000  C
  C324     1.0000 0.00590  0.83853  0.09990  Biso   1.000  C
  C325     1.0000 0.99710  0.68904  0.64850  Biso   1.000  C
  C326     1.0000 0.00290  0.18904  0.85150  Biso   1.000  C
  C327     1.0000 0.00290  0.31096  0.35150  Biso   1.000  C
  C328     1.0000 0.99710  0.81096  0.14850  Biso   1.000  C
  H249     1.0000 0.99530  0.67640  0.68810  Biso   1.000  H
  H250     1.0000 0.00470  0.17640  0.81190  Biso   1.000  H
  H251     1.0000 0.00470  0.32360  0.31190  Biso   1.000  H
  H252     1.0000 0.99530  0.82360  0.18810  Biso   1.000  H
  C329     1.0000 0.99110  0.73486  0.63910  Biso   1.000  C
  C330     1.0000 0.00890  0.23486  0.86090  Biso   1.000  C
  C331     1.0000 0.00890  0.26514  0.36090  Biso   1.000  C
  C332     1.0000 0.99110  0.76514  0.13910  Biso   1.000  C
  H253     1.0000 0.98400  0.75340  0.67200  Biso   1.000  H
  H254     1.0000 0.01600  0.25340  0.82800  Biso   1.000  H
  H255     1.0000 0.01600  0.24660  0.32800  Biso   1.000  H
  H256     1.0000 0.98400  0.74660  0.17200  Biso   1.000  H
  C333     1.0000 0.02150  0.61176  0.61510  Biso   1.000  C
  C334     1.0000 0.97850  0.11176  0.88490  Biso   1.000  C
  C335     1.0000 0.97850  0.38824  0.38490  Biso   1.000  C
  C336     1.0000 0.02150  0.88824  0.11510  Biso   1.000  C
  C337     1.0000 0.01530  0.49114  0.25710  Biso   1.000  C
  C338     1.0000 0.98470  0.99114  0.24290  Biso   1.000  C
  C339     1.0000 0.98470  0.50886  0.74290  Biso   1.000  C
  C340     1.0000 0.01530  0.00886  0.75710  Biso   1.000  C
  H257     1.0000 0.98610  0.46640  0.26780  Biso   1.000  H
  H258     1.0000 0.01390  0.96640  0.23220  Biso   1.000  H
  H259     1.0000 0.01390  0.53360  0.73220  Biso   1.000  H
  H260     1.0000 0.98610  0.03360  0.76780  Biso   1.000  H
  C341     1.0000 0.04970  0.48515  0.20930  Biso   1.000  C
  C342     1.0000 0.95030  0.98515  0.29070  Biso   1.000  C
  C343     1.0000 0.95030  0.51485  0.79070  Biso   1.000  C
  C344     1.0000 0.04970  0.01485  0.70930  Biso   1.000  C
  H261     1.0000 0.04180  0.45710  0.18660  Biso   1.000  H
  H262     1.0000 0.95820  0.95710  0.31340  Biso   1.000  H
  H263     1.0000 0.95820  0.54290  0.81340  Biso   1.000  H
  H264     1.0000 0.04180  0.04290  0.68660  Biso   1.000  H
  C345     1.0000 0.09570  0.52046  0.19470  Biso   1.000  C
  C346     1.0000 0.90430  0.02046  0.30530  Biso   1.000  C
  C347     1.0000 0.90430  0.47954  0.80530  Biso   1.000  C
  C348     1.0000 0.09570  0.97954  0.69470  Biso   1.000  C
  C349     1.0000 0.10220  0.55986  0.22760  Biso   1.000  C
  C350     1.0000 0.89780  0.05986  0.27240  Biso   1.000  C
  C351     1.0000 0.89780  0.44014  0.77240  Biso   1.000  C
  C352     1.0000 0.10220  0.94014  0.72760  Biso   1.000  C
  H265     1.0000 0.13220  0.58500  0.21870  Biso   1.000  H
  H266     1.0000 0.86780  0.08500  0.28130  Biso   1.000  H
  H267     1.0000 0.86780  0.41500  0.78130  Biso   1.000  H
  H268     1.0000 0.13220  0.91500  0.71870  Biso   1.000  H
  C353     1.0000 0.06540  0.56347  0.27410  Biso   1.000  C
  C354     1.0000 0.93460  0.06347  0.22590  Biso   1.000  C
  C355     1.0000 0.93460  0.43653  0.72590  Biso   1.000  C
  C356     1.0000 0.06540  0.93653  0.77410  Biso   1.000  C
  H269     1.0000 0.07200  0.59150  0.29660  Biso   1.000  H
  H270     1.0000 0.92800  0.09150  0.20340  Biso   1.000  H
  H271     1.0000 0.92800  0.40850  0.70340  Biso   1.000  H
  H272     1.0000 0.07200  0.90850  0.79660  Biso   1.000  H
  C357     1.0000 0.13880  0.51449  0.14720  Biso   1.000  C
  C358     1.0000 0.86120  0.01449  0.35280  Biso   1.000  C
  C359     1.0000 0.86120  0.48551  0.85280  Biso   1.000  C
  C360     1.0000 0.13880  0.98551  0.64720  Biso   1.000  C
  C361     1.0000 0.09450  0.48495  0.09020  Biso   1.000  C
  C362     1.0000 0.90550  0.98495  0.40980  Biso   1.000  C
  C363     1.0000 0.90550  0.51505  0.90980  Biso   1.000  C
  C364     1.0000 0.09450  0.01505  0.59020  Biso   1.000  C
  H273     1.0000 0.03480  0.46900  0.08080  Biso   1.000  H
  H274     1.0000 0.96520  0.96900  0.41920  Biso   1.000  H
  H275     1.0000 0.96520  0.53100  0.91920  Biso   1.000  H
  H276     1.0000 0.03480  0.03100  0.58080  Biso   1.000  H
  C365     1.0000 0.13590  0.47839  0.04670  Biso   1.000  C
  C366     1.0000 0.86410  0.97839  0.45330  Biso   1.000  C
  C367     1.0000 0.86410  0.52161  0.95330  Biso   1.000  C
  C368     1.0000 0.13590  0.02161  0.54670  Biso   1.000  C
  H277     1.0000 0.10350  0.45860  0.00700  Biso   1.000  H
  H278     1.0000 0.89650  0.95860  0.49300  Biso   1.000  H
  H279     1.0000 0.89650  0.54140  0.99300  Biso   1.000  H
  H280     1.0000 0.10350  0.04140  0.50700  Biso   1.000  H
  C369     1.0000 0.22360  0.50026  0.06040  Biso   1.000  C
  C370     1.0000 0.77640  0.00026  0.43960  Biso   1.000  C
  C371     1.0000 0.77640  0.49974  0.93960  Biso   1.000  C
  C372     1.0000 0.22360  0.99974  0.56040  Biso   1.000  C
  C373     1.0000 0.27060  0.53042  0.11770  Biso   1.000  C
  C374     1.0000 0.72940  0.03042  0.38230  Biso   1.000  C
  C375     1.0000 0.72940  0.46958  0.88230  Biso   1.000  C
  C376     1.0000 0.27060  0.96958  0.61770  Biso   1.000  C
  H281     1.0000 0.33130  0.54560  0.12750  Biso   1.000  H
  H282     1.0000 0.66870  0.04560  0.37250  Biso   1.000  H
  H283     1.0000 0.66870  0.45440  0.87250  Biso   1.000  H
  H284     1.0000 0.33130  0.95440  0.62750  Biso   1.000  H
  C377     1.0000 0.22650  0.53771  0.16020  Biso   1.000  C
  C378     1.0000 0.77350  0.03771  0.33980  Biso   1.000  C
  C379     1.0000 0.77350  0.46229  0.83980  Biso   1.000  C
  C380     1.0000 0.22650  0.96229  0.66020  Biso   1.000  C
  H285     1.0000 0.25640  0.55870  0.19830  Biso   1.000  H
  H286     1.0000 0.74360  0.05870  0.30170  Biso   1.000  H
  H287     1.0000 0.74360  0.44130  0.80170  Biso   1.000  H
  H288     1.0000 0.25640  0.94130  0.69830  Biso   1.000  H
  C381     1.0000 0.27210  0.49028  0.01700  Biso   1.000  C
  C382     1.0000 0.72790  0.99028  0.48300  Biso   1.000  C
  C383     1.0000 0.72790  0.50972  0.98300  Biso   1.000  C
  C384     1.0000 0.27210  0.00972  0.51700  Biso   1.000  C
