data_image0
_cell_length_a       15.144
_cell_length_b       30.066
_cell_length_c       21.804
_cell_angle_alpha    90
_cell_angle_beta     120.455
_cell_angle_gamma    90

_symmetry_space_group_name_H-M    "P 1"
_symmetry_int_tables_number       1

loop_
  _symmetry_equiv_pos_as_xyz
  'x, y, z'

loop_
  _atom_site_label
  _atom_site_occupancy
  _atom_site_fract_x
  _atom_site_fract_y
  _atom_site_fract_z
  _atom_site_thermal_displace_type
  _atom_site_B_iso_or_equiv
  _atom_site_type_symbol
  La1      1.0000 0.63088  0.53507  0.06166  Biso   1.000  La
  La2      1.0000 0.36912  0.03507  0.43834  Biso   1.000  La
  La3      1.0000 0.36912  0.46493  0.93834  Biso   1.000  La
  La4      1.0000 0.63088  0.96493  0.56166  Biso   1.000  La
  La5      1.0000 0.86266  0.46773  0.43870  Biso   1.000  La
  La6      1.0000 0.13734  0.96773  0.06130  Biso   1.000  La
  La7      1.0000 0.13734  0.53227  0.56130  Biso   1.000  La
  La8      1.0000 0.86266  0.03227  0.93870  Biso   1.000  La
  Cu1      1.0000 0.47562  0.53986  0.86518  Biso   1.000  Cu
  Cu2      1.0000 0.52438  0.03986  0.63482  Biso   1.000  Cu
  Cu3      1.0000 0.52438  0.46014  0.13482  Biso   1.000  Cu
  Cu4      1.0000 0.47562  0.96014  0.36518  Biso   1.000  Cu
  Cu5      1.0000 0.75343  0.49793  0.24690  Biso   1.000  Cu
  Cu6      1.0000 0.24657  0.99793  0.25310  Biso   1.000  Cu
  Cu7      1.0000 0.24657  0.50207  0.75310  Biso   1.000  Cu
  Cu8      1.0000 0.75343  0.00207  0.74690  Biso   1.000  Cu
  Cu9      1.0000 0.98210  0.53639  0.36545  Biso   1.000  Cu
  Cu10     1.0000 0.01790  0.03639  0.13455  Biso   1.000  Cu
  Cu11     1.0000 0.01790  0.46361  0.63455  Biso   1.000  Cu
  Cu12     1.0000 0.98210  0.96361  0.86545  Biso   1.000  Cu
  O1       1.0000 0.71340  0.47754  0.46060  Biso   1.000  O
  O2       1.0000 0.28660  0.97754  0.03940  Biso   1.000  O
  O3       1.0000 0.28660  0.52246  0.53940  Biso   1.000  O
  O4       1.0000 0.71340  0.02246  0.96060  Biso   1.000  O
  O5       1.0000 0.86120  0.50568  0.54340  Biso   1.000  O
  O6       1.0000 0.13880  0.00568  0.95660  Biso   1.000  O
  O7       1.0000 0.13880  0.49432  0.45660  Biso   1.000  O
  O8       1.0000 0.86120  0.99432  0.04340  Biso   1.000  O
  O9       1.0000 0.52070  0.58968  0.07270  Biso   1.000  O
  O10      1.0000 0.47930  0.08968  0.42730  Biso   1.000  O
  O11      1.0000 0.47930  0.41032  0.92730  Biso   1.000  O
  O12      1.0000 0.52070  0.91032  0.57270  Biso   1.000  O
  O13      1.0000 0.54080  0.59446  0.18220  Biso   1.000  O
  O14      1.0000 0.45920  0.09446  0.31780  Biso   1.000  O
  O15      1.0000 0.45920  0.40554  0.81780  Biso   1.000  O
  O16      1.0000 0.54080  0.90554  0.68220  Biso   1.000  O
  O17      1.0000 0.51940  0.60226  0.88070  Biso   1.000  O
  O18      1.0000 0.48060  0.10226  0.61930  Biso   1.000  O
  O19      1.0000 0.48060  0.39774  0.11930  Biso   1.000  O
  O20      1.0000 0.51940  0.89774  0.38070  Biso   1.000  O
  O21      1.0000 0.63960  0.60192  0.99570  Biso   1.000  O
  O22      1.0000 0.36040  0.10192  0.50430  Biso   1.000  O
  O23      1.0000 0.36040  0.39808  0.00430  Biso   1.000  O
  O24      1.0000 0.63960  0.89808  0.49570  Biso   1.000  O
  O25      1.0000 0.78980  0.56169  0.27160  Biso   1.000  O
  O26      1.0000 0.21020  0.06169  0.22840  Biso   1.000  O
  O27      1.0000 0.21020  0.43831  0.72840  Biso   1.000  O
  O28      1.0000 0.78980  0.93831  0.77160  Biso   1.000  O
  O29      1.0000 0.76270  0.57840  0.16470  Biso   1.000  O
  O30      1.0000 0.23730  0.07840  0.33530  Biso   1.000  O
  O31      1.0000 0.23730  0.42160  0.83530  Biso   1.000  O
  O32      1.0000 0.76270  0.92160  0.66470  Biso   1.000  O
  O33      1.0000 0.28650  0.56585  0.77240  Biso   1.000  O
  O34      1.0000 0.71350  0.06585  0.72760  Biso   1.000  O
  O35      1.0000 0.71350  0.43415  0.22760  Biso   1.000  O
  O36      1.0000 0.28650  0.93415  0.27240  Biso   1.000  O
  O37      1.0000 0.26600  0.57550  0.66490  Biso   1.000  O
  O38      1.0000 0.73400  0.07550  0.83510  Biso   1.000  O
  O39      1.0000 0.73400  0.42450  0.33510  Biso   1.000  O
  O40      1.0000 0.26600  0.92450  0.16490  Biso   1.000  O
  O41      1.0000 0.02540  0.59914  0.37990  Biso   1.000  O
  O42      1.0000 0.97460  0.09914  0.12010  Biso   1.000  O
  O43      1.0000 0.97460  0.40086  0.62010  Biso   1.000  O
  O44      1.0000 0.02540  0.90086  0.87990  Biso   1.000  O
  O45      1.0000 0.14940  0.59926  0.49510  Biso   1.000  O
  O46      1.0000 0.85060  0.09926  0.00490  Biso   1.000  O
  O47      1.0000 0.85060  0.40074  0.50490  Biso   1.000  O
  O48      1.0000 0.14940  0.90074  0.99510  Biso   1.000  O
  O49      1.0000 0.97460  0.41022  0.43250  Biso   1.000  O
  O50      1.0000 0.02540  0.91022  0.06750  Biso   1.000  O
  O51      1.0000 0.02540  0.58978  0.56750  Biso   1.000  O
  O52      1.0000 0.97460  0.08978  0.93250  Biso   1.000  O
  O53      1.0000 0.96760  0.40314  0.32880  Biso   1.000  O
  O54      1.0000 0.03240  0.90314  0.17120  Biso   1.000  O
  O55      1.0000 0.03240  0.59686  0.67120  Biso   1.000  O
  O56      1.0000 0.96760  0.09686  0.82880  Biso   1.000  O
  O57      1.0000 0.78410  0.52748  0.04180  Biso   1.000  O
  O58      1.0000 0.21590  0.02748  0.45820  Biso   1.000  O
  O59      1.0000 0.21590  0.47252  0.95820  Biso   1.000  O
  O60      1.0000 0.78410  0.97252  0.54180  Biso   1.000  O
  O61      1.0000 0.63670  0.49778  0.95830  Biso   1.000  O
  O62      1.0000 0.36330  0.99778  0.54170  Biso   1.000  O
  O63      1.0000 0.36330  0.50222  0.04170  Biso   1.000  O
  O64      1.0000 0.63670  0.00222  0.45830  Biso   1.000  O
  O65      1.0000 0.45780  0.53731  0.94780  Biso   1.000  O
  O66      1.0000 0.54220  0.03731  0.55220  Biso   1.000  O
  O67      1.0000 0.54220  0.46269  0.05220  Biso   1.000  O
  O68      1.0000 0.45780  0.96269  0.44780  Biso   1.000  O
  H1       1.0000 0.40590  0.50560  0.95190  Biso   1.000  H
  H2       1.0000 0.59410  0.00560  0.54810  Biso   1.000  H
  H3       1.0000 0.59410  0.49440  0.04810  Biso   1.000  H
  H4       1.0000 0.40590  0.99440  0.45190  Biso   1.000  H
  O69      1.0000 0.61590  0.51243  0.17050  Biso   1.000  O
  O70      1.0000 0.38410  0.01243  0.32950  Biso   1.000  O
  O71      1.0000 0.38410  0.48757  0.82950  Biso   1.000  O
  O72      1.0000 0.61590  0.98757  0.67050  Biso   1.000  O
  H5       1.0000 0.59030  0.53650  0.17850  Biso   1.000  H
  H6       1.0000 0.40970  0.03650  0.32150  Biso   1.000  H
  H7       1.0000 0.40970  0.46350  0.82150  Biso   1.000  H
  H8       1.0000 0.59030  0.96350  0.67850  Biso   1.000  H
  O73      1.0000 0.88540  0.48567  0.32910  Biso   1.000  O
  O74      1.0000 0.11460  0.98567  0.17090  Biso   1.000  O
  O75      1.0000 0.11460  0.51433  0.67090  Biso   1.000  O
  O76      1.0000 0.88540  0.01433  0.82910  Biso   1.000  O
  O77      1.0000 0.96550  0.53574  0.44850  Biso   1.000  O
  O78      1.0000 0.03450  0.03574  0.05150  Biso   1.000  O
  O79      1.0000 0.03450  0.46426  0.55150  Biso   1.000  O
  O80      1.0000 0.96550  0.96426  0.94850  Biso   1.000  O
  H9       1.0000 0.93080  0.55920  0.44290  Biso   1.000  H
  H10      1.0000 0.06920  0.05920  0.05710  Biso   1.000  H
  H11      1.0000 0.06920  0.44080  0.55710  Biso   1.000  H
  H12      1.0000 0.93080  0.94080  0.94290  Biso   1.000  H
  O81      1.0000 0.78020  0.47930  0.14530  Biso   1.000  O
  O82      1.0000 0.21980  0.97930  0.35470  Biso   1.000  O
  O83      1.0000 0.21980  0.52070  0.85470  Biso   1.000  O
  O84      1.0000 0.78020  0.02070  0.64530  Biso   1.000  O
  H13      1.0000 0.76960  0.44720  0.14440  Biso   1.000  H
  H14      1.0000 0.23040  0.94720  0.35560  Biso   1.000  H
  H15      1.0000 0.23040  0.55280  0.85560  Biso   1.000  H
  H16      1.0000 0.76960  0.05280  0.64440  Biso   1.000  H
  H17      1.0000 0.74090  0.46490  0.11920  Biso   1.000  H
  H18      1.0000 0.25910  0.96490  0.38080  Biso   1.000  H
  H19      1.0000 0.25910  0.53510  0.88080  Biso   1.000  H
  H20      1.0000 0.74090  0.03510  0.61920  Biso   1.000  H
  O85      1.0000 0.74030  0.53205  0.36840  Biso   1.000  O
  O86      1.0000 0.25970  0.03205  0.13160  Biso   1.000  O
  O87      1.0000 0.25970  0.46795  0.63160  Biso   1.000  O
  O88      1.0000 0.74030  0.96795  0.86840  Biso   1.000  O
  H21      1.0000 0.70050  0.51300  0.34430  Biso   1.000  H
  H22      1.0000 0.29950  0.01300  0.15570  Biso   1.000  H
  H23      1.0000 0.29950  0.48700  0.65570  Biso   1.000  H
  H24      1.0000 0.70050  0.98700  0.84430  Biso   1.000  H
  H25      1.0000 0.74410  0.54170  0.34450  Biso   1.000  H
  H26      1.0000 0.25590  0.04170  0.15550  Biso   1.000  H
  H27      1.0000 0.25590  0.45830  0.65550  Biso   1.000  H
  H28      1.0000 0.74410  0.95830  0.84450  Biso   1.000  H
  N1       1.0000 0.52020  0.53667  0.79270  Biso   1.000  N
  N2       1.0000 0.47980  0.03667  0.70730  Biso   1.000  N
  N3       1.0000 0.47980  0.46333  0.20730  Biso   1.000  N
  N4       1.0000 0.52020  0.96333  0.29270  Biso   1.000  N
  N5       1.0000 0.48100  0.89540  0.06500  Biso   1.000  N
  N6       1.0000 0.51900  0.39540  0.43500  Biso   1.000  N
  N7       1.0000 0.51900  0.10460  0.93500  Biso   1.000  N
  N8       1.0000 0.48100  0.60460  0.56500  Biso   1.000  N
  N9       1.0000 0.67160  0.90170  0.91540  Biso   1.000  N
  N10      1.0000 0.32840  0.40170  0.58460  Biso   1.000  N
  N11      1.0000 0.32840  0.09830  0.08460  Biso   1.000  N
  N12      1.0000 0.67160  0.59830  0.41540  Biso   1.000  N
  N13      1.0000 0.84270  0.87070  0.30910  Biso   1.000  N
  N14      1.0000 0.15730  0.37070  0.19090  Biso   1.000  N
  N15      1.0000 0.15730  0.12930  0.69090  Biso   1.000  N
  N16      1.0000 0.84270  0.62930  0.80910  Biso   1.000  N
  N17      1.0000 0.32120  0.87360  0.77750  Biso   1.000  N
  N18      1.0000 0.67880  0.37360  0.72250  Biso   1.000  N
  N19      1.0000 0.67880  0.12640  0.22250  Biso   1.000  N
  N20      1.0000 0.32120  0.62640  0.27750  Biso   1.000  N
  N21      1.0000 0.20020  0.89680  0.39880  Biso   1.000  N
  N22      1.0000 0.79980  0.39680  0.10120  Biso   1.000  N
  N23      1.0000 0.79980  0.10320  0.60120  Biso   1.000  N
  N24      1.0000 0.20020  0.60320  0.89880  Biso   1.000  N
  N25      1.0000 0.00840  0.10450  0.44220  Biso   1.000  N
  N26      1.0000 0.99160  0.60450  0.05780  Biso   1.000  N
  N27      1.0000 0.99160  0.89550  0.55780  Biso   1.000  N
  N28      1.0000 0.00840  0.39550  0.94220  Biso   1.000  N
  N29      1.0000 0.97730  0.46857  0.70900  Biso   1.000  N
  N30      1.0000 0.02270  0.96857  0.79100  Biso   1.000  N
  N31      1.0000 0.02270  0.53143  0.29100  Biso   1.000  N
  N32      1.0000 0.97730  0.03143  0.20900  Biso   1.000  N
  C1       1.0000 0.47190  0.51300  0.73570  Biso   1.000  C
  C2       1.0000 0.52810  0.01300  0.76430  Biso   1.000  C
  C3       1.0000 0.52810  0.48700  0.26430  Biso   1.000  C
  C4       1.0000 0.47190  0.98700  0.23570  Biso   1.000  C
  H29      1.0000 0.40980  0.49900  0.72560  Biso   1.000  H
  H30      1.0000 0.59020  0.99900  0.77440  Biso   1.000  H
  H31      1.0000 0.59020  0.50100  0.27440  Biso   1.000  H
  H32      1.0000 0.40980  0.00100  0.22560  Biso   1.000  H
  C5       1.0000 0.50720  0.50710  0.68830  Biso   1.000  C
  C6       1.0000 0.49280  0.00710  0.81170  Biso   1.000  C
  C7       1.0000 0.49280  0.49290  0.31170  Biso   1.000  C
  C8       1.0000 0.50720  0.99290  0.18830  Biso   1.000  C
  H33      1.0000 0.46980  0.48860  0.64790  Biso   1.000  H
  H34      1.0000 0.53020  0.98860  0.85210  Biso   1.000  H
  H35      1.0000 0.53020  0.51140  0.35210  Biso   1.000  H
  H36      1.0000 0.46980  0.01140  0.14790  Biso   1.000  H
  C9       1.0000 0.59480  0.52760  0.69880  Biso   1.000  C
  C10      1.0000 0.40520  0.02760  0.80120  Biso   1.000  C
  C11      1.0000 0.40520  0.47240  0.30120  Biso   1.000  C
  C12      1.0000 0.59480  0.97240  0.19880  Biso   1.000  C
  C13      1.0000 0.64190  0.55550  0.75790  Biso   1.000  C
  C14      1.0000 0.35810  0.05550  0.74210  Biso   1.000  C
  C15      1.0000 0.35810  0.44450  0.24210  Biso   1.000  C
  C16      1.0000 0.64190  0.94450  0.25790  Biso   1.000  C
  H37      1.0000 0.70100  0.57190  0.76730  Biso   1.000  H
  H38      1.0000 0.29900  0.07190  0.73270  Biso   1.000  H
  H39      1.0000 0.29900  0.42810  0.23270  Biso   1.000  H
  H40      1.0000 0.70100  0.92810  0.26730  Biso   1.000  H
  C17      1.0000 0.60280  0.55930  0.80310  Biso   1.000  C
  C18      1.0000 0.39720  0.05930  0.69690  Biso   1.000  C
  C19      1.0000 0.39720  0.44070  0.19690  Biso   1.000  C
  C20      1.0000 0.60280  0.94070  0.30310  Biso   1.000  C
  H41      1.0000 0.63580  0.57870  0.84280  Biso   1.000  H
  H42      1.0000 0.36420  0.07870  0.65720  Biso   1.000  H
  H43      1.0000 0.36420  0.42130  0.15720  Biso   1.000  H
  H44      1.0000 0.63580  0.92130  0.34280  Biso   1.000  H
  C21      1.0000 0.63710  0.52070  0.65130  Biso   1.000  C
  C22      1.0000 0.36290  0.02070  0.84870  Biso   1.000  C
  C23      1.0000 0.36290  0.47930  0.34870  Biso   1.000  C
  C24      1.0000 0.63710  0.97930  0.15130  Biso   1.000  C
  C25      1.0000 0.59710  0.48790  0.59870  Biso   1.000  C
  C26      1.0000 0.40290  0.98790  0.90130  Biso   1.000  C
  C27      1.0000 0.40290  0.51210  0.40130  Biso   1.000  C
  C28      1.0000 0.59710  0.01210  0.09870  Biso   1.000  C
  H45      1.0000 0.54130  0.47020  0.59270  Biso   1.000  H
  H46      1.0000 0.45870  0.97020  0.90730  Biso   1.000  H
  H47      1.0000 0.45870  0.52980  0.40730  Biso   1.000  H
  H48      1.0000 0.54130  0.02980  0.09270  Biso   1.000  H
  C29      1.0000 0.63760  0.48080  0.55520  Biso   1.000  C
  C30      1.0000 0.36240  0.98080  0.94480  Biso   1.000  C
  C31      1.0000 0.36240  0.51920  0.44480  Biso   1.000  C
  C32      1.0000 0.63760  0.01920  0.05520  Biso   1.000  C
  H49      1.0000 0.60870  0.45890  0.51890  Biso   1.000  H
  H50      1.0000 0.39130  0.95890  0.98110  Biso   1.000  H
  H51      1.0000 0.39130  0.54110  0.48110  Biso   1.000  H
  H52      1.0000 0.60870  0.04110  0.01890  Biso   1.000  H
  C33      1.0000 0.72040  0.50590  0.56470  Biso   1.000  C
  C34      1.0000 0.27960  0.00590  0.93530  Biso   1.000  C
  C35      1.0000 0.27960  0.49410  0.43530  Biso   1.000  C
  C36      1.0000 0.72040  0.99410  0.06470  Biso   1.000  C
  C37      1.0000 0.75850  0.53860  0.61560  Biso   1.000  C
  C38      1.0000 0.24150  0.03860  0.88440  Biso   1.000  C
  C39      1.0000 0.24150  0.46140  0.38440  Biso   1.000  C
  C40      1.0000 0.75850  0.96140  0.11560  Biso   1.000  C
  H53      1.0000 0.81420  0.55640  0.62170  Biso   1.000  H
  H54      1.0000 0.18580  0.05640  0.87830  Biso   1.000  H
  H55      1.0000 0.18580  0.44360  0.37830  Biso   1.000  H
  H56      1.0000 0.81420  0.94360  0.12170  Biso   1.000  H
  C41      1.0000 0.71700  0.54580  0.65790  Biso   1.000  C
  C42      1.0000 0.28300  0.04580  0.84210  Biso   1.000  C
  C43      1.0000 0.28300  0.45420  0.34210  Biso   1.000  C
  C44      1.0000 0.71700  0.95420  0.15790  Biso   1.000  C
  H57      1.0000 0.74430  0.56880  0.69260  Biso   1.000  H
  H58      1.0000 0.25570  0.06880  0.80740  Biso   1.000  H
  H59      1.0000 0.25570  0.43120  0.30740  Biso   1.000  H
  H60      1.0000 0.74430  0.93120  0.19260  Biso   1.000  H
  C45      1.0000 0.76670  0.49590  0.51920  Biso   1.000  C
  C46      1.0000 0.23330  0.99590  0.98080  Biso   1.000  C
  C47      1.0000 0.23330  0.50410  0.48080  Biso   1.000  C
  C48      1.0000 0.76670  0.00410  0.01920  Biso   1.000  C
  C49      1.0000 0.44750  0.87570  0.10510  Biso   1.000  C
  C50      1.0000 0.55250  0.37570  0.39490  Biso   1.000  C
  C51      1.0000 0.55250  0.12430  0.89490  Biso   1.000  C
  C52      1.0000 0.44750  0.62430  0.60510  Biso   1.000  C
  H61      1.0000 0.41600  0.89360  0.12460  Biso   1.000  H
  H62      1.0000 0.58400  0.39360  0.37540  Biso   1.000  H
  H63      1.0000 0.58400  0.10640  0.87540  Biso   1.000  H
  H64      1.0000 0.41600  0.60640  0.62460  Biso   1.000  H
  C53      1.0000 0.45690  0.83050  0.11910  Biso   1.000  C
  C54      1.0000 0.54310  0.33050  0.38090  Biso   1.000  C
  C55      1.0000 0.54310  0.16950  0.88090  Biso   1.000  C
  C56      1.0000 0.45690  0.66950  0.61910  Biso   1.000  C
  H65      1.0000 0.43470  0.81830  0.14920  Biso   1.000  H
  H66      1.0000 0.56530  0.31830  0.35080  Biso   1.000  H
  H67      1.0000 0.56530  0.18170  0.85080  Biso   1.000  H
  H68      1.0000 0.43470  0.68170  0.64920  Biso   1.000  H
  C57      1.0000 0.49870  0.80290  0.08930  Biso   1.000  C
  C58      1.0000 0.50130  0.30290  0.41070  Biso   1.000  C
  C59      1.0000 0.50130  0.19710  0.91070  Biso   1.000  C
  C60      1.0000 0.49870  0.69710  0.58930  Biso   1.000  C
  C61      1.0000 0.53250  0.82370  0.04980  Biso   1.000  C
  C62      1.0000 0.46750  0.32370  0.45020  Biso   1.000  C
  C63      1.0000 0.46750  0.17630  0.95020  Biso   1.000  C
  C64      1.0000 0.53250  0.67630  0.54980  Biso   1.000  C
  H69      1.0000 0.56220  0.80670  0.02820  Biso   1.000  H
  H70      1.0000 0.43780  0.30670  0.47180  Biso   1.000  H
  H71      1.0000 0.43780  0.19330  0.97180  Biso   1.000  H
  H72      1.0000 0.56220  0.69330  0.52820  Biso   1.000  H
  C65      1.0000 0.52430  0.86910  0.04060  Biso   1.000  C
  C66      1.0000 0.47570  0.36910  0.45940  Biso   1.000  C
  C67      1.0000 0.47570  0.13090  0.95940  Biso   1.000  C
  C68      1.0000 0.52430  0.63090  0.54060  Biso   1.000  C
  H73      1.0000 0.55230  0.88210  0.01450  Biso   1.000  H
  H74      1.0000 0.44770  0.38210  0.48550  Biso   1.000  H
  H75      1.0000 0.44770  0.11790  0.98550  Biso   1.000  H
  H76      1.0000 0.55230  0.61790  0.51450  Biso   1.000  H
  C69      1.0000 0.50530  0.75420  0.09990  Biso   1.000  C
  C70      1.0000 0.49470  0.25420  0.40010  Biso   1.000  C
  C71      1.0000 0.49470  0.24580  0.90010  Biso   1.000  C
  C72      1.0000 0.50530  0.74580  0.59990  Biso   1.000  C
  C73      1.0000 0.51870  0.73410  0.16180  Biso   1.000  C
  C74      1.0000 0.48130  0.23410  0.33820  Biso   1.000  C
  C75      1.0000 0.48130  0.26590  0.83820  Biso   1.000  C
  C76      1.0000 0.51870  0.76590  0.66180  Biso   1.000  C
  H77      1.0000 0.52470  0.75240  0.19930  Biso   1.000  H
  H78      1.0000 0.47530  0.25240  0.30070  Biso   1.000  H
  H79      1.0000 0.47530  0.24760  0.80070  Biso   1.000  H
  H80      1.0000 0.52470  0.74760  0.69930  Biso   1.000  H
  C77      1.0000 0.52360  0.68780  0.17050  Biso   1.000  C
  C78      1.0000 0.47640  0.18780  0.32950  Biso   1.000  C
  C79      1.0000 0.47640  0.31220  0.82950  Biso   1.000  C
  C80      1.0000 0.52360  0.81220  0.67050  Biso   1.000  C
  H81      1.0000 0.53410  0.67480  0.21340  Biso   1.000  H
  H82      1.0000 0.46590  0.17480  0.28660  Biso   1.000  H
  H83      1.0000 0.46590  0.32520  0.78660  Biso   1.000  H
  H84      1.0000 0.53410  0.82520  0.71340  Biso   1.000  H
  C81      1.0000 0.51270  0.66150  0.11490  Biso   1.000  C
  C82      1.0000 0.48730  0.16150  0.38510  Biso   1.000  C
  C83      1.0000 0.48730  0.33850  0.88510  Biso   1.000  C
  C84      1.0000 0.51270  0.83850  0.61490  Biso   1.000  C
  C85      1.0000 0.50000  0.68040  0.05370  Biso   1.000  C
  C86      1.0000 0.50000  0.18040  0.44630  Biso   1.000  C
  C87      1.0000 0.50000  0.31960  0.94630  Biso   1.000  C
  C88      1.0000 0.50000  0.81960  0.55370  Biso   1.000  C
  H85      1.0000 0.49540  0.66200  0.01670  Biso   1.000  H
  H86      1.0000 0.50460  0.16200  0.48330  Biso   1.000  H
  H87      1.0000 0.50460  0.33800  0.98330  Biso   1.000  H
  H88      1.0000 0.49540  0.83800  0.51670  Biso   1.000  H
  C89      1.0000 0.49400  0.72660  0.04540  Biso   1.000  C
  C90      1.0000 0.50600  0.22660  0.45460  Biso   1.000  C
  C91      1.0000 0.50600  0.27340  0.95460  Biso   1.000  C
  C92      1.0000 0.49400  0.77340  0.54540  Biso   1.000  C
  H89      1.0000 0.48200  0.73930  0.00190  Biso   1.000  H
  H90      1.0000 0.51800  0.23930  0.49810  Biso   1.000  H
  H91      1.0000 0.51800  0.26070  0.99810  Biso   1.000  H
  H92      1.0000 0.48200  0.76070  0.50190  Biso   1.000  H
  C93      1.0000 0.52530  0.61080  0.12640  Biso   1.000  C
  C94      1.0000 0.47470  0.11080  0.37360  Biso   1.000  C
  C95      1.0000 0.47470  0.38920  0.87360  Biso   1.000  C
  C96      1.0000 0.52530  0.88920  0.62640  Biso   1.000  C
  C97      1.0000 0.58450  0.88110  0.87000  Biso   1.000  C
  C98      1.0000 0.41550  0.38110  0.63000  Biso   1.000  C
  C99      1.0000 0.41550  0.11890  0.13000  Biso   1.000  C
  C100     1.0000 0.58450  0.61890  0.37000  Biso   1.000  C
  H93      1.0000 0.53010  0.89840  0.83440  Biso   1.000  H
  H94      1.0000 0.46990  0.39840  0.66560  Biso   1.000  H
  H95      1.0000 0.46990  0.10160  0.16560  Biso   1.000  H
  H96      1.0000 0.53010  0.60160  0.33440  Biso   1.000  H
  C101     1.0000 0.56960  0.83540  0.87220  Biso   1.000  C
  C102     1.0000 0.43040  0.33540  0.62780  Biso   1.000  C
  C103     1.0000 0.43040  0.16460  0.12780  Biso   1.000  C
  C104     1.0000 0.56960  0.66460  0.37220  Biso   1.000  C
  H97      1.0000 0.50580  0.82200  0.83970  Biso   1.000  H
  H98      1.0000 0.49420  0.32200  0.66030  Biso   1.000  H
  H99      1.0000 0.49420  0.17800  0.16030  Biso   1.000  H
  H100     1.0000 0.50580  0.67800  0.33970  Biso   1.000  H
  C105     1.0000 0.65040  0.80980  0.92330  Biso   1.000  C
  C106     1.0000 0.34960  0.30980  0.57670  Biso   1.000  C
  C107     1.0000 0.34960  0.19020  0.07670  Biso   1.000  C
  C108     1.0000 0.65040  0.69020  0.42330  Biso   1.000  C
  C109     1.0000 0.73790  0.83200  0.97240  Biso   1.000  C
  C110     1.0000 0.26210  0.33200  0.52760  Biso   1.000  C
  C111     1.0000 0.26210  0.16800  0.02760  Biso   1.000  C
  C112     1.0000 0.73790  0.66800  0.47240  Biso   1.000  C
  H101     1.0000 0.79280  0.81630  0.01050  Biso   1.000  H
  H102     1.0000 0.20720  0.31630  0.48950  Biso   1.000  H
  H103     1.0000 0.20720  0.18370  0.98950  Biso   1.000  H
  H104     1.0000 0.79280  0.68370  0.51050  Biso   1.000  H
  C113     1.0000 0.74440  0.87710  0.96520  Biso   1.000  C
  C114     1.0000 0.25560  0.37710  0.53480  Biso   1.000  C
  C115     1.0000 0.25560  0.12290  0.03480  Biso   1.000  C
  C116     1.0000 0.74440  0.62290  0.46520  Biso   1.000  C
  H105     1.0000 0.80600  0.89160  0.99870  Biso   1.000  H
  H106     1.0000 0.19400  0.39160  0.50130  Biso   1.000  H
  H107     1.0000 0.19400  0.10840  0.00130  Biso   1.000  H
  H108     1.0000 0.80600  0.60840  0.49870  Biso   1.000  H
  C117     1.0000 0.63960  0.76060  0.92620  Biso   1.000  C
  C118     1.0000 0.36040  0.26060  0.57380  Biso   1.000  C
  C119     1.0000 0.36040  0.23940  0.07380  Biso   1.000  C
  C120     1.0000 0.63960  0.73940  0.42620  Biso   1.000  C
  C121     1.0000 0.68980  0.73790  0.98880  Biso   1.000  C
  C122     1.0000 0.31020  0.23790  0.51120  Biso   1.000  C
  C123     1.0000 0.31020  0.26210  0.01120  Biso   1.000  C
  C124     1.0000 0.68980  0.76210  0.48880  Biso   1.000  C
  H109     1.0000 0.73530  0.75340  0.03130  Biso   1.000  H
  H110     1.0000 0.26470  0.25340  0.46870  Biso   1.000  H
  H111     1.0000 0.26470  0.24660  0.96870  Biso   1.000  H
  H112     1.0000 0.73530  0.74660  0.53130  Biso   1.000  H
  C125     1.0000 0.67540  0.69230  0.99180  Biso   1.000  C
  C126     1.0000 0.32460  0.19230  0.50820  Biso   1.000  C
  C127     1.0000 0.32460  0.30770  0.00820  Biso   1.000  C
  C128     1.0000 0.67540  0.80770  0.49180  Biso   1.000  C
  H113     1.0000 0.71200  0.67700  0.03590  Biso   1.000  H
  H114     1.0000 0.28800  0.17700  0.46410  Biso   1.000  H
  H115     1.0000 0.28800  0.32300  0.96410  Biso   1.000  H
  H116     1.0000 0.71200  0.82300  0.53590  Biso   1.000  H
  C129     1.0000 0.60860  0.66940  0.93120  Biso   1.000  C
  C130     1.0000 0.39140  0.16940  0.56880  Biso   1.000  C
  C131     1.0000 0.39140  0.33060  0.06880  Biso   1.000  C
  C132     1.0000 0.60860  0.83060  0.43120  Biso   1.000  C
  C133     1.0000 0.55800  0.69130  0.86690  Biso   1.000  C
  C134     1.0000 0.44200  0.19130  0.63310  Biso   1.000  C
  C135     1.0000 0.44200  0.30870  0.13310  Biso   1.000  C
  C136     1.0000 0.55800  0.80870  0.36690  Biso   1.000  C
  H117     1.0000 0.51340  0.67560  0.82450  Biso   1.000  H
  H118     1.0000 0.48660  0.17560  0.67550  Biso   1.000  H
  H119     1.0000 0.48660  0.32440  0.17550  Biso   1.000  H
  H120     1.0000 0.51340  0.82440  0.32450  Biso   1.000  H
  C137     1.0000 0.57320  0.73700  0.86490  Biso   1.000  C
  C138     1.0000 0.42680  0.23700  0.63510  Biso   1.000  C
  C139     1.0000 0.42680  0.26300  0.13510  Biso   1.000  C
  C140     1.0000 0.57320  0.76300  0.36490  Biso   1.000  C
  H121     1.0000 0.53750  0.75230  0.82080  Biso   1.000  H
  H122     1.0000 0.46250  0.25230  0.67920  Biso   1.000  H
  H123     1.0000 0.46250  0.24770  0.17920  Biso   1.000  H
  H124     1.0000 0.53750  0.74770  0.32080  Biso   1.000  H
  C141     1.0000 0.58930  0.62020  0.93770  Biso   1.000  C
  C142     1.0000 0.41070  0.12020  0.56230  Biso   1.000  C
  C143     1.0000 0.41070  0.37980  0.06230  Biso   1.000  C
  C144     1.0000 0.58930  0.87980  0.43770  Biso   1.000  C
  C145     1.0000 0.85020  0.85170  0.25700  Biso   1.000  C
  C146     1.0000 0.14980  0.35170  0.24300  Biso   1.000  C
  C147     1.0000 0.14980  0.14830  0.74300  Biso   1.000  C
  C148     1.0000 0.85020  0.64830  0.75700  Biso   1.000  C
  H125     1.0000 0.86760  0.87020  0.22930  Biso   1.000  H
  H126     1.0000 0.13240  0.37020  0.27070  Biso   1.000  H
  H127     1.0000 0.13240  0.12980  0.77070  Biso   1.000  H
  H128     1.0000 0.86760  0.62980  0.72930  Biso   1.000  H
  C149     1.0000 0.83470  0.80740  0.24020  Biso   1.000  C
  C150     1.0000 0.16530  0.30740  0.25980  Biso   1.000  C
  C151     1.0000 0.16530  0.19260  0.75980  Biso   1.000  C
  C152     1.0000 0.83470  0.69260  0.74020  Biso   1.000  C
  H129     1.0000 0.84040  0.79580  0.20180  Biso   1.000  H
  H130     1.0000 0.15960  0.29580  0.29820  Biso   1.000  H
  H131     1.0000 0.15960  0.20420  0.79820  Biso   1.000  H
  H132     1.0000 0.84040  0.70420  0.70180  Biso   1.000  H
  C153     1.0000 0.80960  0.77860  0.28210  Biso   1.000  C
  C154     1.0000 0.19040  0.27860  0.21790  Biso   1.000  C
  C155     1.0000 0.19040  0.22140  0.71790  Biso   1.000  C
  C156     1.0000 0.80960  0.72140  0.78210  Biso   1.000  C
  C157     1.0000 0.80160  0.79840  0.33640  Biso   1.000  C
  C158     1.0000 0.19840  0.29840  0.16360  Biso   1.000  C
  C159     1.0000 0.19840  0.20160  0.66360  Biso   1.000  C
  C160     1.0000 0.80160  0.70160  0.83640  Biso   1.000  C
  H133     1.0000 0.78460  0.78120  0.36550  Biso   1.000  H
  H134     1.0000 0.21540  0.28120  0.13450  Biso   1.000  H
  H135     1.0000 0.21540  0.21880  0.63450  Biso   1.000  H
  H136     1.0000 0.78460  0.71880  0.86550  Biso   1.000  H
  C161     1.0000 0.81900  0.84380  0.34760  Biso   1.000  C
  C162     1.0000 0.18100  0.34380  0.15240  Biso   1.000  C
  C163     1.0000 0.18100  0.15620  0.65240  Biso   1.000  C
  C164     1.0000 0.81900  0.65620  0.84760  Biso   1.000  C
  H137     1.0000 0.81370  0.85670  0.38540  Biso   1.000  H
  H138     1.0000 0.18630  0.35670  0.11460  Biso   1.000  H
  H139     1.0000 0.18630  0.14330  0.61460  Biso   1.000  H
  H140     1.0000 0.81370  0.64330  0.88540  Biso   1.000  H
  C165     1.0000 0.79670  0.72980  0.26800  Biso   1.000  C
  C166     1.0000 0.20330  0.22980  0.23200  Biso   1.000  C
  C167     1.0000 0.20330  0.27020  0.73200  Biso   1.000  C
  C168     1.0000 0.79670  0.77020  0.76800  Biso   1.000  C
  C169     1.0000 0.78180  0.71370  0.20520  Biso   1.000  C
  C170     1.0000 0.21820  0.21370  0.29480  Biso   1.000  C
  C171     1.0000 0.21820  0.28630  0.79480  Biso   1.000  C
  C172     1.0000 0.78180  0.78630  0.70520  Biso   1.000  C
  H141     1.0000 0.77440  0.73400  0.16950  Biso   1.000  H
  H142     1.0000 0.22560  0.23400  0.33050  Biso   1.000  H
  H143     1.0000 0.22560  0.26600  0.83050  Biso   1.000  H
  H144     1.0000 0.77440  0.76600  0.66950  Biso   1.000  H
  C173     1.0000 0.77720  0.66830  0.19150  Biso   1.000  C
  C174     1.0000 0.22280  0.16830  0.30850  Biso   1.000  C
  C175     1.0000 0.22280  0.33170  0.80850  Biso   1.000  C
  C176     1.0000 0.77720  0.83170  0.69150  Biso   1.000  C
  H145     1.0000 0.76780  0.65810  0.14730  Biso   1.000  H
  H146     1.0000 0.23220  0.15810  0.35270  Biso   1.000  H
  H147     1.0000 0.23220  0.34190  0.85270  Biso   1.000  H
  H148     1.0000 0.76780  0.84190  0.64730  Biso   1.000  H
  C177     1.0000 0.78610  0.63800  0.24140  Biso   1.000  C
  C178     1.0000 0.21390  0.13800  0.25860  Biso   1.000  C
  C179     1.0000 0.21390  0.36200  0.75860  Biso   1.000  C
  C180     1.0000 0.78610  0.86200  0.74140  Biso   1.000  C
  C181     1.0000 0.79610  0.65370  0.30530  Biso   1.000  C
  C182     1.0000 0.20390  0.15370  0.19470  Biso   1.000  C
  C183     1.0000 0.20390  0.34630  0.69470  Biso   1.000  C
  C184     1.0000 0.79610  0.84630  0.80530  Biso   1.000  C
  H149     1.0000 0.79930  0.63340  0.33970  Biso   1.000  H
  H150     1.0000 0.20070  0.13340  0.16030  Biso   1.000  H
  H151     1.0000 0.20070  0.36660  0.66030  Biso   1.000  H
  H152     1.0000 0.79930  0.86660  0.83970  Biso   1.000  H
  C185     1.0000 0.80140  0.69920  0.31760  Biso   1.000  C
  C186     1.0000 0.19860  0.19920  0.18240  Biso   1.000  C
  C187     1.0000 0.19860  0.30080  0.68240  Biso   1.000  C
  C188     1.0000 0.80140  0.80080  0.81760  Biso   1.000  C
  H153     1.0000 0.80840  0.70970  0.36090  Biso   1.000  H
  H154     1.0000 0.19160  0.20970  0.13910  Biso   1.000  H
  H155     1.0000 0.19160  0.29030  0.63910  Biso   1.000  H
  H156     1.0000 0.80840  0.79030  0.86090  Biso   1.000  H
  C189     1.0000 0.77830  0.59020  0.22460  Biso   1.000  C
  C190     1.0000 0.22170  0.09020  0.27540  Biso   1.000  C
  C191     1.0000 0.22170  0.40980  0.77540  Biso   1.000  C
  C192     1.0000 0.77830  0.90980  0.72460  Biso   1.000  C
  C193     1.0000 0.29700  0.84910  0.81800  Biso   1.000  C
  C194     1.0000 0.70300  0.34910  0.68200  Biso   1.000  C
  C195     1.0000 0.70300  0.15090  0.18200  Biso   1.000  C
  C196     1.0000 0.29700  0.65090  0.31800  Biso   1.000  C
  H157     1.0000 0.28960  0.86320  0.85410  Biso   1.000  H
  H158     1.0000 0.71040  0.36320  0.64590  Biso   1.000  H
  H159     1.0000 0.71040  0.13680  0.14590  Biso   1.000  H
  H160     1.0000 0.28960  0.63680  0.35410  Biso   1.000  H
  C197     1.0000 0.28210  0.80250  0.80830  Biso   1.000  C
  C198     1.0000 0.71790  0.30250  0.69170  Biso   1.000  C
  C199     1.0000 0.71790  0.19750  0.19170  Biso   1.000  C
  C200     1.0000 0.28210  0.69750  0.30830  Biso   1.000  C
  H161     1.0000 0.26240  0.78600  0.83660  Biso   1.000  H
  H162     1.0000 0.73760  0.28600  0.66340  Biso   1.000  H
  H163     1.0000 0.73760  0.21400  0.16340  Biso   1.000  H
  H164     1.0000 0.26240  0.71400  0.33660  Biso   1.000  H
  C201     1.0000 0.29590  0.78080  0.75800  Biso   1.000  C
  C202     1.0000 0.70410  0.28080  0.74200  Biso   1.000  C
  C203     1.0000 0.70410  0.21920  0.24200  Biso   1.000  C
  C204     1.0000 0.29590  0.71920  0.25800  Biso   1.000  C
  C205     1.0000 0.32070  0.80760  0.71710  Biso   1.000  C
  C206     1.0000 0.67930  0.30760  0.78290  Biso   1.000  C
  C207     1.0000 0.67930  0.19240  0.28290  Biso   1.000  C
  C208     1.0000 0.32070  0.69240  0.21710  Biso   1.000  C
  H165     1.0000 0.33170  0.79450  0.68190  Biso   1.000  H
  H166     1.0000 0.66830  0.29450  0.81810  Biso   1.000  H
  H167     1.0000 0.66830  0.20550  0.31810  Biso   1.000  H
  H168     1.0000 0.33170  0.70550  0.18190  Biso   1.000  H
  C209     1.0000 0.32970  0.85360  0.72680  Biso   1.000  C
  C210     1.0000 0.67030  0.35360  0.77320  Biso   1.000  C
  C211     1.0000 0.67030  0.14640  0.27320  Biso   1.000  C
  C212     1.0000 0.32970  0.64640  0.22680  Biso   1.000  C
  H169     1.0000 0.34230  0.87120  0.69580  Biso   1.000  H
  H170     1.0000 0.65770  0.37120  0.80420  Biso   1.000  H
  H171     1.0000 0.65770  0.12880  0.30420  Biso   1.000  H
  H172     1.0000 0.34230  0.62880  0.19580  Biso   1.000  H
  C213     1.0000 0.28890  0.73170  0.74860  Biso   1.000  C
  C214     1.0000 0.71110  0.23170  0.75140  Biso   1.000  C
  C215     1.0000 0.71110  0.26830  0.25140  Biso   1.000  C
  C216     1.0000 0.28890  0.76830  0.24860  Biso   1.000  C
  C217     1.0000 0.30850  0.70390  0.80510  Biso   1.000  C
  C218     1.0000 0.69150  0.20390  0.69490  Biso   1.000  C
  C219     1.0000 0.69150  0.29610  0.19490  Biso   1.000  C
  C220     1.0000 0.30850  0.79610  0.30510  Biso   1.000  C
  H173     1.0000 0.32370  0.71660  0.84930  Biso   1.000  H
  H174     1.0000 0.67630  0.21660  0.65070  Biso   1.000  H
  H175     1.0000 0.67630  0.28340  0.15070  Biso   1.000  H
  H176     1.0000 0.32370  0.78340  0.34930  Biso   1.000  H
  C221     1.0000 0.30620  0.65780  0.79830  Biso   1.000  C
  C222     1.0000 0.69380  0.15780  0.70170  Biso   1.000  C
  C223     1.0000 0.69380  0.34220  0.20170  Biso   1.000  C
  C224     1.0000 0.30620  0.84220  0.29830  Biso   1.000  C
  H177     1.0000 0.31980  0.63930  0.83740  Biso   1.000  H
  H178     1.0000 0.68020  0.13930  0.66260  Biso   1.000  H
  H179     1.0000 0.68020  0.36070  0.16260  Biso   1.000  H
  H180     1.0000 0.31980  0.86070  0.33740  Biso   1.000  H
  C225     1.0000 0.28390  0.63920  0.73410  Biso   1.000  C
  C226     1.0000 0.71610  0.13920  0.76590  Biso   1.000  C
  C227     1.0000 0.71610  0.36080  0.26590  Biso   1.000  C
  C228     1.0000 0.28390  0.86080  0.23410  Biso   1.000  C
  C229     1.0000 0.26190  0.66670  0.67760  Biso   1.000  C
  C230     1.0000 0.73810  0.16670  0.82240  Biso   1.000  C
  C231     1.0000 0.73810  0.33330  0.32240  Biso   1.000  C
  C232     1.0000 0.26190  0.83330  0.17760  Biso   1.000  C
  H181     1.0000 0.24430  0.65410  0.63280  Biso   1.000  H
  H182     1.0000 0.75570  0.15410  0.86720  Biso   1.000  H
  H183     1.0000 0.75570  0.34590  0.36720  Biso   1.000  H
  H184     1.0000 0.24430  0.84590  0.13280  Biso   1.000  H
  C233     1.0000 0.26520  0.71280  0.68520  Biso   1.000  C
  C234     1.0000 0.73480  0.21280  0.81480  Biso   1.000  C
  C235     1.0000 0.73480  0.28720  0.31480  Biso   1.000  C
  C236     1.0000 0.26520  0.78720  0.18520  Biso   1.000  C
  H185     1.0000 0.25090  0.73120  0.64580  Biso   1.000  H
  H186     1.0000 0.74910  0.23120  0.85420  Biso   1.000  H
  H187     1.0000 0.74910  0.26880  0.35420  Biso   1.000  H
  H188     1.0000 0.25090  0.76880  0.14580  Biso   1.000  H
  C237     1.0000 0.27850  0.58990  0.72290  Biso   1.000  C
  C238     1.0000 0.72150  0.08990  0.77710  Biso   1.000  C
  C239     1.0000 0.72150  0.41010  0.27710  Biso   1.000  C
  C240     1.0000 0.27850  0.91010  0.22290  Biso   1.000  C
  C241     1.0000 0.13750  0.87150  0.34360  Biso   1.000  C
  C242     1.0000 0.86250  0.37150  0.15640  Biso   1.000  C
  C243     1.0000 0.86250  0.12850  0.65640  Biso   1.000  C
  C244     1.0000 0.13750  0.62850  0.84360  Biso   1.000  C
  H189     1.0000 0.10340  0.88480  0.29770  Biso   1.000  H
  H190     1.0000 0.89660  0.38480  0.20230  Biso   1.000  H
  H191     1.0000 0.89660  0.11520  0.70230  Biso   1.000  H
  H192     1.0000 0.10340  0.61520  0.79770  Biso   1.000  H
  C245     1.0000 0.11930  0.82670  0.34940  Biso   1.000  C
  C246     1.0000 0.88070  0.32670  0.15060  Biso   1.000  C
  C247     1.0000 0.88070  0.17330  0.65060  Biso   1.000  C
  C248     1.0000 0.11930  0.67330  0.84940  Biso   1.000  C
  H193     1.0000 0.07300  0.81050  0.30780  Biso   1.000  H
  H194     1.0000 0.92700  0.31050  0.19220  Biso   1.000  H
  H195     1.0000 0.92700  0.18950  0.69220  Biso   1.000  H
  H196     1.0000 0.07300  0.68950  0.80780  Biso   1.000  H
  C249     1.0000 0.16690  0.80540  0.41390  Biso   1.000  C
  C250     1.0000 0.83310  0.30540  0.08610  Biso   1.000  C
  C251     1.0000 0.83310  0.19460  0.58610  Biso   1.000  C
  C252     1.0000 0.16690  0.69460  0.91390  Biso   1.000  C
  C253     1.0000 0.23460  0.83140  0.46930  Biso   1.000  C
  C254     1.0000 0.76540  0.33140  0.03070  Biso   1.000  C
  C255     1.0000 0.76540  0.16860  0.53070  Biso   1.000  C
  C256     1.0000 0.23460  0.66860  0.96930  Biso   1.000  C
  H197     1.0000 0.27370  0.81840  0.51510  Biso   1.000  H
  H198     1.0000 0.72630  0.31840  0.98490  Biso   1.000  H
  H199     1.0000 0.72630  0.18160  0.48490  Biso   1.000  H
  H200     1.0000 0.27370  0.68160  0.01510  Biso   1.000  H
  C257     1.0000 0.24820  0.87590  0.46100  Biso   1.000  C
  C258     1.0000 0.75180  0.37590  0.03900  Biso   1.000  C
  C259     1.0000 0.75180  0.12410  0.53900  Biso   1.000  C
  C260     1.0000 0.24820  0.62410  0.96100  Biso   1.000  C
  H201     1.0000 0.29440  0.89250  0.50190  Biso   1.000  H
  H202     1.0000 0.70560  0.39250  0.99810  Biso   1.000  H
  H203     1.0000 0.70560  0.10750  0.49810  Biso   1.000  H
  H204     1.0000 0.29440  0.60750  0.00190  Biso   1.000  H
  C261     1.0000 0.14990  0.75690  0.41860  Biso   1.000  C
  C262     1.0000 0.85010  0.25690  0.08140  Biso   1.000  C
  C263     1.0000 0.85010  0.24310  0.58140  Biso   1.000  C
  C264     1.0000 0.14990  0.74310  0.91860  Biso   1.000  C
  C265     1.0000 0.07190  0.73430  0.36370  Biso   1.000  C
  C266     1.0000 0.92810  0.23430  0.13630  Biso   1.000  C
  C267     1.0000 0.92810  0.26570  0.63630  Biso   1.000  C
  C268     1.0000 0.07190  0.76570  0.86370  Biso   1.000  C
  H205     1.0000 0.02730  0.74990  0.32120  Biso   1.000  H
  H206     1.0000 0.97270  0.24990  0.17880  Biso   1.000  H
  H207     1.0000 0.97270  0.25010  0.67880  Biso   1.000  H
  H208     1.0000 0.02730  0.75010  0.82120  Biso   1.000  H
  C269     1.0000 0.05510  0.68940  0.36740  Biso   1.000  C
  C270     1.0000 0.94490  0.18940  0.13260  Biso   1.000  C
  C271     1.0000 0.94490  0.31060  0.63260  Biso   1.000  C
  C272     1.0000 0.05510  0.81060  0.86740  Biso   1.000  C
  H209     1.0000 0.00060  0.67480  0.32750  Biso   1.000  H
  H210     1.0000 0.99940  0.17480  0.17250  Biso   1.000  H
  H211     1.0000 0.99940  0.32520  0.67250  Biso   1.000  H
  H212     1.0000 0.00060  0.82520  0.82750  Biso   1.000  H
  C273     1.0000 0.11730  0.66570  0.42900  Biso   1.000  C
  C274     1.0000 0.88270  0.16570  0.07100  Biso   1.000  C
  C275     1.0000 0.88270  0.33430  0.57100  Biso   1.000  C
  C276     1.0000 0.11730  0.83430  0.92900  Biso   1.000  C
  C277     1.0000 0.19990  0.68740  0.48480  Biso   1.000  C
  C278     1.0000 0.80010  0.18740  0.01520  Biso   1.000  C
  C279     1.0000 0.80010  0.31260  0.51520  Biso   1.000  C
  C280     1.0000 0.19990  0.81260  0.98480  Biso   1.000  C
  H213     1.0000 0.24560  0.67140  0.52660  Biso   1.000  H
  H214     1.0000 0.75440  0.17140  0.97340  Biso   1.000  H
  H215     1.0000 0.75440  0.32860  0.47340  Biso   1.000  H
  H216     1.0000 0.24560  0.82860  0.02660  Biso   1.000  H
  C281     1.0000 0.21590  0.73230  0.47960  Biso   1.000  C
  C282     1.0000 0.78410  0.23230  0.02040  Biso   1.000  C
  C283     1.0000 0.78410  0.26770  0.52040  Biso   1.000  C
  C284     1.0000 0.21590  0.76770  0.97960  Biso   1.000  C
  H217     1.0000 0.27280  0.74670  0.51810  Biso   1.000  H
  H218     1.0000 0.72720  0.24670  0.98190  Biso   1.000  H
  H219     1.0000 0.72720  0.25330  0.48190  Biso   1.000  H
  H220     1.0000 0.27280  0.75330  0.01810  Biso   1.000  H
  C285     1.0000 0.09710  0.61800  0.43620  Biso   1.000  C
  C286     1.0000 0.90290  0.11800  0.06380  Biso   1.000  C
  C287     1.0000 0.90290  0.38200  0.56380  Biso   1.000  C
  C288     1.0000 0.09710  0.88200  0.93620  Biso   1.000  C
  C289     1.0000 0.95310  0.13050  0.45960  Biso   1.000  C
  C290     1.0000 0.04690  0.63050  0.04040  Biso   1.000  C
  C291     1.0000 0.04690  0.86950  0.54040  Biso   1.000  C
  C292     1.0000 0.95310  0.36950  0.95960  Biso   1.000  C
  H221     1.0000 0.91410  0.11690  0.47750  Biso   1.000  H
  H222     1.0000 0.08590  0.61690  0.02250  Biso   1.000  H
  H223     1.0000 0.08590  0.88310  0.52250  Biso   1.000  H
  H224     1.0000 0.91410  0.38310  0.97750  Biso   1.000  H
  C293     1.0000 0.94990  0.17690  0.45280  Biso   1.000  C
  C294     1.0000 0.05010  0.67690  0.04720  Biso   1.000  C
  C295     1.0000 0.05010  0.82310  0.54720  Biso   1.000  C
  C296     1.0000 0.94990  0.32310  0.95280  Biso   1.000  C
  H225     1.0000 0.91100  0.19450  0.46690  Biso   1.000  H
  H226     1.0000 0.08900  0.69450  0.03310  Biso   1.000  H
  H227     1.0000 0.08900  0.80550  0.53310  Biso   1.000  H
  H228     1.0000 0.91100  0.30550  0.96690  Biso   1.000  H
  C297     1.0000 0.00480  0.19650  0.42490  Biso   1.000  C
  C298     1.0000 0.99520  0.69650  0.07510  Biso   1.000  C
  C299     1.0000 0.99520  0.80350  0.57510  Biso   1.000  C
  C300     1.0000 0.00480  0.30350  0.92490  Biso   1.000  C
  C301     1.0000 0.05930  0.16890  0.40530  Biso   1.000  C
  C302     1.0000 0.94070  0.66890  0.09470  Biso   1.000  C
  C303     1.0000 0.94070  0.83110  0.59470  Biso   1.000  C
  C304     1.0000 0.05930  0.33110  0.90530  Biso   1.000  C
  H229     1.0000 0.09660  0.18160  0.38530  Biso   1.000  H
  H230     1.0000 0.90340  0.68160  0.11470  Biso   1.000  H
  H231     1.0000 0.90340  0.81840  0.61470  Biso   1.000  H
  H232     1.0000 0.09660  0.31840  0.88530  Biso   1.000  H
  C305     1.0000 0.06090  0.12420  0.41380  Biso   1.000  C
  C306     1.0000 0.93910  0.62420  0.08620  Biso   1.000  C
  C307     1.0000 0.93910  0.87580  0.58620  Biso   1.000  C
  C308     1.0000 0.06090  0.37580  0.91380  Biso   1.000  C
  H233     1.0000 0.09920  0.10620  0.39970  Biso   1.000  H
  H234     1.0000 0.90080  0.60620  0.10030  Biso   1.000  H
  H235     1.0000 0.90080  0.89380  0.60030  Biso   1.000  H
  H236     1.0000 0.09920  0.39380  0.89970  Biso   1.000  H
  C309     1.0000 0.00430  0.24590  0.41690  Biso   1.000  C
  C310     1.0000 0.99570  0.74590  0.08310  Biso   1.000  C
  C311     1.0000 0.99570  0.75410  0.58310  Biso   1.000  C
  C312     1.0000 0.00430  0.25410  0.91690  Biso   1.000  C
  C313     1.0000 0.99960  0.27370  0.46550  Biso   1.000  C
  C314     1.0000 0.00040  0.77370  0.03450  Biso   1.000  C
  C315     1.0000 0.00040  0.72630  0.53450  Biso   1.000  C
  C316     1.0000 0.99960  0.22630  0.96550  Biso   1.000  C
  H237     1.0000 0.00030  0.26130  0.50580  Biso   1.000  H
  H238     1.0000 0.99970  0.76130  0.99420  Biso   1.000  H
  H239     1.0000 0.99970  0.73870  0.49420  Biso   1.000  H
  H240     1.0000 0.00030  0.23870  0.00580  Biso   1.000  H
  C317     1.0000 0.99380  0.31920  0.45630  Biso   1.000  C
  C318     1.0000 0.00620  0.81920  0.04370  Biso   1.000  C
  C319     1.0000 0.00620  0.68080  0.54370  Biso   1.000  C
  C320     1.0000 0.99380  0.18080  0.95630  Biso   1.000  C
  H241     1.0000 0.99070  0.33770  0.49050  Biso   1.000  H
  H242     1.0000 0.00930  0.83770  0.00950  Biso   1.000  H
  H243     1.0000 0.00930  0.66230  0.50950  Biso   1.000  H
  H244     1.0000 0.99070  0.16230  0.99050  Biso   1.000  H
  C321     1.0000 0.99230  0.33830  0.39820  Biso   1.000  C
  C322     1.0000 0.00770  0.83830  0.10180  Biso   1.000  C
  C323     1.0000 0.00770  0.66170  0.60180  Biso   1.000  C
  C324     1.0000 0.99230  0.16170  0.89820  Biso   1.000  C
  C325     1.0000 0.00020  0.31040  0.35050  Biso   1.000  C
  C326     1.0000 0.99980  0.81040  0.14950  Biso   1.000  C
  C327     1.0000 0.99980  0.68960  0.64950  Biso   1.000  C
  C328     1.0000 0.00020  0.18960  0.85050  Biso   1.000  C
  H245     1.0000 0.00210  0.32290  0.31120  Biso   1.000  H
  H246     1.0000 0.99790  0.82290  0.18880  Biso   1.000  H
  H247     1.0000 0.99790  0.67710  0.68880  Biso   1.000  H
  H248     1.0000 0.00210  0.17710  0.81120  Biso   1.000  H
  C329     1.0000 0.00520  0.26460  0.35920  Biso   1.000  C
  C330     1.0000 0.99480  0.76460  0.14080  Biso   1.000  C
  C331     1.0000 0.99480  0.73540  0.64080  Biso   1.000  C
  C332     1.0000 0.00520  0.23540  0.85920  Biso   1.000  C
  H249     1.0000 0.00930  0.24610  0.32550  Biso   1.000  H
  H250     1.0000 0.99070  0.74610  0.17450  Biso   1.000  H
  H251     1.0000 0.99070  0.75390  0.67450  Biso   1.000  H
  H252     1.0000 0.00930  0.25390  0.82550  Biso   1.000  H
  C333     1.0000 0.97760  0.38770  0.38400  Biso   1.000  C
  C334     1.0000 0.02240  0.88770  0.11600  Biso   1.000  C
  C335     1.0000 0.02240  0.61230  0.61600  Biso   1.000  C
  C336     1.0000 0.97760  0.11230  0.88400  Biso   1.000  C
  C337     1.0000 0.93290  0.43720  0.72390  Biso   1.000  C
  C338     1.0000 0.06710  0.93720  0.77610  Biso   1.000  C
  C339     1.0000 0.06710  0.56280  0.27610  Biso   1.000  C
  C340     1.0000 0.93290  0.06280  0.22390  Biso   1.000  C
  H253     1.0000 0.92560  0.40920  0.70140  Biso   1.000  H
  H254     1.0000 0.07440  0.90920  0.79860  Biso   1.000  H
  H255     1.0000 0.07440  0.59080  0.29860  Biso   1.000  H
  H256     1.0000 0.92560  0.09080  0.20140  Biso   1.000  H
  C341     1.0000 0.89510  0.44070  0.76990  Biso   1.000  C
  C342     1.0000 0.10490  0.94070  0.73010  Biso   1.000  C
  C343     1.0000 0.10490  0.55930  0.23010  Biso   1.000  C
  C344     1.0000 0.89510  0.05930  0.26990  Biso   1.000  C
  H257     1.0000 0.86160  0.41610  0.77670  Biso   1.000  H
  H258     1.0000 0.13840  0.91610  0.72330  Biso   1.000  H
  H259     1.0000 0.13840  0.58390  0.22330  Biso   1.000  H
  H260     1.0000 0.86160  0.08390  0.27670  Biso   1.000  H
  C345     1.0000 0.90570  0.47850  0.80440  Biso   1.000  C
  C346     1.0000 0.09430  0.97850  0.69560  Biso   1.000  C
  C347     1.0000 0.09430  0.52150  0.19560  Biso   1.000  C
  C348     1.0000 0.90570  0.02150  0.30440  Biso   1.000  C
  C349     1.0000 0.95140  0.51350  0.79030  Biso   1.000  C
  C350     1.0000 0.04860  0.01350  0.70970  Biso   1.000  C
  C351     1.0000 0.04860  0.48650  0.20970  Biso   1.000  C
  C352     1.0000 0.95140  0.98650  0.29030  Biso   1.000  C
  H261     1.0000 0.96090  0.54110  0.81410  Biso   1.000  H
  H262     1.0000 0.03910  0.04110  0.68590  Biso   1.000  H
  H263     1.0000 0.03910  0.45890  0.18590  Biso   1.000  H
  H264     1.0000 0.96090  0.95890  0.31410  Biso   1.000  H
  C353     1.0000 0.98380  0.50840  0.74140  Biso   1.000  C
  C354     1.0000 0.01620  0.00840  0.75860  Biso   1.000  C
  C355     1.0000 0.01620  0.49160  0.25860  Biso   1.000  C
  C356     1.0000 0.98380  0.99160  0.24140  Biso   1.000  C
  H265     1.0000 0.01120  0.53340  0.73010  Biso   1.000  H
  H266     1.0000 0.98880  0.03340  0.76990  Biso   1.000  H
  H267     1.0000 0.98880  0.46660  0.26990  Biso   1.000  H
  H268     1.0000 0.01120  0.96660  0.23010  Biso   1.000  H
  C357     1.0000 0.86220  0.48460  0.85180  Biso   1.000  C
  C358     1.0000 0.13780  0.98460  0.64820  Biso   1.000  C
  C359     1.0000 0.13780  0.51540  0.14820  Biso   1.000  C
  C360     1.0000 0.86220  0.01540  0.35180  Biso   1.000  C
  C361     1.0000 0.90540  0.51470  0.90760  Biso   1.000  C
  C362     1.0000 0.09460  0.01470  0.59240  Biso   1.000  C
  C363     1.0000 0.09460  0.48530  0.09240  Biso   1.000  C
  C364     1.0000 0.90540  0.98530  0.40760  Biso   1.000  C
  H269     1.0000 0.96370  0.53130  0.91590  Biso   1.000  H
  H270     1.0000 0.03630  0.03130  0.58410  Biso   1.000  H
  H271     1.0000 0.03630  0.46870  0.08410  Biso   1.000  H
  H272     1.0000 0.96370  0.96870  0.41590  Biso   1.000  H
  C365     1.0000 0.86510  0.52080  0.95120  Biso   1.000  C
  C366     1.0000 0.13490  0.02080  0.54880  Biso   1.000  C
  C367     1.0000 0.13490  0.47920  0.04880  Biso   1.000  C
  C368     1.0000 0.86510  0.97920  0.45120  Biso   1.000  C
  H273     1.0000 0.89700  0.54080  0.99020  Biso   1.000  H
  H274     1.0000 0.10300  0.04080  0.50980  Biso   1.000  H
  H275     1.0000 0.10300  0.45920  0.00980  Biso   1.000  H
  H276     1.0000 0.89700  0.95920  0.49020  Biso   1.000  H
  C369     1.0000 0.77760  0.49770  0.93790  Biso   1.000  C
  C370     1.0000 0.22240  0.99770  0.56210  Biso   1.000  C
  C371     1.0000 0.22240  0.50230  0.06210  Biso   1.000  C
  C372     1.0000 0.77760  0.00230  0.43790  Biso   1.000  C
  C373     1.0000 0.73250  0.46770  0.88250  Biso   1.000  C
  C374     1.0000 0.26750  0.96770  0.61750  Biso   1.000  C
  C375     1.0000 0.26750  0.53230  0.11750  Biso   1.000  C
  C376     1.0000 0.73250  0.03230  0.38250  Biso   1.000  C
  H277     1.0000 0.67320  0.45170  0.87380  Biso   1.000  H
  H278     1.0000 0.32680  0.95170  0.62620  Biso   1.000  H
  H279     1.0000 0.32680  0.54830  0.12620  Biso   1.000  H
  H280     1.0000 0.67320  0.04830  0.37380  Biso   1.000  H
  C377     1.0000 0.77490  0.46140  0.83960  Biso   1.000  C
  C378     1.0000 0.22510  0.96140  0.66040  Biso   1.000  C
  C379     1.0000 0.22510  0.53860  0.16040  Biso   1.000  C
  C380     1.0000 0.77490  0.03860  0.33960  Biso   1.000  C
  H281     1.0000 0.74390  0.44090  0.80120  Biso   1.000  H
  H282     1.0000 0.25610  0.94090  0.69880  Biso   1.000  H
  H283     1.0000 0.25610  0.55910  0.19880  Biso   1.000  H
  H284     1.0000 0.74390  0.05910  0.30120  Biso   1.000  H
  C381     1.0000 0.73190  0.50780  0.98270  Biso   1.000  C
  C382     1.0000 0.26810  0.00780  0.51730  Biso   1.000  C
  C383     1.0000 0.26810  0.49220  0.01730  Biso   1.000  C
  C384     1.0000 0.73190  0.99220  0.48270  Biso   1.000  C
