data_image0
_cell_length_a       15.2027
_cell_length_b       29.845
_cell_length_c       21.4094
_cell_angle_alpha    90
_cell_angle_beta     120.174
_cell_angle_gamma    90

_symmetry_space_group_name_H-M    "P 1"
_symmetry_int_tables_number       1

loop_
  _symmetry_equiv_pos_as_xyz
  'x, y, z'

loop_
  _atom_site_label
  _atom_site_occupancy
  _atom_site_fract_x
  _atom_site_fract_y
  _atom_site_fract_z
  _atom_site_thermal_displace_type
  _atom_site_B_iso_or_equiv
  _atom_site_type_symbol
  Sm1      1.0000 0.37665  0.46399  0.93923  Biso   1.000  Sm
  Sm2      1.0000 0.62335  0.96399  0.56077  Biso   1.000  Sm
  Sm3      1.0000 0.62335  0.53601  0.06077  Biso   1.000  Sm
  Sm4      1.0000 0.37665  0.03601  0.43923  Biso   1.000  Sm
  Sm5      1.0000 0.13338  0.53144  0.56017  Biso   1.000  Sm
  Sm6      1.0000 0.86662  0.03144  0.93983  Biso   1.000  Sm
  Sm7      1.0000 0.86662  0.46856  0.43983  Biso   1.000  Sm
  Sm8      1.0000 0.13338  0.96856  0.06017  Biso   1.000  Sm
  Cu1      1.0000 0.52849  0.45896  0.13514  Biso   1.000  Cu
  Cu2      1.0000 0.47151  0.95896  0.36486  Biso   1.000  Cu
  Cu3      1.0000 0.47151  0.54104  0.86486  Biso   1.000  Cu
  Cu4      1.0000 0.52849  0.04104  0.63514  Biso   1.000  Cu
  Cu5      1.0000 0.24630  0.50250  0.75439  Biso   1.000  Cu
  Cu6      1.0000 0.75370  0.00250  0.74561  Biso   1.000  Cu
  Cu7      1.0000 0.75370  0.49750  0.24561  Biso   1.000  Cu
  Cu8      1.0000 0.24630  0.99750  0.25439  Biso   1.000  Cu
  Cu9      1.0000 0.01810  0.46424  0.63459  Biso   1.000  Cu
  Cu10     1.0000 0.98190  0.96424  0.86541  Biso   1.000  Cu
  Cu11     1.0000 0.98190  0.53576  0.36541  Biso   1.000  Cu
  Cu12     1.0000 0.01810  0.03576  0.13459  Biso   1.000  Cu
  O1       1.0000 0.28050  0.52469  0.54084  Biso   1.000  O
  O2       1.0000 0.71950  0.02469  0.95916  Biso   1.000  O
  O3       1.0000 0.71950  0.47531  0.45916  Biso   1.000  O
  O4       1.0000 0.28050  0.97531  0.04084  Biso   1.000  O
  O5       1.0000 0.13630  0.49392  0.45767  Biso   1.000  O
  O6       1.0000 0.86370  0.99392  0.04233  Biso   1.000  O
  O7       1.0000 0.86370  0.50608  0.54233  Biso   1.000  O
  O8       1.0000 0.13630  0.00608  0.95767  Biso   1.000  O
  O9       1.0000 0.48320  0.41199  0.92625  Biso   1.000  O
  O10      1.0000 0.51680  0.91199  0.57375  Biso   1.000  O
  O11      1.0000 0.51680  0.58801  0.07375  Biso   1.000  O
  O12      1.0000 0.48320  0.08801  0.42625  Biso   1.000  O
  O13      1.0000 0.45850  0.40716  0.81440  Biso   1.000  O
  O14      1.0000 0.54150  0.90716  0.68560  Biso   1.000  O
  O15      1.0000 0.54150  0.59284  0.18560  Biso   1.000  O
  O16      1.0000 0.45850  0.09284  0.31440  Biso   1.000  O
  O17      1.0000 0.48620  0.39644  0.11897  Biso   1.000  O
  O18      1.0000 0.51380  0.89644  0.38103  Biso   1.000  O
  O19      1.0000 0.51380  0.60356  0.88103  Biso   1.000  O
  O20      1.0000 0.48620  0.10356  0.61897  Biso   1.000  O
  O21      1.0000 0.36910  0.39720  0.00178  Biso   1.000  O
  O22      1.0000 0.63090  0.89720  0.49822  Biso   1.000  O
  O23      1.0000 0.63090  0.60280  0.99822  Biso   1.000  O
  O24      1.0000 0.36910  0.10280  0.50178  Biso   1.000  O
  O25      1.0000 0.21070  0.43837  0.72900  Biso   1.000  O
  O26      1.0000 0.78930  0.93837  0.77100  Biso   1.000  O
  O27      1.0000 0.78930  0.56163  0.27100  Biso   1.000  O
  O28      1.0000 0.21070  0.06163  0.22900  Biso   1.000  O
  O29      1.0000 0.25090  0.41960  0.84046  Biso   1.000  O
  O30      1.0000 0.74910  0.91960  0.65954  Biso   1.000  O
  O31      1.0000 0.74910  0.58040  0.15954  Biso   1.000  O
  O32      1.0000 0.25090  0.08040  0.34046  Biso   1.000  O
  O33      1.0000 0.71370  0.43397  0.22822  Biso   1.000  O
  O34      1.0000 0.28630  0.93397  0.27178  Biso   1.000  O
  O35      1.0000 0.28630  0.56603  0.77178  Biso   1.000  O
  O36      1.0000 0.71370  0.06603  0.72822  Biso   1.000  O
  O37      1.0000 0.74320  0.42492  0.34046  Biso   1.000  O
  O38      1.0000 0.25680  0.92492  0.15954  Biso   1.000  O
  O39      1.0000 0.25680  0.57508  0.65954  Biso   1.000  O
  O40      1.0000 0.74320  0.07508  0.84046  Biso   1.000  O
  O41      1.0000 0.97610  0.40151  0.61979  Biso   1.000  O
  O42      1.0000 0.02390  0.90151  0.88021  Biso   1.000  O
  O43      1.0000 0.02390  0.59849  0.38021  Biso   1.000  O
  O44      1.0000 0.97610  0.09849  0.11979  Biso   1.000  O
  O45      1.0000 0.85290  0.40186  0.50338  Biso   1.000  O
  O46      1.0000 0.14710  0.90186  0.99662  Biso   1.000  O
  O47      1.0000 0.14710  0.59814  0.49662  Biso   1.000  O
  O48      1.0000 0.85290  0.09814  0.00338  Biso   1.000  O
  O49      1.0000 0.02650  0.58851  0.56611  Biso   1.000  O
  O50      1.0000 0.97350  0.08851  0.93389  Biso   1.000  O
  O51      1.0000 0.97350  0.41149  0.43389  Biso   1.000  O
  O52      1.0000 0.02650  0.91149  0.06611  Biso   1.000  O
  O53      1.0000 0.03330  0.59606  0.67200  Biso   1.000  O
  O54      1.0000 0.96670  0.09606  0.82800  Biso   1.000  O
  O55      1.0000 0.96670  0.40394  0.32800  Biso   1.000  O
  O56      1.0000 0.03330  0.90394  0.17200  Biso   1.000  O
  O57      1.0000 0.22440  0.46728  0.95767  Biso   1.000  O
  O58      1.0000 0.77560  0.96728  0.54233  Biso   1.000  O
  O59      1.0000 0.77560  0.53272  0.04233  Biso   1.000  O
  O60      1.0000 0.22440  0.03272  0.45767  Biso   1.000  O
  O61      1.0000 0.36660  0.49966  0.03928  Biso   1.000  O
  O62      1.0000 0.63340  0.99966  0.46072  Biso   1.000  O
  O63      1.0000 0.63340  0.50034  0.96072  Biso   1.000  O
  O64      1.0000 0.36660  0.00034  0.53928  Biso   1.000  O
  O65      1.0000 0.54360  0.46371  0.04999  Biso   1.000  O
  O66      1.0000 0.45640  0.96371  0.45001  Biso   1.000  O
  O67      1.0000 0.45640  0.53629  0.95001  Biso   1.000  O
  O68      1.0000 0.54360  0.03629  0.54999  Biso   1.000  O
  H1       1.0000 0.54440  0.44390  0.02930  Biso   1.000  H
  H2       1.0000 0.45560  0.94390  0.47070  Biso   1.000  H
  H3       1.0000 0.45560  0.55610  0.97070  Biso   1.000  H
  H4       1.0000 0.54440  0.05610  0.52930  Biso   1.000  H
  O69      1.0000 0.38460  0.48755  0.83076  Biso   1.000  O
  O70      1.0000 0.61540  0.98755  0.66924  Biso   1.000  O
  O71      1.0000 0.61540  0.51245  0.16924  Biso   1.000  O
  O72      1.0000 0.38460  0.01245  0.33076  Biso   1.000  O
  H5       1.0000 0.41000  0.46910  0.81080  Biso   1.000  H
  H6       1.0000 0.59000  0.96910  0.68920  Biso   1.000  H
  H7       1.0000 0.59000  0.53090  0.18920  Biso   1.000  H
  H8       1.0000 0.41000  0.03090  0.31080  Biso   1.000  H
  O73      1.0000 0.11500  0.51447  0.67024  Biso   1.000  O
  O74      1.0000 0.88500  0.01447  0.82976  Biso   1.000  O
  O75      1.0000 0.88500  0.48553  0.32976  Biso   1.000  O
  O76      1.0000 0.11500  0.98553  0.17024  Biso   1.000  O
  H9       1.0000 0.09050  0.54380  0.65880  Biso   1.000  H
  H10      1.0000 0.90950  0.04380  0.84120  Biso   1.000  H
  H11      1.0000 0.90950  0.45620  0.34120  Biso   1.000  H
  H12      1.0000 0.09050  0.95620  0.15880  Biso   1.000  H
  O77      1.0000 0.03240  0.46540  0.54945  Biso   1.000  O
  O78      1.0000 0.96760  0.96540  0.95055  Biso   1.000  O
  O79      1.0000 0.96760  0.53460  0.45055  Biso   1.000  O
  O80      1.0000 0.03240  0.03460  0.04945  Biso   1.000  O
  H13      1.0000 0.05160  0.43880  0.53200  Biso   1.000  H
  H14      1.0000 0.94840  0.93880  0.96800  Biso   1.000  H
  H15      1.0000 0.94840  0.56120  0.46800  Biso   1.000  H
  H16      1.0000 0.05160  0.06120  0.03200  Biso   1.000  H
  O81      1.0000 0.22630  0.51720  0.85655  Biso   1.000  O
  O82      1.0000 0.77370  0.01720  0.64345  Biso   1.000  O
  O83      1.0000 0.77370  0.48280  0.14345  Biso   1.000  O
  O84      1.0000 0.22630  0.98280  0.35655  Biso   1.000  O
  H17      1.0000 0.23310  0.54160  0.87040  Biso   1.000  H
  H18      1.0000 0.76690  0.04160  0.62960  Biso   1.000  H
  H19      1.0000 0.76690  0.45840  0.12960  Biso   1.000  H
  H20      1.0000 0.23310  0.95840  0.37040  Biso   1.000  H
  H21      1.0000 0.16600  0.51370  0.86290  Biso   1.000  H
  H22      1.0000 0.83400  0.01370  0.63710  Biso   1.000  H
  H23      1.0000 0.83400  0.48630  0.13710  Biso   1.000  H
  H24      1.0000 0.16600  0.98630  0.36290  Biso   1.000  H
  O85      1.0000 0.25040  0.46876  0.62853  Biso   1.000  O
  O86      1.0000 0.74960  0.96876  0.87147  Biso   1.000  O
  O87      1.0000 0.74960  0.53124  0.37147  Biso   1.000  O
  O88      1.0000 0.25040  0.03124  0.12853  Biso   1.000  O
  H25      1.0000 0.27060  0.45690  0.60340  Biso   1.000  H
  H26      1.0000 0.72940  0.95690  0.89660  Biso   1.000  H
  H27      1.0000 0.72940  0.54310  0.39660  Biso   1.000  H
  H28      1.0000 0.27060  0.04310  0.10340  Biso   1.000  H
  H29      1.0000 0.24240  0.44550  0.64860  Biso   1.000  H
  H30      1.0000 0.75760  0.94550  0.85140  Biso   1.000  H
  H31      1.0000 0.75760  0.55450  0.35140  Biso   1.000  H
  H32      1.0000 0.24240  0.05450  0.14860  Biso   1.000  H
  N1       1.0000 0.48370  0.46128  0.20870  Biso   1.000  N
  N2       1.0000 0.51630  0.96128  0.29130  Biso   1.000  N
  N3       1.0000 0.51630  0.53872  0.79130  Biso   1.000  N
  N4       1.0000 0.48370  0.03872  0.70870  Biso   1.000  N
  N5       1.0000 0.51890  0.10402  0.93060  Biso   1.000  N
  N6       1.0000 0.48110  0.60402  0.56940  Biso   1.000  N
  N7       1.0000 0.48110  0.89598  0.06940  Biso   1.000  N
  N8       1.0000 0.51890  0.39598  0.43060  Biso   1.000  N
  N9       1.0000 0.32980  0.09523  0.08070  Biso   1.000  N
  N10      1.0000 0.67020  0.59523  0.41930  Biso   1.000  N
  N11      1.0000 0.67020  0.90477  0.91930  Biso   1.000  N
  N12      1.0000 0.32980  0.40477  0.58070  Biso   1.000  N
  N13      1.0000 0.14810  0.12831  0.67540  Biso   1.000  N
  N14      1.0000 0.85190  0.62831  0.82460  Biso   1.000  N
  N15      1.0000 0.85190  0.87169  0.32460  Biso   1.000  N
  N16      1.0000 0.14810  0.37169  0.17540  Biso   1.000  N
  N17      1.0000 0.67970  0.12439  0.22380  Biso   1.000  N
  N18      1.0000 0.32030  0.62439  0.27620  Biso   1.000  N
  N19      1.0000 0.32030  0.87561  0.77620  Biso   1.000  N
  N20      1.0000 0.67970  0.37561  0.72380  Biso   1.000  N
  N21      1.0000 0.79160  0.10309  0.59760  Biso   1.000  N
  N22      1.0000 0.20840  0.60309  0.90240  Biso   1.000  N
  N23      1.0000 0.20840  0.89691  0.40240  Biso   1.000  N
  N24      1.0000 0.79160  0.39691  0.09760  Biso   1.000  N
  N25      1.0000 0.99550  0.89666  0.56090  Biso   1.000  N
  N26      1.0000 0.00450  0.39666  0.93910  Biso   1.000  N
  N27      1.0000 0.00450  0.10334  0.43910  Biso   1.000  N
  N28      1.0000 0.99550  0.60334  0.06090  Biso   1.000  N
  N29      1.0000 0.02140  0.53026  0.28860  Biso   1.000  N
  N30      1.0000 0.97860  0.03026  0.21140  Biso   1.000  N
  N31      1.0000 0.97860  0.46974  0.71140  Biso   1.000  N
  N32      1.0000 0.02140  0.96974  0.78860  Biso   1.000  N
  C1       1.0000 0.53320  0.48486  0.26930  Biso   1.000  C
  C2       1.0000 0.46680  0.98486  0.23070  Biso   1.000  C
  C3       1.0000 0.46680  0.51514  0.73070  Biso   1.000  C
  C4       1.0000 0.53320  0.01514  0.76930  Biso   1.000  C
  H33      1.0000 0.59430  0.49850  0.28030  Biso   1.000  H
  H34      1.0000 0.40570  0.99850  0.21970  Biso   1.000  H
  H35      1.0000 0.40570  0.50150  0.71970  Biso   1.000  H
  H36      1.0000 0.59430  0.00150  0.78030  Biso   1.000  H
  C5       1.0000 0.49820  0.49032  0.31760  Biso   1.000  C
  C6       1.0000 0.50180  0.99032  0.18240  Biso   1.000  C
  C7       1.0000 0.50180  0.50968  0.68240  Biso   1.000  C
  C8       1.0000 0.49820  0.00968  0.81760  Biso   1.000  C
  H37      1.0000 0.53620  0.50660  0.36010  Biso   1.000  H
  H38      1.0000 0.46380  0.00660  0.13990  Biso   1.000  H
  H39      1.0000 0.46380  0.49340  0.63990  Biso   1.000  H
  H40      1.0000 0.53620  0.99340  0.86010  Biso   1.000  H
  C9       1.0000 0.40640  0.47105  0.30320  Biso   1.000  C
  C10      1.0000 0.59360  0.97105  0.19680  Biso   1.000  C
  C11      1.0000 0.59360  0.52895  0.69680  Biso   1.000  C
  C12      1.0000 0.40640  0.02895  0.80320  Biso   1.000  C
  C13      1.0000 0.35660  0.44514  0.24050  Biso   1.000  C
  C14      1.0000 0.64340  0.94514  0.25950  Biso   1.000  C
  C15      1.0000 0.64340  0.55486  0.75950  Biso   1.000  C
  C16      1.0000 0.35660  0.05486  0.74050  Biso   1.000  C
  H41      1.0000 0.29650  0.43040  0.22900  Biso   1.000  H
  H42      1.0000 0.70350  0.93040  0.27100  Biso   1.000  H
  H43      1.0000 0.70350  0.56960  0.77100  Biso   1.000  H
  H44      1.0000 0.29650  0.06960  0.72900  Biso   1.000  H
  C17      1.0000 0.39810  0.44066  0.19630  Biso   1.000  C
  C18      1.0000 0.60190  0.94066  0.30370  Biso   1.000  C
  C19      1.0000 0.60190  0.55934  0.80370  Biso   1.000  C
  C20      1.0000 0.39810  0.05934  0.69630  Biso   1.000  C
  H45      1.0000 0.36490  0.42230  0.15570  Biso   1.000  H
  H46      1.0000 0.63510  0.92230  0.34430  Biso   1.000  H
  H47      1.0000 0.63510  0.57770  0.84430  Biso   1.000  H
  H48      1.0000 0.36490  0.07770  0.65570  Biso   1.000  H
  C21      1.0000 0.36250  0.47886  0.35000  Biso   1.000  C
  C22      1.0000 0.63750  0.97886  0.15000  Biso   1.000  C
  C23      1.0000 0.63750  0.52114  0.65000  Biso   1.000  C
  C24      1.0000 0.36250  0.02114  0.85000  Biso   1.000  C
  C25      1.0000 0.39960  0.51234  0.40210  Biso   1.000  C
  C26      1.0000 0.60040  0.01234  0.09790  Biso   1.000  C
  C27      1.0000 0.60040  0.48766  0.59790  Biso   1.000  C
  C28      1.0000 0.39960  0.98766  0.90210  Biso   1.000  C
  H49      1.0000 0.45350  0.53000  0.40790  Biso   1.000  H
  H50      1.0000 0.54650  0.03000  0.09210  Biso   1.000  H
  H51      1.0000 0.54650  0.47000  0.59210  Biso   1.000  H
  H52      1.0000 0.45350  0.97000  0.90790  Biso   1.000  H
  C29      1.0000 0.35820  0.51990  0.44530  Biso   1.000  C
  C30      1.0000 0.64180  0.01990  0.05470  Biso   1.000  C
  C31      1.0000 0.64180  0.48010  0.55470  Biso   1.000  C
  C32      1.0000 0.35820  0.98010  0.94530  Biso   1.000  C
  H53      1.0000 0.38540  0.54190  0.48100  Biso   1.000  H
  H54      1.0000 0.61460  0.04190  0.01900  Biso   1.000  H
  H55      1.0000 0.61460  0.45810  0.51900  Biso   1.000  H
  H56      1.0000 0.38540  0.95810  0.98100  Biso   1.000  H
  C33      1.0000 0.27670  0.49463  0.43630  Biso   1.000  C
  C34      1.0000 0.72330  0.99463  0.06370  Biso   1.000  C
  C35      1.0000 0.72330  0.50537  0.56370  Biso   1.000  C
  C36      1.0000 0.27670  0.00537  0.93630  Biso   1.000  C
  C37      1.0000 0.23900  0.46109  0.38540  Biso   1.000  C
  C38      1.0000 0.76100  0.96109  0.11460  Biso   1.000  C
  C39      1.0000 0.76100  0.53891  0.61460  Biso   1.000  C
  C40      1.0000 0.23900  0.03891  0.88540  Biso   1.000  C
  H57      1.0000 0.18330  0.44440  0.37860  Biso   1.000  H
  H58      1.0000 0.81670  0.94440  0.12140  Biso   1.000  H
  H59      1.0000 0.81670  0.55560  0.62140  Biso   1.000  H
  H60      1.0000 0.18330  0.05560  0.87860  Biso   1.000  H
  C41      1.0000 0.28260  0.45265  0.34340  Biso   1.000  C
  C42      1.0000 0.71740  0.95265  0.15660  Biso   1.000  C
  C43      1.0000 0.71740  0.54735  0.65660  Biso   1.000  C
  C44      1.0000 0.28260  0.04735  0.84340  Biso   1.000  C
  H61      1.0000 0.25790  0.42940  0.30980  Biso   1.000  H
  H62      1.0000 0.74210  0.92940  0.19020  Biso   1.000  H
  H63      1.0000 0.74210  0.57060  0.69020  Biso   1.000  H
  H64      1.0000 0.25790  0.07060  0.80980  Biso   1.000  H
  C45      1.0000 0.22920  0.50492  0.48140  Biso   1.000  C
  C46      1.0000 0.77080  0.00492  0.01860  Biso   1.000  C
  C47      1.0000 0.77080  0.49508  0.51860  Biso   1.000  C
  C48      1.0000 0.22920  0.99508  0.98140  Biso   1.000  C
  C49      1.0000 0.54990  0.12383  0.88950  Biso   1.000  C
  C50      1.0000 0.45010  0.62383  0.61050  Biso   1.000  C
  C51      1.0000 0.45010  0.87617  0.11050  Biso   1.000  C
  C52      1.0000 0.54990  0.37617  0.38950  Biso   1.000  C
  H65      1.0000 0.57890  0.10610  0.86870  Biso   1.000  H
  H66      1.0000 0.42110  0.60610  0.63130  Biso   1.000  H
  H67      1.0000 0.42110  0.89390  0.13130  Biso   1.000  H
  H68      1.0000 0.57890  0.39390  0.36870  Biso   1.000  H
  C53      1.0000 0.54000  0.16977  0.87520  Biso   1.000  C
  C54      1.0000 0.46000  0.66977  0.62480  Biso   1.000  C
  C55      1.0000 0.46000  0.83023  0.12480  Biso   1.000  C
  C56      1.0000 0.54000  0.33023  0.37520  Biso   1.000  C
  H69      1.0000 0.56210  0.18220  0.84550  Biso   1.000  H
  H70      1.0000 0.43790  0.68220  0.65450  Biso   1.000  H
  H71      1.0000 0.43790  0.81780  0.15450  Biso   1.000  H
  H72      1.0000 0.56210  0.31780  0.34550  Biso   1.000  H
  C57      1.0000 0.49930  0.19683  0.90690  Biso   1.000  C
  C58      1.0000 0.50070  0.69683  0.59310  Biso   1.000  C
  C59      1.0000 0.50070  0.80317  0.09310  Biso   1.000  C
  C60      1.0000 0.49930  0.30317  0.40690  Biso   1.000  C
  C61      1.0000 0.46510  0.17580  0.94840  Biso   1.000  C
  C62      1.0000 0.53490  0.67580  0.55160  Biso   1.000  C
  C63      1.0000 0.53490  0.82420  0.05160  Biso   1.000  C
  C64      1.0000 0.46510  0.32420  0.44840  Biso   1.000  C
  H73      1.0000 0.43470  0.19230  0.96940  Biso   1.000  H
  H74      1.0000 0.56530  0.69230  0.53060  Biso   1.000  H
  H75      1.0000 0.56530  0.80770  0.03060  Biso   1.000  H
  H76      1.0000 0.43470  0.30770  0.46940  Biso   1.000  H
  C65      1.0000 0.47630  0.13000  0.95820  Biso   1.000  C
  C66      1.0000 0.52370  0.63000  0.54180  Biso   1.000  C
  C67      1.0000 0.52370  0.87000  0.04180  Biso   1.000  C
  C68      1.0000 0.47630  0.37000  0.45820  Biso   1.000  C
  H77      1.0000 0.45200  0.11640  0.98580  Biso   1.000  H
  H78      1.0000 0.54800  0.61640  0.51420  Biso   1.000  H
  H79      1.0000 0.54800  0.88360  0.01420  Biso   1.000  H
  H80      1.0000 0.45200  0.38360  0.48580  Biso   1.000  H
  C69      1.0000 0.49310  0.24638  0.89730  Biso   1.000  C
  C70      1.0000 0.50690  0.74638  0.60270  Biso   1.000  C
  C71      1.0000 0.50690  0.75362  0.10270  Biso   1.000  C
  C72      1.0000 0.49310  0.25362  0.39730  Biso   1.000  C
  C73      1.0000 0.47750  0.26625  0.83300  Biso   1.000  C
  C74      1.0000 0.52250  0.76625  0.66700  Biso   1.000  C
  C75      1.0000 0.52250  0.73375  0.16700  Biso   1.000  C
  C76      1.0000 0.47750  0.23375  0.33300  Biso   1.000  C
  H81      1.0000 0.47000  0.24820  0.79500  Biso   1.000  H
  H82      1.0000 0.53000  0.74820  0.70500  Biso   1.000  H
  H83      1.0000 0.53000  0.75180  0.20500  Biso   1.000  H
  H84      1.0000 0.47000  0.25180  0.29500  Biso   1.000  H
  C77      1.0000 0.47260  0.31244  0.82470  Biso   1.000  C
  C78      1.0000 0.52740  0.81244  0.67530  Biso   1.000  C
  C79      1.0000 0.52740  0.68756  0.17530  Biso   1.000  C
  C80      1.0000 0.47260  0.18756  0.32470  Biso   1.000  C
  H85      1.0000 0.46110  0.32530  0.78140  Biso   1.000  H
  H86      1.0000 0.53890  0.82530  0.71860  Biso   1.000  H
  H87      1.0000 0.53890  0.67470  0.21860  Biso   1.000  H
  H88      1.0000 0.46110  0.17470  0.28140  Biso   1.000  H
  C81      1.0000 0.48620  0.33958  0.88170  Biso   1.000  C
  C82      1.0000 0.51380  0.83958  0.61830  Biso   1.000  C
  C83      1.0000 0.51380  0.66042  0.11830  Biso   1.000  C
  C84      1.0000 0.48620  0.16042  0.38170  Biso   1.000  C
  C85      1.0000 0.50320  0.32044  0.94580  Biso   1.000  C
  C86      1.0000 0.49680  0.82044  0.55420  Biso   1.000  C
  C87      1.0000 0.49680  0.67956  0.05420  Biso   1.000  C
  C88      1.0000 0.50320  0.17956  0.44580  Biso   1.000  C
  H89      1.0000 0.51250  0.33870  0.98400  Biso   1.000  H
  H90      1.0000 0.48750  0.83870  0.51600  Biso   1.000  H
  H91      1.0000 0.48750  0.66130  0.01600  Biso   1.000  H
  H92      1.0000 0.51250  0.16130  0.48400  Biso   1.000  H
  C89      1.0000 0.50630  0.27438  0.95320  Biso   1.000  C
  C90      1.0000 0.49370  0.77438  0.54680  Biso   1.000  C
  C91      1.0000 0.49370  0.72562  0.04680  Biso   1.000  C
  C92      1.0000 0.50630  0.22562  0.45320  Biso   1.000  C
  H93      1.0000 0.51710  0.26190  0.99650  Biso   1.000  H
  H94      1.0000 0.48290  0.76190  0.50350  Biso   1.000  H
  H95      1.0000 0.48290  0.73810  0.00350  Biso   1.000  H
  H96      1.0000 0.51710  0.23810  0.49650  Biso   1.000  H
  C93      1.0000 0.47540  0.39083  0.87220  Biso   1.000  C
  C94      1.0000 0.52460  0.89083  0.62780  Biso   1.000  C
  C95      1.0000 0.52460  0.60917  0.12780  Biso   1.000  C
  C96      1.0000 0.47540  0.10917  0.37220  Biso   1.000  C
  C97      1.0000 0.41690  0.11650  0.12630  Biso   1.000  C
  C98      1.0000 0.58310  0.61650  0.37370  Biso   1.000  C
  C99      1.0000 0.58310  0.88350  0.87370  Biso   1.000  C
  C100     1.0000 0.41690  0.38350  0.62630  Biso   1.000  C
  H97      1.0000 0.47040  0.09980  0.16140  Biso   1.000  H
  H98      1.0000 0.52960  0.59980  0.33860  Biso   1.000  H
  H99      1.0000 0.52960  0.90020  0.83860  Biso   1.000  H
  H100     1.0000 0.47040  0.40020  0.66140  Biso   1.000  H
  C101     1.0000 0.43020  0.16210  0.12440  Biso   1.000  C
  C102     1.0000 0.56980  0.66210  0.37560  Biso   1.000  C
  C103     1.0000 0.56980  0.83790  0.87560  Biso   1.000  C
  C104     1.0000 0.43020  0.33790  0.62440  Biso   1.000  C
  H101     1.0000 0.49220  0.17520  0.15630  Biso   1.000  H
  H102     1.0000 0.50780  0.67520  0.34370  Biso   1.000  H
  H103     1.0000 0.50780  0.82480  0.84370  Biso   1.000  H
  H104     1.0000 0.49220  0.32480  0.65630  Biso   1.000  H
  C105     1.0000 0.35060  0.18859  0.07410  Biso   1.000  C
  C106     1.0000 0.64940  0.68859  0.42590  Biso   1.000  C
  C107     1.0000 0.64940  0.81141  0.92590  Biso   1.000  C
  C108     1.0000 0.35060  0.31141  0.57410  Biso   1.000  C
  C109     1.0000 0.26220  0.16658  0.02620  Biso   1.000  C
  C110     1.0000 0.73780  0.66658  0.47380  Biso   1.000  C
  C111     1.0000 0.73780  0.83342  0.97380  Biso   1.000  C
  C112     1.0000 0.26220  0.33342  0.52620  Biso   1.000  C
  H105     1.0000 0.20730  0.18270  0.99090  Biso   1.000  H
  H106     1.0000 0.79270  0.68270  0.50910  Biso   1.000  H
  H107     1.0000 0.79270  0.81730  0.00910  Biso   1.000  H
  H108     1.0000 0.20730  0.31730  0.49090  Biso   1.000  H
  C113     1.0000 0.25470  0.12075  0.03140  Biso   1.000  C
  C114     1.0000 0.74530  0.62075  0.46860  Biso   1.000  C
  C115     1.0000 0.74530  0.87925  0.96860  Biso   1.000  C
  C116     1.0000 0.25470  0.37925  0.53140  Biso   1.000  C
  H109     1.0000 0.19470  0.10680  0.99790  Biso   1.000  H
  H110     1.0000 0.80530  0.60680  0.50210  Biso   1.000  H
  H111     1.0000 0.80530  0.89320  0.00210  Biso   1.000  H
  H112     1.0000 0.19470  0.39320  0.49790  Biso   1.000  H
  C117     1.0000 0.36280  0.23771  0.07220  Biso   1.000  C
  C118     1.0000 0.63720  0.73771  0.42780  Biso   1.000  C
  C119     1.0000 0.63720  0.76229  0.92780  Biso   1.000  C
  C120     1.0000 0.36280  0.26229  0.57220  Biso   1.000  C
  C121     1.0000 0.30980  0.26140  0.00850  Biso   1.000  C
  C122     1.0000 0.69020  0.76140  0.49150  Biso   1.000  C
  C123     1.0000 0.69020  0.73860  0.99150  Biso   1.000  C
  C124     1.0000 0.30980  0.23860  0.50850  Biso   1.000  C
  H113     1.0000 0.26200  0.24680  0.96660  Biso   1.000  H
  H114     1.0000 0.73800  0.74680  0.53340  Biso   1.000  H
  H115     1.0000 0.73800  0.75320  0.03340  Biso   1.000  H
  H116     1.0000 0.26200  0.25320  0.46660  Biso   1.000  H
  C125     1.0000 0.32620  0.30658  0.00620  Biso   1.000  C
  C126     1.0000 0.67380  0.80658  0.49380  Biso   1.000  C
  C127     1.0000 0.67380  0.69342  0.99380  Biso   1.000  C
  C128     1.0000 0.32620  0.19342  0.50620  Biso   1.000  C
  H117     1.0000 0.28890  0.32210  0.96280  Biso   1.000  H
  H118     1.0000 0.71110  0.82210  0.53720  Biso   1.000  H
  H119     1.0000 0.71110  0.67790  0.03720  Biso   1.000  H
  H120     1.0000 0.28890  0.17790  0.46280  Biso   1.000  H
  C129     1.0000 0.39510  0.32976  0.06740  Biso   1.000  C
  C130     1.0000 0.60490  0.82976  0.43260  Biso   1.000  C
  C131     1.0000 0.60490  0.67024  0.93260  Biso   1.000  C
  C132     1.0000 0.39510  0.17024  0.56740  Biso   1.000  C
  C133     1.0000 0.44440  0.30702  0.13180  Biso   1.000  C
  C134     1.0000 0.55560  0.80702  0.36820  Biso   1.000  C
  C135     1.0000 0.55560  0.69298  0.86820  Biso   1.000  C
  C136     1.0000 0.44440  0.19298  0.63180  Biso   1.000  C
  H121     1.0000 0.48850  0.32210  0.17420  Biso   1.000  H
  H122     1.0000 0.51150  0.82210  0.32580  Biso   1.000  H
  H123     1.0000 0.51150  0.67790  0.82580  Biso   1.000  H
  H124     1.0000 0.48850  0.17790  0.67420  Biso   1.000  H
  C137     1.0000 0.42880  0.26139  0.13440  Biso   1.000  C
  C138     1.0000 0.57120  0.76139  0.36560  Biso   1.000  C
  C139     1.0000 0.57120  0.73861  0.86560  Biso   1.000  C
  C140     1.0000 0.42880  0.23861  0.63440  Biso   1.000  C
  H125     1.0000 0.46330  0.24620  0.17830  Biso   1.000  H
  H126     1.0000 0.53670  0.74620  0.32170  Biso   1.000  H
  H127     1.0000 0.53670  0.75380  0.82170  Biso   1.000  H
  H128     1.0000 0.46330  0.25380  0.67830  Biso   1.000  H
  C141     1.0000 0.41760  0.37844  0.06130  Biso   1.000  C
  C142     1.0000 0.58240  0.87844  0.43870  Biso   1.000  C
  C143     1.0000 0.58240  0.62156  0.93870  Biso   1.000  C
  C144     1.0000 0.41760  0.12156  0.56130  Biso   1.000  C
  C145     1.0000 0.13740  0.14670  0.72730  Biso   1.000  C
  C146     1.0000 0.86260  0.64670  0.77270  Biso   1.000  C
  C147     1.0000 0.86260  0.85330  0.27270  Biso   1.000  C
  C148     1.0000 0.13740  0.35330  0.22730  Biso   1.000  C
  H129     1.0000 0.11480  0.12880  0.75210  Biso   1.000  H
  H130     1.0000 0.88520  0.62880  0.74790  Biso   1.000  H
  H131     1.0000 0.88520  0.87120  0.24790  Biso   1.000  H
  H132     1.0000 0.11480  0.37120  0.25210  Biso   1.000  H
  C149     1.0000 0.15640  0.19180  0.74580  Biso   1.000  C
  C150     1.0000 0.84360  0.69180  0.75420  Biso   1.000  C
  C151     1.0000 0.84360  0.80820  0.25420  Biso   1.000  C
  C152     1.0000 0.15640  0.30820  0.24580  Biso   1.000  C
  H133     1.0000 0.14910  0.20260  0.78390  Biso   1.000  H
  H134     1.0000 0.85090  0.70260  0.71610  Biso   1.000  H
  H135     1.0000 0.85090  0.79740  0.21610  Biso   1.000  H
  H136     1.0000 0.14910  0.29740  0.28390  Biso   1.000  H
  C153     1.0000 0.18810  0.22017  0.70980  Biso   1.000  C
  C154     1.0000 0.81190  0.72017  0.79020  Biso   1.000  C
  C155     1.0000 0.81190  0.77983  0.29020  Biso   1.000  C
  C156     1.0000 0.18810  0.27983  0.20980  Biso   1.000  C
  C157     1.0000 0.19890  0.20080  0.65550  Biso   1.000  C
  C158     1.0000 0.80110  0.70080  0.84450  Biso   1.000  C
  C159     1.0000 0.80110  0.79920  0.34450  Biso   1.000  C
  C160     1.0000 0.19890  0.29920  0.15550  Biso   1.000  C
  H137     1.0000 0.21980  0.21780  0.62880  Biso   1.000  H
  H138     1.0000 0.78020  0.71780  0.87120  Biso   1.000  H
  H139     1.0000 0.78020  0.78220  0.37120  Biso   1.000  H
  H140     1.0000 0.21980  0.28220  0.12880  Biso   1.000  H
  C161     1.0000 0.17720  0.15540  0.63960  Biso   1.000  C
  C162     1.0000 0.82280  0.65540  0.86040  Biso   1.000  C
  C163     1.0000 0.82280  0.84460  0.36040  Biso   1.000  C
  C164     1.0000 0.17720  0.34460  0.13960  Biso   1.000  C
  H141     1.0000 0.18360  0.14330  0.60180  Biso   1.000  H
  H142     1.0000 0.81640  0.64330  0.89820  Biso   1.000  H
  H143     1.0000 0.81640  0.85670  0.39820  Biso   1.000  H
  H144     1.0000 0.18360  0.35670  0.10180  Biso   1.000  H
  C165     1.0000 0.20330  0.26886  0.72680  Biso   1.000  C
  C166     1.0000 0.79670  0.76886  0.77320  Biso   1.000  C
  C167     1.0000 0.79670  0.73114  0.27320  Biso   1.000  C
  C168     1.0000 0.20330  0.23114  0.22680  Biso   1.000  C
  C169     1.0000 0.21950  0.28450  0.79240  Biso   1.000  C
  C170     1.0000 0.78050  0.78450  0.70760  Biso   1.000  C
  C171     1.0000 0.78050  0.71550  0.20760  Biso   1.000  C
  C172     1.0000 0.21950  0.21550  0.29240  Biso   1.000  C
  H145     1.0000 0.22550  0.26410  0.82730  Biso   1.000  H
  H146     1.0000 0.77450  0.76410  0.67270  Biso   1.000  H
  H147     1.0000 0.77450  0.73590  0.17270  Biso   1.000  H
  H148     1.0000 0.22550  0.23590  0.32730  Biso   1.000  H
  C173     1.0000 0.22730  0.32989  0.80810  Biso   1.000  C
  C174     1.0000 0.77270  0.82989  0.69190  Biso   1.000  C
  C175     1.0000 0.77270  0.67011  0.19190  Biso   1.000  C
  C176     1.0000 0.22730  0.17011  0.30810  Biso   1.000  C
  H149     1.0000 0.23870  0.33960  0.85310  Biso   1.000  H
  H150     1.0000 0.76130  0.83960  0.64690  Biso   1.000  H
  H151     1.0000 0.76130  0.66040  0.14690  Biso   1.000  H
  H152     1.0000 0.23870  0.16040  0.35310  Biso   1.000  H
  C177     1.0000 0.21870  0.36088  0.75760  Biso   1.000  C
  C178     1.0000 0.78130  0.86088  0.74240  Biso   1.000  C
  C179     1.0000 0.78130  0.63912  0.24240  Biso   1.000  C
  C180     1.0000 0.21870  0.13912  0.25760  Biso   1.000  C
  C181     1.0000 0.20590  0.34579  0.69200  Biso   1.000  C
  C182     1.0000 0.79410  0.84579  0.80800  Biso   1.000  C
  C183     1.0000 0.79410  0.65421  0.30800  Biso   1.000  C
  C184     1.0000 0.20590  0.15421  0.19200  Biso   1.000  C
  H153     1.0000 0.20230  0.36620  0.65780  Biso   1.000  H
  H154     1.0000 0.79770  0.86620  0.84220  Biso   1.000  H
  H155     1.0000 0.79770  0.63380  0.34220  Biso   1.000  H
  H156     1.0000 0.20230  0.13380  0.15780  Biso   1.000  H
  C185     1.0000 0.19830  0.30069  0.67720  Biso   1.000  C
  C186     1.0000 0.80170  0.80069  0.82280  Biso   1.000  C
  C187     1.0000 0.80170  0.69931  0.32280  Biso   1.000  C
  C188     1.0000 0.19830  0.19931  0.17720  Biso   1.000  C
  H157     1.0000 0.18920  0.29120  0.63270  Biso   1.000  H
  H158     1.0000 0.81080  0.79120  0.86730  Biso   1.000  H
  H159     1.0000 0.81080  0.70880  0.36730  Biso   1.000  H
  H160     1.0000 0.18920  0.20880  0.13270  Biso   1.000  H
  C189     1.0000 0.22790  0.40931  0.77780  Biso   1.000  C
  C190     1.0000 0.77210  0.90931  0.72220  Biso   1.000  C
  C191     1.0000 0.77210  0.59069  0.22220  Biso   1.000  C
  C192     1.0000 0.22790  0.09069  0.27780  Biso   1.000  C
  C193     1.0000 0.70440  0.14999  0.18320  Biso   1.000  C
  C194     1.0000 0.29560  0.64999  0.31680  Biso   1.000  C
  C195     1.0000 0.29560  0.85001  0.81680  Biso   1.000  C
  C196     1.0000 0.70440  0.35001  0.68320  Biso   1.000  C
  H161     1.0000 0.71190  0.13630  0.14700  Biso   1.000  H
  H162     1.0000 0.28810  0.63630  0.35300  Biso   1.000  H
  H163     1.0000 0.28810  0.86370  0.85300  Biso   1.000  H
  H164     1.0000 0.71190  0.36370  0.64700  Biso   1.000  H
  C197     1.0000 0.71840  0.19606  0.19250  Biso   1.000  C
  C198     1.0000 0.28160  0.69606  0.30750  Biso   1.000  C
  C199     1.0000 0.28160  0.80394  0.80750  Biso   1.000  C
  C200     1.0000 0.71840  0.30394  0.69250  Biso   1.000  C
  H165     1.0000 0.73660  0.21230  0.16350  Biso   1.000  H
  H166     1.0000 0.26340  0.71230  0.33650  Biso   1.000  H
  H167     1.0000 0.26340  0.78770  0.83650  Biso   1.000  H
  H168     1.0000 0.73660  0.28770  0.66350  Biso   1.000  H
  C201     1.0000 0.70530  0.21758  0.24480  Biso   1.000  C
  C202     1.0000 0.29470  0.71758  0.25520  Biso   1.000  C
  C203     1.0000 0.29470  0.78242  0.75520  Biso   1.000  C
  C204     1.0000 0.70530  0.28242  0.74480  Biso   1.000  C
  C205     1.0000 0.68010  0.19117  0.28640  Biso   1.000  C
  C206     1.0000 0.31990  0.69117  0.21360  Biso   1.000  C
  C207     1.0000 0.31990  0.80883  0.71360  Biso   1.000  C
  C208     1.0000 0.68010  0.30883  0.78640  Biso   1.000  C
  H169     1.0000 0.67140  0.20360  0.32290  Biso   1.000  H
  H170     1.0000 0.32860  0.70360  0.17710  Biso   1.000  H
  H171     1.0000 0.32860  0.79640  0.67710  Biso   1.000  H
  H172     1.0000 0.67140  0.29640  0.82290  Biso   1.000  H
  C209     1.0000 0.66820  0.14513  0.27430  Biso   1.000  C
  C210     1.0000 0.33180  0.64513  0.22570  Biso   1.000  C
  C211     1.0000 0.33180  0.85487  0.72570  Biso   1.000  C
  C212     1.0000 0.66820  0.35487  0.77430  Biso   1.000  C
  H173     1.0000 0.65220  0.12790  0.30360  Biso   1.000  H
  H174     1.0000 0.34780  0.62790  0.19640  Biso   1.000  H
  H175     1.0000 0.34780  0.87210  0.69640  Biso   1.000  H
  H176     1.0000 0.65220  0.37210  0.80360  Biso   1.000  H
  C213     1.0000 0.71360  0.26713  0.25420  Biso   1.000  C
  C214     1.0000 0.28640  0.76713  0.24580  Biso   1.000  C
  C215     1.0000 0.28640  0.73287  0.74580  Biso   1.000  C
  C216     1.0000 0.71360  0.23287  0.75420  Biso   1.000  C
  C217     1.0000 0.69110  0.29514  0.19610  Biso   1.000  C
  C218     1.0000 0.30890  0.79514  0.30390  Biso   1.000  C
  C219     1.0000 0.30890  0.70486  0.80390  Biso   1.000  C
  C220     1.0000 0.69110  0.20486  0.69610  Biso   1.000  C
  H177     1.0000 0.67190  0.28280  0.15090  Biso   1.000  H
  H178     1.0000 0.32810  0.78280  0.34910  Biso   1.000  H
  H179     1.0000 0.32810  0.71720  0.84910  Biso   1.000  H
  H180     1.0000 0.67190  0.21720  0.65090  Biso   1.000  H
  C221     1.0000 0.69350  0.34148  0.20400  Biso   1.000  C
  C222     1.0000 0.30650  0.84148  0.29600  Biso   1.000  C
  C223     1.0000 0.30650  0.65852  0.79600  Biso   1.000  C
  C224     1.0000 0.69350  0.15852  0.70400  Biso   1.000  C
  H181     1.0000 0.67780  0.35990  0.16460  Biso   1.000  H
  H182     1.0000 0.32220  0.85990  0.33540  Biso   1.000  H
  H183     1.0000 0.32220  0.64010  0.83540  Biso   1.000  H
  H184     1.0000 0.67780  0.14010  0.66460  Biso   1.000  H
  C225     1.0000 0.72010  0.36021  0.27040  Biso   1.000  C
  C226     1.0000 0.27990  0.86021  0.22960  Biso   1.000  C
  C227     1.0000 0.27990  0.63979  0.72960  Biso   1.000  C
  C228     1.0000 0.72010  0.13979  0.77040  Biso   1.000  C
  C229     1.0000 0.74440  0.33239  0.32850  Biso   1.000  C
  C230     1.0000 0.25560  0.83239  0.17150  Biso   1.000  C
  C231     1.0000 0.25560  0.66761  0.67150  Biso   1.000  C
  C232     1.0000 0.74440  0.16761  0.82850  Biso   1.000  C
  H185     1.0000 0.76260  0.34450  0.37360  Biso   1.000  H
  H186     1.0000 0.23740  0.84450  0.12640  Biso   1.000  H
  H187     1.0000 0.23740  0.65550  0.62640  Biso   1.000  H
  H188     1.0000 0.76260  0.15550  0.87360  Biso   1.000  H
  C233     1.0000 0.74190  0.28628  0.32050  Biso   1.000  C
  C234     1.0000 0.25810  0.78628  0.17950  Biso   1.000  C
  C235     1.0000 0.25810  0.71372  0.67950  Biso   1.000  C
  C236     1.0000 0.74190  0.21372  0.82050  Biso   1.000  C
  H189     1.0000 0.75920  0.26790  0.36030  Biso   1.000  H
  H190     1.0000 0.24080  0.76790  0.13970  Biso   1.000  H
  H191     1.0000 0.24080  0.73210  0.63970  Biso   1.000  H
  H192     1.0000 0.75920  0.23210  0.86030  Biso   1.000  H
  C237     1.0000 0.72530  0.40989  0.28040  Biso   1.000  C
  C238     1.0000 0.27470  0.90989  0.21960  Biso   1.000  C
  C239     1.0000 0.27470  0.59011  0.71960  Biso   1.000  C
  C240     1.0000 0.72530  0.09011  0.78040  Biso   1.000  C
  C241     1.0000 0.85270  0.12789  0.65460  Biso   1.000  C
  C242     1.0000 0.14730  0.62789  0.84540  Biso   1.000  C
  C243     1.0000 0.14730  0.87211  0.34540  Biso   1.000  C
  C244     1.0000 0.85270  0.37211  0.15460  Biso   1.000  C
  H193     1.0000 0.88530  0.11430  0.70000  Biso   1.000  H
  H194     1.0000 0.11470  0.61430  0.80000  Biso   1.000  H
  H195     1.0000 0.11470  0.88570  0.30000  Biso   1.000  H
  H196     1.0000 0.88530  0.38570  0.20000  Biso   1.000  H
  C245     1.0000 0.87130  0.17286  0.64930  Biso   1.000  C
  C246     1.0000 0.12870  0.67286  0.85070  Biso   1.000  C
  C247     1.0000 0.12870  0.82714  0.35070  Biso   1.000  C
  C248     1.0000 0.87130  0.32714  0.14930  Biso   1.000  C
  H197     1.0000 0.91510  0.18870  0.69110  Biso   1.000  H
  H198     1.0000 0.08490  0.68870  0.80890  Biso   1.000  H
  H199     1.0000 0.08490  0.81130  0.30890  Biso   1.000  H
  H200     1.0000 0.91510  0.31130  0.19110  Biso   1.000  H
  C249     1.0000 0.82610  0.19469  0.58340  Biso   1.000  C
  C250     1.0000 0.17390  0.69469  0.91660  Biso   1.000  C
  C251     1.0000 0.17390  0.80531  0.41660  Biso   1.000  C
  C252     1.0000 0.82610  0.30531  0.08340  Biso   1.000  C
  C253     1.0000 0.76240  0.16873  0.52520  Biso   1.000  C
  C254     1.0000 0.23760  0.66873  0.97480  Biso   1.000  C
  C255     1.0000 0.23760  0.83127  0.47480  Biso   1.000  C
  C256     1.0000 0.76240  0.33127  0.02520  Biso   1.000  C
  H201     1.0000 0.72910  0.18130  0.47900  Biso   1.000  H
  H202     1.0000 0.27090  0.68130  0.02100  Biso   1.000  H
  H203     1.0000 0.27090  0.81870  0.52100  Biso   1.000  H
  H204     1.0000 0.72910  0.31870  0.97900  Biso   1.000  H
  C257     1.0000 0.74710  0.12322  0.53320  Biso   1.000  C
  C258     1.0000 0.25290  0.62322  0.96680  Biso   1.000  C
  C259     1.0000 0.25290  0.87678  0.46680  Biso   1.000  C
  C260     1.0000 0.74710  0.37678  0.03320  Biso   1.000  C
  H205     1.0000 0.70370  0.10660  0.49230  Biso   1.000  H
  H206     1.0000 0.29630  0.60660  0.00770  Biso   1.000  H
  H207     1.0000 0.29630  0.89340  0.50770  Biso   1.000  H
  H208     1.0000 0.70370  0.39340  0.99230  Biso   1.000  H
  C261     1.0000 0.84430  0.24307  0.57840  Biso   1.000  C
  C262     1.0000 0.15570  0.74307  0.92160  Biso   1.000  C
  C263     1.0000 0.15570  0.75693  0.42160  Biso   1.000  C
  C264     1.0000 0.84430  0.25693  0.07840  Biso   1.000  C
  C265     1.0000 0.93010  0.26491  0.63350  Biso   1.000  C
  C266     1.0000 0.06990  0.76491  0.86650  Biso   1.000  C
  C267     1.0000 0.06990  0.73509  0.36650  Biso   1.000  C
  C268     1.0000 0.93010  0.23509  0.13350  Biso   1.000  C
  H209     1.0000 0.97680  0.24830  0.67320  Biso   1.000  H
  H210     1.0000 0.02320  0.74830  0.82680  Biso   1.000  H
  H211     1.0000 0.02320  0.75170  0.32680  Biso   1.000  H
  H212     1.0000 0.97680  0.25170  0.17320  Biso   1.000  H
  C269     1.0000 0.94750  0.30992  0.63010  Biso   1.000  C
  C270     1.0000 0.05250  0.80992  0.86990  Biso   1.000  C
  C271     1.0000 0.05250  0.69008  0.36990  Biso   1.000  C
  C272     1.0000 0.94750  0.19008  0.13010  Biso   1.000  C
  H213     1.0000 0.00470  0.32330  0.66800  Biso   1.000  H
  H214     1.0000 0.99530  0.82330  0.83200  Biso   1.000  H
  H215     1.0000 0.99530  0.67670  0.33200  Biso   1.000  H
  H216     1.0000 0.00470  0.17670  0.16800  Biso   1.000  H
  C273     1.0000 0.88090  0.33515  0.57010  Biso   1.000  C
  C274     1.0000 0.11910  0.83515  0.92990  Biso   1.000  C
  C275     1.0000 0.11910  0.66485  0.42990  Biso   1.000  C
  C276     1.0000 0.88090  0.16485  0.07010  Biso   1.000  C
  C277     1.0000 0.79430  0.31436  0.51610  Biso   1.000  C
  C278     1.0000 0.20570  0.81436  0.98390  Biso   1.000  C
  C279     1.0000 0.20570  0.68564  0.48390  Biso   1.000  C
  C280     1.0000 0.79430  0.18564  0.01610  Biso   1.000  C
  H217     1.0000 0.74760  0.33110  0.47650  Biso   1.000  H
  H218     1.0000 0.25240  0.83110  0.02350  Biso   1.000  H
  H219     1.0000 0.25240  0.66890  0.52350  Biso   1.000  H
  H220     1.0000 0.74760  0.16890  0.97650  Biso   1.000  H
  C281     1.0000 0.77540  0.26938  0.52000  Biso   1.000  C
  C282     1.0000 0.22460  0.76938  0.98000  Biso   1.000  C
  C283     1.0000 0.22460  0.73062  0.48000  Biso   1.000  C
  C284     1.0000 0.77540  0.23062  0.02000  Biso   1.000  C
  H221     1.0000 0.71610  0.25670  0.48320  Biso   1.000  H
  H222     1.0000 0.28390  0.75670  0.01680  Biso   1.000  H
  H223     1.0000 0.28390  0.74330  0.51680  Biso   1.000  H
  H224     1.0000 0.71610  0.24330  0.98320  Biso   1.000  H
  C285     1.0000 0.90330  0.38353  0.56300  Biso   1.000  C
  C286     1.0000 0.09670  0.88353  0.93700  Biso   1.000  C
  C287     1.0000 0.09670  0.61647  0.43700  Biso   1.000  C
  C288     1.0000 0.90330  0.11647  0.06300  Biso   1.000  C
  C289     1.0000 0.05050  0.86980  0.54350  Biso   1.000  C
  C290     1.0000 0.94950  0.36980  0.95650  Biso   1.000  C
  C291     1.0000 0.94950  0.13020  0.45650  Biso   1.000  C
  C292     1.0000 0.05050  0.63020  0.04350  Biso   1.000  C
  H225     1.0000 0.08970  0.88310  0.52630  Biso   1.000  H
  H226     1.0000 0.91030  0.38310  0.97370  Biso   1.000  H
  H227     1.0000 0.91030  0.11690  0.47370  Biso   1.000  H
  H228     1.0000 0.08970  0.61690  0.02630  Biso   1.000  H
  C293     1.0000 0.05080  0.82390  0.54810  Biso   1.000  C
  C294     1.0000 0.94920  0.32390  0.95190  Biso   1.000  C
  C295     1.0000 0.94920  0.17610  0.45190  Biso   1.000  C
  C296     1.0000 0.05080  0.67610  0.04810  Biso   1.000  C
  H229     1.0000 0.08850  0.80700  0.53330  Biso   1.000  H
  H230     1.0000 0.91150  0.30700  0.96670  Biso   1.000  H
  H231     1.0000 0.91150  0.19300  0.46670  Biso   1.000  H
  H232     1.0000 0.08850  0.69300  0.03330  Biso   1.000  H
  C297     1.0000 0.99450  0.80332  0.57470  Biso   1.000  C
  C298     1.0000 0.00550  0.30332  0.92530  Biso   1.000  C
  C299     1.0000 0.00550  0.19668  0.42530  Biso   1.000  C
  C300     1.0000 0.99450  0.69668  0.07470  Biso   1.000  C
  C301     1.0000 0.93890  0.83060  0.59300  Biso   1.000  C
  C302     1.0000 0.06110  0.33060  0.90700  Biso   1.000  C
  C303     1.0000 0.06110  0.16940  0.40700  Biso   1.000  C
  C304     1.0000 0.93890  0.66940  0.09300  Biso   1.000  C
  H233     1.0000 0.90080  0.81840  0.61190  Biso   1.000  H
  H234     1.0000 0.09920  0.31840  0.88810  Biso   1.000  H
  H235     1.0000 0.09920  0.18160  0.38810  Biso   1.000  H
  H236     1.0000 0.90080  0.68160  0.11190  Biso   1.000  H
  C305     1.0000 0.94040  0.87680  0.58500  Biso   1.000  C
  C306     1.0000 0.05960  0.37680  0.91500  Biso   1.000  C
  C307     1.0000 0.05960  0.12320  0.41500  Biso   1.000  C
  C308     1.0000 0.94040  0.62320  0.08500  Biso   1.000  C
  H237     1.0000 0.90100  0.89450  0.59740  Biso   1.000  H
  H238     1.0000 0.09900  0.39450  0.90260  Biso   1.000  H
  H239     1.0000 0.09900  0.10550  0.40260  Biso   1.000  H
  H240     1.0000 0.90100  0.60550  0.09740  Biso   1.000  H
  C309     1.0000 0.99340  0.75410  0.58160  Biso   1.000  C
  C310     1.0000 0.00660  0.25410  0.91840  Biso   1.000  C
  C311     1.0000 0.00660  0.24590  0.41840  Biso   1.000  C
  C312     1.0000 0.99340  0.74590  0.08160  Biso   1.000  C
  C313     1.0000 0.99840  0.72574  0.53140  Biso   1.000  C
  C314     1.0000 0.00160  0.22574  0.96860  Biso   1.000  C
  C315     1.0000 0.00160  0.27426  0.46860  Biso   1.000  C
  C316     1.0000 0.99840  0.77426  0.03140  Biso   1.000  C
  H241     1.0000 0.99740  0.73810  0.49100  Biso   1.000  H
  H242     1.0000 0.00260  0.23810  0.00900  Biso   1.000  H
  H243     1.0000 0.00260  0.26190  0.50900  Biso   1.000  H
  H244     1.0000 0.99740  0.76190  0.99100  Biso   1.000  H
  C317     1.0000 0.00310  0.67986  0.54060  Biso   1.000  C
  C318     1.0000 0.99690  0.17986  0.95940  Biso   1.000  C
  C319     1.0000 0.99690  0.32014  0.45940  Biso   1.000  C
  C320     1.0000 0.00310  0.82014  0.04060  Biso   1.000  C
  H245     1.0000 0.00520  0.66160  0.50610  Biso   1.000  H
  H246     1.0000 0.99480  0.16160  0.99390  Biso   1.000  H
  H247     1.0000 0.99480  0.33840  0.49390  Biso   1.000  H
  H248     1.0000 0.00520  0.83840  0.00610  Biso   1.000  H
  C321     1.0000 0.00470  0.66090  0.59990  Biso   1.000  C
  C322     1.0000 0.99530  0.16090  0.90010  Biso   1.000  C
  C323     1.0000 0.99530  0.33910  0.40010  Biso   1.000  C
  C324     1.0000 0.00470  0.83910  0.09990  Biso   1.000  C
  C325     1.0000 0.99650  0.68869  0.64890  Biso   1.000  C
  C326     1.0000 0.00350  0.18869  0.85110  Biso   1.000  C
  C327     1.0000 0.00350  0.31131  0.35110  Biso   1.000  C
  C328     1.0000 0.99650  0.81131  0.14890  Biso   1.000  C
  H249     1.0000 0.99620  0.67610  0.68870  Biso   1.000  H
  H250     1.0000 0.00380  0.17610  0.81130  Biso   1.000  H
  H251     1.0000 0.00380  0.32390  0.31130  Biso   1.000  H
  H252     1.0000 0.99620  0.82390  0.18870  Biso   1.000  H
  C329     1.0000 0.99010  0.73454  0.63970  Biso   1.000  C
  C330     1.0000 0.00990  0.23454  0.86030  Biso   1.000  C
  C331     1.0000 0.00990  0.26546  0.36030  Biso   1.000  C
  C332     1.0000 0.99010  0.76546  0.13970  Biso   1.000  C
  H253     1.0000 0.98390  0.75250  0.67290  Biso   1.000  H
  H254     1.0000 0.01610  0.25250  0.82710  Biso   1.000  H
  H255     1.0000 0.01610  0.24750  0.32710  Biso   1.000  H
  H256     1.0000 0.98390  0.74750  0.17290  Biso   1.000  H
  C333     1.0000 0.02180  0.61153  0.61500  Biso   1.000  C
  C334     1.0000 0.97820  0.11153  0.88500  Biso   1.000  C
  C335     1.0000 0.97820  0.38847  0.38500  Biso   1.000  C
  C336     1.0000 0.02180  0.88847  0.11500  Biso   1.000  C
  C337     1.0000 0.06680  0.56366  0.27470  Biso   1.000  C
  C338     1.0000 0.93320  0.06366  0.22530  Biso   1.000  C
  C339     1.0000 0.93320  0.43634  0.72530  Biso   1.000  C
  C340     1.0000 0.06680  0.93634  0.77470  Biso   1.000  C
  H257     1.0000 0.07490  0.59080  0.29850  Biso   1.000  H
  H258     1.0000 0.92510  0.09080  0.20150  Biso   1.000  H
  H259     1.0000 0.92510  0.40920  0.70150  Biso   1.000  H
  H260     1.0000 0.07490  0.90920  0.79850  Biso   1.000  H
  C341     1.0000 0.10500  0.55955  0.22890  Biso   1.000  C
  C342     1.0000 0.89500  0.05955  0.27110  Biso   1.000  C
  C343     1.0000 0.89500  0.44045  0.77110  Biso   1.000  C
  C344     1.0000 0.10500  0.94045  0.72890  Biso   1.000  C
  H261     1.0000 0.13780  0.58380  0.22210  Biso   1.000  H
  H262     1.0000 0.86220  0.08380  0.27790  Biso   1.000  H
  H263     1.0000 0.86220  0.41620  0.77790  Biso   1.000  H
  H264     1.0000 0.13780  0.91620  0.72210  Biso   1.000  H
  C345     1.0000 0.09650  0.51980  0.19360  Biso   1.000  C
  C346     1.0000 0.90350  0.01980  0.30640  Biso   1.000  C
  C347     1.0000 0.90350  0.48020  0.80640  Biso   1.000  C
  C348     1.0000 0.09650  0.98020  0.69360  Biso   1.000  C
  C349     1.0000 0.04770  0.48496  0.20710  Biso   1.000  C
  C350     1.0000 0.95230  0.98496  0.29290  Biso   1.000  C
  C351     1.0000 0.95230  0.51504  0.79290  Biso   1.000  C
  C352     1.0000 0.04770  0.01504  0.70710  Biso   1.000  C
  H265     1.0000 0.03720  0.45780  0.18290  Biso   1.000  H
  H266     1.0000 0.96280  0.95780  0.31710  Biso   1.000  H
  H267     1.0000 0.96280  0.54220  0.81710  Biso   1.000  H
  H268     1.0000 0.03720  0.04220  0.68290  Biso   1.000  H
  C353     1.0000 0.01200  0.49128  0.25440  Biso   1.000  C
  C354     1.0000 0.98800  0.99128  0.24560  Biso   1.000  C
  C355     1.0000 0.98800  0.50872  0.74560  Biso   1.000  C
  C356     1.0000 0.01200  0.00872  0.75440  Biso   1.000  C
  H269     1.0000 0.97870  0.46770  0.26220  Biso   1.000  H
  H270     1.0000 0.02130  0.96770  0.23780  Biso   1.000  H
  H271     1.0000 0.02130  0.53230  0.73780  Biso   1.000  H
  H272     1.0000 0.97870  0.03230  0.76220  Biso   1.000  H
  C357     1.0000 0.14030  0.51351  0.14660  Biso   1.000  C
  C358     1.0000 0.85970  0.01351  0.35340  Biso   1.000  C
  C359     1.0000 0.85970  0.48649  0.85340  Biso   1.000  C
  C360     1.0000 0.14030  0.98649  0.64660  Biso   1.000  C
  C361     1.0000 0.09510  0.48421  0.08810  Biso   1.000  C
  C362     1.0000 0.90490  0.98421  0.41190  Biso   1.000  C
  C363     1.0000 0.90490  0.51579  0.91190  Biso   1.000  C
  C364     1.0000 0.09510  0.01579  0.58810  Biso   1.000  C
  H273     1.0000 0.03650  0.46870  0.07840  Biso   1.000  H
  H274     1.0000 0.96350  0.96870  0.42160  Biso   1.000  H
  H275     1.0000 0.96350  0.53130  0.92160  Biso   1.000  H
  H276     1.0000 0.03650  0.03130  0.57840  Biso   1.000  H
  C365     1.0000 0.13760  0.47742  0.04480  Biso   1.000  C
  C366     1.0000 0.86240  0.97742  0.45520  Biso   1.000  C
  C367     1.0000 0.86240  0.52258  0.95520  Biso   1.000  C
  C368     1.0000 0.13760  0.02258  0.54480  Biso   1.000  C
  H277     1.0000 0.10570  0.45860  0.00470  Biso   1.000  H
  H278     1.0000 0.89430  0.95860  0.49530  Biso   1.000  H
  H279     1.0000 0.89430  0.54140  0.99530  Biso   1.000  H
  H280     1.0000 0.10570  0.04140  0.50470  Biso   1.000  H
  C369     1.0000 0.22660  0.49976  0.05960  Biso   1.000  C
  C370     1.0000 0.77340  0.99976  0.44040  Biso   1.000  C
  C371     1.0000 0.77340  0.50024  0.94040  Biso   1.000  C
  C372     1.0000 0.22660  0.00024  0.55960  Biso   1.000  C
  C373     1.0000 0.27170  0.52957  0.11770  Biso   1.000  C
  C374     1.0000 0.72830  0.02957  0.38230  Biso   1.000  C
  C375     1.0000 0.72830  0.47043  0.88230  Biso   1.000  C
  C376     1.0000 0.27170  0.97043  0.61770  Biso   1.000  C
  H281     1.0000 0.33080  0.54470  0.12770  Biso   1.000  H
  H282     1.0000 0.66920  0.04470  0.37230  Biso   1.000  H
  H283     1.0000 0.66920  0.45530  0.87230  Biso   1.000  H
  H284     1.0000 0.33080  0.95530  0.62770  Biso   1.000  H
  C377     1.0000 0.22840  0.53661  0.16040  Biso   1.000  C
  C378     1.0000 0.77160  0.03661  0.33960  Biso   1.000  C
  C379     1.0000 0.77160  0.46339  0.83960  Biso   1.000  C
  C380     1.0000 0.22840  0.96339  0.66040  Biso   1.000  C
  H285     1.0000 0.25740  0.55700  0.19840  Biso   1.000  H
  H286     1.0000 0.74260  0.05700  0.30160  Biso   1.000  H
  H287     1.0000 0.74260  0.44300  0.80160  Biso   1.000  H
  H288     1.0000 0.25740  0.94300  0.69840  Biso   1.000  H
  C381     1.0000 0.27440  0.48855  0.01610  Biso   1.000  C
  C382     1.0000 0.72560  0.98855  0.48390  Biso   1.000  C
  C383     1.0000 0.72560  0.51145  0.98390  Biso   1.000  C
  C384     1.0000 0.27440  0.01145  0.51610  Biso   1.000  C
