data_image0
_cell_length_a       18.051
_cell_length_b       21.21
_cell_length_c       17.979
_cell_angle_alpha    90
_cell_angle_beta     90
_cell_angle_gamma    90

_symmetry_space_group_name_H-M    "P 1"
_symmetry_int_tables_number       1

loop_
  _symmetry_equiv_pos_as_xyz
  'x, y, z'

loop_
  _atom_site_label
  _atom_site_occupancy
  _atom_site_fract_x
  _atom_site_fract_y
  _atom_site_fract_z
  _atom_site_thermal_displace_type
  _atom_site_B_iso_or_equiv
  _atom_site_type_symbol
  Cu1      1.0000 0.48432  0.26760  0.86881  Biso   1.000  Cu
  Cu2      1.0000 0.01568  0.73240  0.36881  Biso   1.000  Cu
  Cu3      1.0000 0.98432  0.23240  0.13119  Biso   1.000  Cu
  Cu4      1.0000 0.51568  0.76760  0.63119  Biso   1.000  Cu
  Cu5      1.0000 0.51568  0.73240  0.13119  Biso   1.000  Cu
  Cu6      1.0000 0.98432  0.26760  0.63119  Biso   1.000  Cu
  Cu7      1.0000 0.01568  0.76760  0.86881  Biso   1.000  Cu
  Cu8      1.0000 0.48432  0.23240  0.36881  Biso   1.000  Cu
  Cu9      1.0000 0.11969  0.98534  0.23325  Biso   1.000  Cu
  Cu10     1.0000 0.38031  0.01466  0.73325  Biso   1.000  Cu
  Cu11     1.0000 0.61969  0.51466  0.76675  Biso   1.000  Cu
  Cu12     1.0000 0.88031  0.48534  0.26675  Biso   1.000  Cu
  Cu13     1.0000 0.88031  0.01466  0.76675  Biso   1.000  Cu
  Cu14     1.0000 0.61969  0.98534  0.26675  Biso   1.000  Cu
  Cu15     1.0000 0.38031  0.48534  0.23325  Biso   1.000  Cu
  Cu16     1.0000 0.11969  0.51466  0.73325  Biso   1.000  Cu
  O1       1.0000 0.45840  0.20452  0.79311  Biso   1.000  O
  O2       1.0000 0.04160  0.79548  0.29311  Biso   1.000  O
  O3       1.0000 0.95840  0.29548  0.20689  Biso   1.000  O
  O4       1.0000 0.54160  0.70452  0.70689  Biso   1.000  O
  O5       1.0000 0.54160  0.79548  0.20689  Biso   1.000  O
  O6       1.0000 0.95840  0.20452  0.70689  Biso   1.000  O
  O7       1.0000 0.04160  0.70452  0.79311  Biso   1.000  O
  O8       1.0000 0.45840  0.29548  0.29311  Biso   1.000  O
  O9       1.0000 0.49180  0.17900  0.67460  Biso   1.000  O
  O10      1.0000 0.00820  0.82100  0.17460  Biso   1.000  O
  O11      1.0000 0.99180  0.32100  0.32540  Biso   1.000  O
  O12      1.0000 0.50820  0.67900  0.82540  Biso   1.000  O
  O13      1.0000 0.50820  0.82100  0.32540  Biso   1.000  O
  O14      1.0000 0.99180  0.17900  0.82540  Biso   1.000  O
  O15      1.0000 0.00820  0.67900  0.67460  Biso   1.000  O
  O16      1.0000 0.49180  0.32100  0.17460  Biso   1.000  O
  O17      1.0000 0.03739  0.04438  0.20952  Biso   1.000  O
  O18      1.0000 0.46261  0.95562  0.70952  Biso   1.000  O
  O19      1.0000 0.53739  0.45562  0.79048  Biso   1.000  O
  O20      1.0000 0.96261  0.54438  0.29048  Biso   1.000  O
  O21      1.0000 0.96261  0.95562  0.79048  Biso   1.000  O
  O22      1.0000 0.53739  0.04438  0.29048  Biso   1.000  O
  O23      1.0000 0.46261  0.54438  0.20952  Biso   1.000  O
  O24      1.0000 0.03739  0.45562  0.70952  Biso   1.000  O
  O25      1.0000 0.91488  0.05612  0.22020  Biso   1.000  O
  O26      1.0000 0.58512  0.94388  0.72020  Biso   1.000  O
  O27      1.0000 0.41488  0.44388  0.77980  Biso   1.000  O
  O28      1.0000 0.08512  0.55612  0.27980  Biso   1.000  O
  O29      1.0000 0.08512  0.94388  0.77980  Biso   1.000  O
  O30      1.0000 0.41488  0.05612  0.27980  Biso   1.000  O
  O31      1.0000 0.58512  0.55612  0.22020  Biso   1.000  O
  O32      1.0000 0.91488  0.44388  0.72020  Biso   1.000  O
  O33      1.0000 0.09610  0.91847  0.14330  Biso   1.000  O
  O34      1.0000 0.40390  0.08153  0.64330  Biso   1.000  O
  O35      1.0000 0.59610  0.58153  0.85670  Biso   1.000  O
  O36      1.0000 0.90390  0.41847  0.35670  Biso   1.000  O
  O37      1.0000 0.90390  0.08153  0.85670  Biso   1.000  O
  O38      1.0000 0.59610  0.91847  0.35670  Biso   1.000  O
  O39      1.0000 0.40390  0.41847  0.14330  Biso   1.000  O
  O40      1.0000 0.09610  0.58153  0.64330  Biso   1.000  O
  O41      1.0000 0.39349  0.34534  0.86755  Biso   1.000  O
  O42      1.0000 0.10651  0.65466  0.36755  Biso   1.000  O
  O43      1.0000 0.89349  0.15466  0.13245  Biso   1.000  O
  O44      1.0000 0.60651  0.84534  0.63245  Biso   1.000  O
  O45      1.0000 0.60651  0.65466  0.13245  Biso   1.000  O
  O46      1.0000 0.89349  0.34534  0.63245  Biso   1.000  O
  O47      1.0000 0.10651  0.84534  0.86755  Biso   1.000  O
  O48      1.0000 0.39349  0.15466  0.36755  Biso   1.000  O
  O49      1.0000 0.07140  0.02981  0.43070  Biso   1.000  O
  O50      1.0000 0.42860  0.97019  0.93070  Biso   1.000  O
  O51      1.0000 0.57140  0.47019  0.56930  Biso   1.000  O
  O52      1.0000 0.92860  0.52981  0.06930  Biso   1.000  O
  O53      1.0000 0.92860  0.97019  0.56930  Biso   1.000  O
  O54      1.0000 0.57140  0.02981  0.06930  Biso   1.000  O
  O55      1.0000 0.42860  0.52981  0.43070  Biso   1.000  O
  O56      1.0000 0.07140  0.47019  0.93070  Biso   1.000  O
  O57      1.0000 0.13800  0.08261  0.35630  Biso   1.000  O
  O58      1.0000 0.36200  0.91739  0.85630  Biso   1.000  O
  O59      1.0000 0.63800  0.41739  0.64370  Biso   1.000  O
  O60      1.0000 0.86200  0.58261  0.14370  Biso   1.000  O
  O61      1.0000 0.86200  0.91739  0.64370  Biso   1.000  O
  O62      1.0000 0.63800  0.08261  0.14370  Biso   1.000  O
  O63      1.0000 0.36200  0.58261  0.35630  Biso   1.000  O
  O64      1.0000 0.13800  0.41739  0.85630  Biso   1.000  O
  O65      1.0000 0.11490  0.11820  0.46640  Biso   1.000  O
  O66      1.0000 0.38510  0.88180  0.96640  Biso   1.000  O
  O67      1.0000 0.61490  0.38180  0.53360  Biso   1.000  O
  O68      1.0000 0.88510  0.61820  0.03360  Biso   1.000  O
  O69      1.0000 0.88510  0.88180  0.53360  Biso   1.000  O
  O70      1.0000 0.61490  0.11820  0.03360  Biso   1.000  O
  O71      1.0000 0.38510  0.61820  0.46640  Biso   1.000  O
  O72      1.0000 0.11490  0.38180  0.96640  Biso   1.000  O
  O73      1.0000 0.17240  0.24737  0.24030  Biso   1.000  O
  O74      1.0000 0.32760  0.75263  0.74030  Biso   1.000  O
  O75      1.0000 0.67240  0.25263  0.75970  Biso   1.000  O
  O76      1.0000 0.82760  0.74737  0.25970  Biso   1.000  O
  O77      1.0000 0.82760  0.75263  0.75970  Biso   1.000  O
  O78      1.0000 0.67240  0.24737  0.25970  Biso   1.000  O
  O79      1.0000 0.32760  0.74737  0.24030  Biso   1.000  O
  O80      1.0000 0.17240  0.25263  0.74030  Biso   1.000  O
  O81      1.0000 0.13370  0.29810  0.14390  Biso   1.000  O
  O82      1.0000 0.36630  0.70190  0.64390  Biso   1.000  O
  O83      1.0000 0.63370  0.20190  0.85610  Biso   1.000  O
  O84      1.0000 0.86630  0.79810  0.35610  Biso   1.000  O
  O85      1.0000 0.86630  0.70190  0.85610  Biso   1.000  O
  O86      1.0000 0.63370  0.29810  0.35610  Biso   1.000  O
  O87      1.0000 0.36630  0.79810  0.14390  Biso   1.000  O
  O88      1.0000 0.13370  0.20190  0.64390  Biso   1.000  O
  O89      1.0000 0.25080  0.29600  0.17090  Biso   1.000  O
  O90      1.0000 0.24920  0.70400  0.67090  Biso   1.000  O
  O91      1.0000 0.75080  0.20400  0.82910  Biso   1.000  O
  O92      1.0000 0.74920  0.79600  0.32910  Biso   1.000  O
  O93      1.0000 0.74920  0.70400  0.82910  Biso   1.000  O
  O94      1.0000 0.75080  0.29600  0.32910  Biso   1.000  O
  O95      1.0000 0.24920  0.79600  0.17090  Biso   1.000  O
  O96      1.0000 0.25080  0.20400  0.67090  Biso   1.000  O
  O97      1.0000 0.24990  0.36360  0.03490  Biso   1.000  O
  O98      1.0000 0.25010  0.63640  0.53490  Biso   1.000  O
  O99      1.0000 0.74990  0.13640  0.96510  Biso   1.000  O
  O100     1.0000 0.75010  0.86360  0.46510  Biso   1.000  O
  O101     1.0000 0.75010  0.63640  0.96510  Biso   1.000  O
  O102     1.0000 0.74990  0.36360  0.46510  Biso   1.000  O
  O103     1.0000 0.25010  0.86360  0.03490  Biso   1.000  O
  O104     1.0000 0.24990  0.13640  0.53490  Biso   1.000  O
  O105     1.0000 0.24767  0.18804  0.35370  Biso   1.000  O
  O106     1.0000 0.25233  0.81196  0.85370  Biso   1.000  O
  O107     1.0000 0.74767  0.31196  0.64630  Biso   1.000  O
  O108     1.0000 0.75233  0.68804  0.14630  Biso   1.000  O
  O109     1.0000 0.75233  0.81196  0.64630  Biso   1.000  O
  O110     1.0000 0.74767  0.18804  0.14630  Biso   1.000  O
  O111     1.0000 0.25233  0.68804  0.35370  Biso   1.000  O
  O112     1.0000 0.24767  0.31196  0.85370  Biso   1.000  O
  O113     1.0000 0.37210  0.43050  0.99290  Biso   1.000  O
  O114     1.0000 0.12790  0.56950  0.49290  Biso   1.000  O
  O115     1.0000 0.87210  0.06950  0.00710  Biso   1.000  O
  O116     1.0000 0.62790  0.93050  0.50710  Biso   1.000  O
  O117     1.0000 0.62790  0.56950  0.00710  Biso   1.000  O
  O118     1.0000 0.87210  0.43050  0.50710  Biso   1.000  O
  O119     1.0000 0.12790  0.93050  0.99290  Biso   1.000  O
  O120     1.0000 0.37210  0.06950  0.49290  Biso   1.000  O
  N1       1.0000 0.53180  0.31211  0.78500  Biso   1.000  N
  N2       1.0000 0.96820  0.68789  0.28500  Biso   1.000  N
  N3       1.0000 0.03180  0.18789  0.21500  Biso   1.000  N
  N4       1.0000 0.46820  0.81211  0.71500  Biso   1.000  N
  N5       1.0000 0.46820  0.68789  0.21500  Biso   1.000  N
  N6       1.0000 0.03180  0.31211  0.71500  Biso   1.000  N
  N7       1.0000 0.96820  0.81211  0.78500  Biso   1.000  N
  N8       1.0000 0.53180  0.18789  0.28500  Biso   1.000  N
  N9       1.0000 0.43050  0.21550  0.94494  Biso   1.000  N
  N10      1.0000 0.06950  0.78450  0.44494  Biso   1.000  N
  N11      1.0000 0.93050  0.28450  0.05506  Biso   1.000  N
  N12      1.0000 0.56950  0.71550  0.55506  Biso   1.000  N
  N13      1.0000 0.56950  0.78450  0.05506  Biso   1.000  N
  N14      1.0000 0.93050  0.21550  0.55506  Biso   1.000  N
  N15      1.0000 0.06950  0.71550  0.94494  Biso   1.000  N
  N16      1.0000 0.43050  0.28450  0.44494  Biso   1.000  N
  N17      1.0000 0.19301  0.03434  0.17270  Biso   1.000  N
  N18      1.0000 0.30699  0.96566  0.67270  Biso   1.000  N
  N19      1.0000 0.69301  0.46566  0.82730  Biso   1.000  N
  N20      1.0000 0.80699  0.53434  0.32730  Biso   1.000  N
  N21      1.0000 0.80699  0.96566  0.82730  Biso   1.000  N
  N22      1.0000 0.69301  0.03434  0.32730  Biso   1.000  N
  N23      1.0000 0.30699  0.53434  0.17270  Biso   1.000  N
  N24      1.0000 0.19301  0.46566  0.67270  Biso   1.000  N
  N25      1.0000 0.04302  0.94541  0.29680  Biso   1.000  N
  N26      1.0000 0.45698  0.05459  0.79680  Biso   1.000  N
  N27      1.0000 0.54302  0.55459  0.70320  Biso   1.000  N
  N28      1.0000 0.95698  0.44541  0.20320  Biso   1.000  N
  N29      1.0000 0.95698  0.05459  0.70320  Biso   1.000  N
  N30      1.0000 0.54302  0.94541  0.20320  Biso   1.000  N
  N31      1.0000 0.45698  0.44541  0.29680  Biso   1.000  N
  N32      1.0000 0.04302  0.55459  0.79680  Biso   1.000  N
  H1       1.0000 0.04830  0.90230  0.29560  Biso   1.000  H
  H2       1.0000 0.45170  0.09770  0.79560  Biso   1.000  H
  H3       1.0000 0.54830  0.59770  0.70440  Biso   1.000  H
  H4       1.0000 0.95170  0.40230  0.20440  Biso   1.000  H
  H5       1.0000 0.95170  0.09770  0.70440  Biso   1.000  H
  H6       1.0000 0.54830  0.90230  0.20440  Biso   1.000  H
  H7       1.0000 0.45170  0.40230  0.29560  Biso   1.000  H
  H8       1.0000 0.04830  0.59770  0.79560  Biso   1.000  H
  H9       1.0000 0.04880  0.95850  0.34530  Biso   1.000  H
  H10      1.0000 0.45120  0.04150  0.84530  Biso   1.000  H
  H11      1.0000 0.54880  0.54150  0.65470  Biso   1.000  H
  H12      1.0000 0.95120  0.45850  0.15470  Biso   1.000  H
  H13      1.0000 0.95120  0.04150  0.65470  Biso   1.000  H
  H14      1.0000 0.54880  0.95850  0.15470  Biso   1.000  H
  H15      1.0000 0.45120  0.45850  0.34530  Biso   1.000  H
  H16      1.0000 0.04880  0.54150  0.84530  Biso   1.000  H
  N33      1.0000 0.79742  0.44400  0.20827  Biso   1.000  N
  N34      1.0000 0.70258  0.55600  0.70827  Biso   1.000  N
  N35      1.0000 0.29742  0.05600  0.79173  Biso   1.000  N
  N36      1.0000 0.20258  0.94400  0.29173  Biso   1.000  N
  N37      1.0000 0.20258  0.55600  0.79173  Biso   1.000  N
  N38      1.0000 0.29742  0.44400  0.29173  Biso   1.000  N
  N39      1.0000 0.70258  0.94400  0.20827  Biso   1.000  N
  N40      1.0000 0.79742  0.05600  0.70827  Biso   1.000  N
  N41      1.0000 0.54752  0.31035  0.94730  Biso   1.000  N
  N42      1.0000 0.95248  0.68965  0.44730  Biso   1.000  N
  N43      1.0000 0.04752  0.18965  0.05270  Biso   1.000  N
  N44      1.0000 0.45248  0.81035  0.55270  Biso   1.000  N
  N45      1.0000 0.45248  0.68965  0.05270  Biso   1.000  N
  N46      1.0000 0.04752  0.31035  0.55270  Biso   1.000  N
  N47      1.0000 0.95248  0.81035  0.94730  Biso   1.000  N
  N48      1.0000 0.54752  0.18965  0.44730  Biso   1.000  N
  N49      1.0000 0.10890  0.07650  0.41740  Biso   1.000  N
  N50      1.0000 0.39110  0.92350  0.91740  Biso   1.000  N
  N51      1.0000 0.60890  0.42350  0.58260  Biso   1.000  N
  N52      1.0000 0.89110  0.57650  0.08260  Biso   1.000  N
  N53      1.0000 0.89110  0.92350  0.58260  Biso   1.000  N
  N54      1.0000 0.60890  0.07650  0.08260  Biso   1.000  N
  N55      1.0000 0.39110  0.57650  0.41740  Biso   1.000  N
  N56      1.0000 0.10890  0.42350  0.91740  Biso   1.000  N
  N57      1.0000 0.18640  0.28030  0.18510  Biso   1.000  N
  N58      1.0000 0.31360  0.71970  0.68510  Biso   1.000  N
  N59      1.0000 0.68640  0.21970  0.81490  Biso   1.000  N
  N60      1.0000 0.81360  0.78030  0.31490  Biso   1.000  N
  N61      1.0000 0.81360  0.71970  0.81490  Biso   1.000  N
  N62      1.0000 0.68640  0.28030  0.31490  Biso   1.000  N
  N63      1.0000 0.31360  0.78030  0.18510  Biso   1.000  N
  N64      1.0000 0.18640  0.21970  0.68510  Biso   1.000  N
  C1       1.0000 0.51300  0.31080  0.64550  Biso   1.000  C
  C2       1.0000 0.98700  0.68920  0.14550  Biso   1.000  C
  C3       1.0000 0.01300  0.18920  0.35450  Biso   1.000  C
  C4       1.0000 0.48700  0.81080  0.85450  Biso   1.000  C
  C5       1.0000 0.48700  0.68920  0.35450  Biso   1.000  C
  C6       1.0000 0.01300  0.31080  0.85450  Biso   1.000  C
  C7       1.0000 0.98700  0.81080  0.64550  Biso   1.000  C
  C8       1.0000 0.51300  0.18920  0.14550  Biso   1.000  C
  C9       1.0000 0.52070  0.28280  0.71330  Biso   1.000  C
  C10      1.0000 0.97930  0.71720  0.21330  Biso   1.000  C
  C11      1.0000 0.02070  0.21720  0.28670  Biso   1.000  C
  C12      1.0000 0.47930  0.78280  0.78670  Biso   1.000  C
  C13      1.0000 0.47930  0.71720  0.28670  Biso   1.000  C
  C14      1.0000 0.02070  0.28280  0.78670  Biso   1.000  C
  C15      1.0000 0.97930  0.78280  0.71330  Biso   1.000  C
  C16      1.0000 0.52070  0.21720  0.21330  Biso   1.000  C
  C17      1.0000 0.49130  0.21550  0.72650  Biso   1.000  C
  C18      1.0000 0.00870  0.78450  0.22650  Biso   1.000  C
  C19      1.0000 0.99130  0.28450  0.27350  Biso   1.000  C
  C20      1.0000 0.50870  0.71550  0.77350  Biso   1.000  C
  C21      1.0000 0.50870  0.78450  0.27350  Biso   1.000  C
  C22      1.0000 0.99130  0.21550  0.77350  Biso   1.000  C
  C23      1.0000 0.00870  0.71550  0.72650  Biso   1.000  C
  C24      1.0000 0.49130  0.28450  0.22650  Biso   1.000  C
  C25      1.0000 0.44460  0.15390  0.95460  Biso   1.000  C
  C26      1.0000 0.05540  0.84610  0.45460  Biso   1.000  C
  C27      1.0000 0.94460  0.34610  0.04540  Biso   1.000  C
  C28      1.0000 0.55540  0.65390  0.54540  Biso   1.000  C
  C29      1.0000 0.55540  0.84610  0.04540  Biso   1.000  C
  C30      1.0000 0.94460  0.15390  0.54540  Biso   1.000  C
  C31      1.0000 0.05540  0.65390  0.95460  Biso   1.000  C
  C32      1.0000 0.44460  0.34610  0.45460  Biso   1.000  C
  H17      1.0000 0.48540  0.13570  0.92900  Biso   1.000  H
  H18      1.0000 0.01460  0.86430  0.42900  Biso   1.000  H
  H19      1.0000 0.98540  0.36430  0.07100  Biso   1.000  H
  H20      1.0000 0.51460  0.63570  0.57100  Biso   1.000  H
  H21      1.0000 0.51460  0.86430  0.07100  Biso   1.000  H
  H22      1.0000 0.98540  0.13570  0.57100  Biso   1.000  H
  H23      1.0000 0.01460  0.63570  0.92900  Biso   1.000  H
  H24      1.0000 0.48540  0.36430  0.42900  Biso   1.000  H
  C33      1.0000 0.40240  0.11600  0.00020  Biso   1.000  C
  C34      1.0000 0.09760  0.88400  0.50020  Biso   1.000  C
  C35      1.0000 0.90240  0.38400  0.99980  Biso   1.000  C
  C36      1.0000 0.59760  0.61600  0.49980  Biso   1.000  C
  C37      1.0000 0.59760  0.88400  0.99980  Biso   1.000  C
  C38      1.0000 0.90240  0.11600  0.49980  Biso   1.000  C
  C39      1.0000 0.09760  0.61600  0.00020  Biso   1.000  C
  C40      1.0000 0.40240  0.38400  0.50020  Biso   1.000  C
  H25      1.0000 0.41450  0.07270  0.00620  Biso   1.000  H
  H26      1.0000 0.08550  0.92730  0.50620  Biso   1.000  H
  H27      1.0000 0.91450  0.42730  0.99380  Biso   1.000  H
  H28      1.0000 0.58550  0.57270  0.49380  Biso   1.000  H
  H29      1.0000 0.58550  0.92730  0.99380  Biso   1.000  H
  H30      1.0000 0.91450  0.07270  0.49380  Biso   1.000  H
  H31      1.0000 0.08550  0.57270  0.00620  Biso   1.000  H
  H32      1.0000 0.41450  0.42730  0.50620  Biso   1.000  H
  C41      1.0000 0.34170  0.14180  0.03770  Biso   1.000  C
  C42      1.0000 0.15830  0.85820  0.53770  Biso   1.000  C
  C43      1.0000 0.84170  0.35820  0.96230  Biso   1.000  C
  C44      1.0000 0.65830  0.64180  0.46230  Biso   1.000  C
  C45      1.0000 0.65830  0.85820  0.96230  Biso   1.000  C
  C46      1.0000 0.84170  0.14180  0.46230  Biso   1.000  C
  C47      1.0000 0.15830  0.64180  0.03770  Biso   1.000  C
  C48      1.0000 0.34170  0.35820  0.53770  Biso   1.000  C
  C49      1.0000 0.32850  0.20610  0.02830  Biso   1.000  C
  C50      1.0000 0.17150  0.79390  0.52830  Biso   1.000  C
  C51      1.0000 0.82850  0.29390  0.97170  Biso   1.000  C
  C52      1.0000 0.67150  0.70610  0.47170  Biso   1.000  C
  C53      1.0000 0.67150  0.79390  0.97170  Biso   1.000  C
  C54      1.0000 0.82850  0.20610  0.47170  Biso   1.000  C
  C55      1.0000 0.17150  0.70610  0.02830  Biso   1.000  C
  C56      1.0000 0.32850  0.29390  0.52830  Biso   1.000  C
  H33      1.0000 0.28830  0.22560  0.05340  Biso   1.000  H
  H34      1.0000 0.21170  0.77440  0.55340  Biso   1.000  H
  H35      1.0000 0.78830  0.27440  0.94660  Biso   1.000  H
  H36      1.0000 0.71170  0.72560  0.44660  Biso   1.000  H
  H37      1.0000 0.71170  0.77440  0.94660  Biso   1.000  H
  H38      1.0000 0.78830  0.22560  0.44660  Biso   1.000  H
  H39      1.0000 0.21170  0.72560  0.05340  Biso   1.000  H
  H40      1.0000 0.28830  0.27440  0.55340  Biso   1.000  H
  C57      1.0000 0.37360  0.24130  0.98270  Biso   1.000  C
  C58      1.0000 0.12640  0.75870  0.48270  Biso   1.000  C
  C59      1.0000 0.87360  0.25870  0.01730  Biso   1.000  C
  C60      1.0000 0.62640  0.74130  0.51730  Biso   1.000  C
  C61      1.0000 0.62640  0.75870  0.01730  Biso   1.000  C
  C62      1.0000 0.87360  0.24130  0.51730  Biso   1.000  C
  C63      1.0000 0.12640  0.74130  0.98270  Biso   1.000  C
  C64      1.0000 0.37360  0.25870  0.48270  Biso   1.000  C
  H41      1.0000 0.36430  0.28520  0.97760  Biso   1.000  H
  H42      1.0000 0.13570  0.71480  0.47760  Biso   1.000  H
  H43      1.0000 0.86430  0.21480  0.02240  Biso   1.000  H
  H44      1.0000 0.63570  0.78520  0.52240  Biso   1.000  H
  H45      1.0000 0.63570  0.71480  0.02240  Biso   1.000  H
  H46      1.0000 0.86430  0.28520  0.52240  Biso   1.000  H
  H47      1.0000 0.13570  0.78520  0.97760  Biso   1.000  H
  H48      1.0000 0.36430  0.21480  0.47760  Biso   1.000  H
  C65      1.0000 0.25480  0.13140  0.14490  Biso   1.000  C
  C66      1.0000 0.24520  0.86860  0.64490  Biso   1.000  C
  C67      1.0000 0.75480  0.36860  0.85510  Biso   1.000  C
  C68      1.0000 0.74520  0.63140  0.35510  Biso   1.000  C
  C69      1.0000 0.74520  0.86860  0.85510  Biso   1.000  C
  C70      1.0000 0.75480  0.13140  0.35510  Biso   1.000  C
  C71      1.0000 0.24520  0.63140  0.14490  Biso   1.000  C
  C72      1.0000 0.25480  0.36860  0.64490  Biso   1.000  C
  H49      1.0000 0.26310  0.17450  0.15680  Biso   1.000  H
  H50      1.0000 0.23690  0.82550  0.65680  Biso   1.000  H
  H51      1.0000 0.76310  0.32550  0.84320  Biso   1.000  H
  H52      1.0000 0.73690  0.67450  0.34320  Biso   1.000  H
  H53      1.0000 0.73690  0.82550  0.84320  Biso   1.000  H
  H54      1.0000 0.76310  0.17450  0.34320  Biso   1.000  H
  H55      1.0000 0.23690  0.67450  0.15680  Biso   1.000  H
  H56      1.0000 0.26310  0.32550  0.65680  Biso   1.000  H
  C73      1.0000 0.20510  0.09600  0.18630  Biso   1.000  C
  C74      1.0000 0.29490  0.90400  0.68630  Biso   1.000  C
  C75      1.0000 0.70510  0.40400  0.81370  Biso   1.000  C
  C76      1.0000 0.79490  0.59600  0.31370  Biso   1.000  C
  C77      1.0000 0.79490  0.90400  0.81370  Biso   1.000  C
  C78      1.0000 0.70510  0.09600  0.31370  Biso   1.000  C
  C79      1.0000 0.29490  0.59600  0.18630  Biso   1.000  C
  C80      1.0000 0.20510  0.40400  0.68630  Biso   1.000  C
  H57      1.0000 0.17880  0.11580  0.22560  Biso   1.000  H
  H58      1.0000 0.32120  0.88420  0.72560  Biso   1.000  H
  H59      1.0000 0.67880  0.38420  0.77440  Biso   1.000  H
  H60      1.0000 0.82120  0.61580  0.27440  Biso   1.000  H
  H61      1.0000 0.82120  0.88420  0.77440  Biso   1.000  H
  H62      1.0000 0.67880  0.11580  0.27440  Biso   1.000  H
  H63      1.0000 0.32120  0.61580  0.22560  Biso   1.000  H
  H64      1.0000 0.17880  0.38420  0.72560  Biso   1.000  H
  C81      1.0000 0.23090  0.00690  0.11810  Biso   1.000  C
  C82      1.0000 0.26910  0.99310  0.61810  Biso   1.000  C
  C83      1.0000 0.73090  0.49310  0.88190  Biso   1.000  C
  C84      1.0000 0.76910  0.50690  0.38190  Biso   1.000  C
  C85      1.0000 0.76910  0.99310  0.88190  Biso   1.000  C
  C86      1.0000 0.73090  0.00690  0.38190  Biso   1.000  C
  C87      1.0000 0.26910  0.50690  0.11810  Biso   1.000  C
  C88      1.0000 0.23090  0.49310  0.61810  Biso   1.000  C
  H65      1.0000 0.22380  0.96310  0.10950  Biso   1.000  H
  H66      1.0000 0.27620  0.03690  0.60950  Biso   1.000  H
  H67      1.0000 0.72380  0.53690  0.89050  Biso   1.000  H
  H68      1.0000 0.77620  0.46310  0.39050  Biso   1.000  H
  H69      1.0000 0.77620  0.03690  0.89050  Biso   1.000  H
  H70      1.0000 0.72380  0.96310  0.39050  Biso   1.000  H
  H71      1.0000 0.27620  0.46310  0.10950  Biso   1.000  H
  H72      1.0000 0.22380  0.53690  0.60950  Biso   1.000  H
  C89      1.0000 0.28030  0.03920  0.07310  Biso   1.000  C
  C90      1.0000 0.21970  0.96080  0.57310  Biso   1.000  C
  C91      1.0000 0.78030  0.46080  0.92690  Biso   1.000  C
  C92      1.0000 0.71970  0.53920  0.42690  Biso   1.000  C
  C93      1.0000 0.71970  0.96080  0.92690  Biso   1.000  C
  C94      1.0000 0.78030  0.03920  0.42690  Biso   1.000  C
  C95      1.0000 0.21970  0.53920  0.07310  Biso   1.000  C
  C96      1.0000 0.28030  0.46080  0.57310  Biso   1.000  C
  H73      1.0000 0.30570  0.01800  0.03420  Biso   1.000  H
  H74      1.0000 0.19430  0.98200  0.53420  Biso   1.000  H
  H75      1.0000 0.80570  0.48200  0.96580  Biso   1.000  H
  H76      1.0000 0.69430  0.51800  0.46580  Biso   1.000  H
  H77      1.0000 0.69430  0.98200  0.96580  Biso   1.000  H
  H78      1.0000 0.80570  0.01800  0.46580  Biso   1.000  H
  H79      1.0000 0.19430  0.51800  0.03420  Biso   1.000  H
  H80      1.0000 0.30570  0.48200  0.53420  Biso   1.000  H
  C97      1.0000 0.29250  0.10378  0.08580  Biso   1.000  C
  C98      1.0000 0.20750  0.89622  0.58580  Biso   1.000  C
  C99      1.0000 0.79250  0.39622  0.91420  Biso   1.000  C
  C100     1.0000 0.70750  0.60378  0.41420  Biso   1.000  C
  C101     1.0000 0.70750  0.89622  0.91420  Biso   1.000  C
  C102     1.0000 0.79250  0.10378  0.41420  Biso   1.000  C
  C103     1.0000 0.20750  0.60378  0.08580  Biso   1.000  C
  C104     1.0000 0.29250  0.39622  0.58580  Biso   1.000  C
  C105     1.0000 0.97330  0.02620  0.23140  Biso   1.000  C
  C106     1.0000 0.52670  0.97380  0.73140  Biso   1.000  C
  C107     1.0000 0.47330  0.47380  0.76860  Biso   1.000  C
  C108     1.0000 0.02670  0.52620  0.26860  Biso   1.000  C
  C109     1.0000 0.02670  0.97380  0.76860  Biso   1.000  C
  C110     1.0000 0.47330  0.02620  0.26860  Biso   1.000  C
  C111     1.0000 0.52670  0.52620  0.23140  Biso   1.000  C
  C112     1.0000 0.97330  0.47380  0.73140  Biso   1.000  C
  C113     1.0000 0.96800  0.96300  0.26970  Biso   1.000  C
  C114     1.0000 0.53200  0.03700  0.76970  Biso   1.000  C
  C115     1.0000 0.46800  0.53700  0.73030  Biso   1.000  C
  C116     1.0000 0.03200  0.46300  0.23030  Biso   1.000  C
  C117     1.0000 0.03200  0.03700  0.73030  Biso   1.000  C
  C118     1.0000 0.46800  0.96300  0.23030  Biso   1.000  C
  C119     1.0000 0.53200  0.46300  0.26970  Biso   1.000  C
  C120     1.0000 0.96800  0.53700  0.76970  Biso   1.000  C
  C121     1.0000 0.90760  0.95740  0.32240  Biso   1.000  C
  C122     1.0000 0.59240  0.04260  0.82240  Biso   1.000  C
  C123     1.0000 0.40760  0.54260  0.67760  Biso   1.000  C
  C124     1.0000 0.09240  0.45740  0.17760  Biso   1.000  C
  C125     1.0000 0.09240  0.04260  0.67760  Biso   1.000  C
  C126     1.0000 0.40760  0.95740  0.17760  Biso   1.000  C
  C127     1.0000 0.59240  0.45740  0.32240  Biso   1.000  C
  C128     1.0000 0.90760  0.54260  0.82240  Biso   1.000  C
  C129     1.0000 0.79710  0.38182  0.19350  Biso   1.000  C
  C130     1.0000 0.70290  0.61818  0.69350  Biso   1.000  C
  C131     1.0000 0.29710  0.11818  0.80650  Biso   1.000  C
  C132     1.0000 0.20290  0.88182  0.30650  Biso   1.000  C
  C133     1.0000 0.20290  0.61818  0.80650  Biso   1.000  C
  C134     1.0000 0.29710  0.38182  0.30650  Biso   1.000  C
  C135     1.0000 0.70290  0.88182  0.19350  Biso   1.000  C
  C136     1.0000 0.79710  0.11818  0.69350  Biso   1.000  C
  H81      1.0000 0.83170  0.35560  0.21850  Biso   1.000  H
  H82      1.0000 0.66830  0.64440  0.71850  Biso   1.000  H
  H83      1.0000 0.33170  0.14440  0.78150  Biso   1.000  H
  H84      1.0000 0.16830  0.85560  0.28150  Biso   1.000  H
  H85      1.0000 0.16830  0.64440  0.78150  Biso   1.000  H
  H86      1.0000 0.33170  0.35560  0.28150  Biso   1.000  H
  H87      1.0000 0.66830  0.85560  0.21850  Biso   1.000  H
  H88      1.0000 0.83170  0.14440  0.71850  Biso   1.000  H
  C137     1.0000 0.74860  0.35450  0.14380  Biso   1.000  C
  C138     1.0000 0.75140  0.64550  0.64380  Biso   1.000  C
  C139     1.0000 0.24860  0.14550  0.85620  Biso   1.000  C
  C140     1.0000 0.25140  0.85450  0.35620  Biso   1.000  C
  C141     1.0000 0.25140  0.64550  0.85620  Biso   1.000  C
  C142     1.0000 0.24860  0.35450  0.35620  Biso   1.000  C
  C143     1.0000 0.75140  0.85450  0.14380  Biso   1.000  C
  C144     1.0000 0.74860  0.14550  0.64380  Biso   1.000  C
  H89      1.0000 0.75060  0.31040  0.13510  Biso   1.000  H
  H90      1.0000 0.74940  0.68960  0.63510  Biso   1.000  H
  H91      1.0000 0.25060  0.18960  0.86490  Biso   1.000  H
  H92      1.0000 0.24940  0.81040  0.36490  Biso   1.000  H
  H93      1.0000 0.24940  0.68960  0.86490  Biso   1.000  H
  H94      1.0000 0.25060  0.31040  0.36490  Biso   1.000  H
  H95      1.0000 0.74940  0.81040  0.13510  Biso   1.000  H
  H96      1.0000 0.75060  0.18960  0.63510  Biso   1.000  H
  C145     1.0000 0.69710  0.39087  0.10640  Biso   1.000  C
  C146     1.0000 0.80290  0.60913  0.60640  Biso   1.000  C
  C147     1.0000 0.19710  0.10913  0.89360  Biso   1.000  C
  C148     1.0000 0.30290  0.89087  0.39360  Biso   1.000  C
  C149     1.0000 0.30290  0.60913  0.89360  Biso   1.000  C
  C150     1.0000 0.19710  0.39087  0.39360  Biso   1.000  C
  C151     1.0000 0.80290  0.89087  0.10640  Biso   1.000  C
  C152     1.0000 0.69710  0.10913  0.60640  Biso   1.000  C
  C153     1.0000 0.69630  0.45520  0.12290  Biso   1.000  C
  C154     1.0000 0.80370  0.54480  0.62290  Biso   1.000  C
  C155     1.0000 0.19630  0.04480  0.87710  Biso   1.000  C
  C156     1.0000 0.30370  0.95520  0.37710  Biso   1.000  C
  C157     1.0000 0.30370  0.54480  0.87710  Biso   1.000  C
  C158     1.0000 0.19630  0.45520  0.37710  Biso   1.000  C
  C159     1.0000 0.80370  0.95520  0.12290  Biso   1.000  C
  C160     1.0000 0.69630  0.04480  0.62290  Biso   1.000  C
  H97      1.0000 0.66140  0.48220  0.09960  Biso   1.000  H
  H98      1.0000 0.83860  0.51780  0.59960  Biso   1.000  H
  H99      1.0000 0.16140  0.01780  0.90040  Biso   1.000  H
  H100     1.0000 0.33860  0.98220  0.40040  Biso   1.000  H
  H101     1.0000 0.33860  0.51780  0.90040  Biso   1.000  H
  H102     1.0000 0.16140  0.48220  0.40040  Biso   1.000  H
  H103     1.0000 0.83860  0.98220  0.09960  Biso   1.000  H
  H104     1.0000 0.66140  0.01780  0.59960  Biso   1.000  H
  C161     1.0000 0.74660  0.47930  0.17320  Biso   1.000  C
  C162     1.0000 0.75340  0.52070  0.67320  Biso   1.000  C
  C163     1.0000 0.24660  0.02070  0.82680  Biso   1.000  C
  C164     1.0000 0.25340  0.97930  0.32680  Biso   1.000  C
  C165     1.0000 0.25340  0.52070  0.82680  Biso   1.000  C
  C166     1.0000 0.24660  0.47930  0.32680  Biso   1.000  C
  C167     1.0000 0.75340  0.97930  0.17320  Biso   1.000  C
  C168     1.0000 0.74660  0.02070  0.67320  Biso   1.000  C
  H105     1.0000 0.74510  0.52320  0.18360  Biso   1.000  H
  H106     1.0000 0.75490  0.47680  0.68360  Biso   1.000  H
  H107     1.0000 0.24510  0.97680  0.81640  Biso   1.000  H
  H108     1.0000 0.25490  0.02320  0.31640  Biso   1.000  H
  H109     1.0000 0.25490  0.47680  0.81640  Biso   1.000  H
  H110     1.0000 0.24510  0.52320  0.31640  Biso   1.000  H
  H111     1.0000 0.75490  0.02320  0.18360  Biso   1.000  H
  H112     1.0000 0.74510  0.97680  0.68360  Biso   1.000  H
  C169     1.0000 0.64480  0.36366  0.05150  Biso   1.000  C
  C170     1.0000 0.85520  0.63634  0.55150  Biso   1.000  C
  C171     1.0000 0.14480  0.13634  0.94850  Biso   1.000  C
  C172     1.0000 0.35520  0.86366  0.44850  Biso   1.000  C
  C173     1.0000 0.35520  0.63634  0.94850  Biso   1.000  C
  C174     1.0000 0.14480  0.36366  0.44850  Biso   1.000  C
  C175     1.0000 0.85520  0.86366  0.05150  Biso   1.000  C
  C176     1.0000 0.64480  0.13634  0.55150  Biso   1.000  C
  C177     1.0000 0.63500  0.29860  0.04590  Biso   1.000  C
  C178     1.0000 0.86500  0.70140  0.54590  Biso   1.000  C
  C179     1.0000 0.13500  0.20140  0.95410  Biso   1.000  C
  C180     1.0000 0.36500  0.79860  0.45410  Biso   1.000  C
  C181     1.0000 0.36500  0.70140  0.95410  Biso   1.000  C
  C182     1.0000 0.13500  0.29860  0.45410  Biso   1.000  C
  C183     1.0000 0.86500  0.79860  0.04590  Biso   1.000  C
  C184     1.0000 0.63500  0.20140  0.54590  Biso   1.000  C
  H113     1.0000 0.66200  0.27100  0.07750  Biso   1.000  H
  H114     1.0000 0.83800  0.72900  0.57750  Biso   1.000  H
  H115     1.0000 0.16200  0.22900  0.92250  Biso   1.000  H
  H116     1.0000 0.33800  0.77100  0.42250  Biso   1.000  H
  H117     1.0000 0.33800  0.72900  0.92250  Biso   1.000  H
  H118     1.0000 0.16200  0.27100  0.42250  Biso   1.000  H
  H119     1.0000 0.83800  0.77100  0.07750  Biso   1.000  H
  H120     1.0000 0.66200  0.22900  0.57750  Biso   1.000  H
  C185     1.0000 0.58630  0.27450  0.99430  Biso   1.000  C
  C186     1.0000 0.91370  0.72550  0.49430  Biso   1.000  C
  C187     1.0000 0.08630  0.22550  0.00570  Biso   1.000  C
  C188     1.0000 0.41370  0.77450  0.50570  Biso   1.000  C
  C189     1.0000 0.41370  0.72550  0.00570  Biso   1.000  C
  C190     1.0000 0.08630  0.27450  0.50570  Biso   1.000  C
  C191     1.0000 0.91370  0.77450  0.99430  Biso   1.000  C
  C192     1.0000 0.58630  0.22550  0.49430  Biso   1.000  C
  H121     1.0000 0.57990  0.23010  0.99210  Biso   1.000  H
  H122     1.0000 0.92010  0.76990  0.49210  Biso   1.000  H
  H123     1.0000 0.07990  0.26990  0.00790  Biso   1.000  H
  H124     1.0000 0.42010  0.73010  0.50790  Biso   1.000  H
  H125     1.0000 0.42010  0.76990  0.00790  Biso   1.000  H
  H126     1.0000 0.07990  0.23010  0.50790  Biso   1.000  H
  H127     1.0000 0.92010  0.73010  0.99210  Biso   1.000  H
  H128     1.0000 0.57990  0.26990  0.49210  Biso   1.000  H
  C193     1.0000 0.55660  0.37330  0.95210  Biso   1.000  C
  C194     1.0000 0.94340  0.62670  0.45210  Biso   1.000  C
  C195     1.0000 0.05660  0.12670  0.04790  Biso   1.000  C
  C196     1.0000 0.44340  0.87330  0.54790  Biso   1.000  C
  C197     1.0000 0.44340  0.62670  0.04790  Biso   1.000  C
  C198     1.0000 0.05660  0.37330  0.54790  Biso   1.000  C
  C199     1.0000 0.94340  0.87330  0.95210  Biso   1.000  C
  C200     1.0000 0.55660  0.12670  0.45210  Biso   1.000  C
  H129     1.0000 0.52940  0.39960  0.91910  Biso   1.000  H
  H130     1.0000 0.97060  0.60040  0.41910  Biso   1.000  H
  H131     1.0000 0.02940  0.10040  0.08090  Biso   1.000  H
  H132     1.0000 0.47060  0.89960  0.58090  Biso   1.000  H
  H133     1.0000 0.47060  0.60040  0.08090  Biso   1.000  H
  H134     1.0000 0.02940  0.39960  0.58090  Biso   1.000  H
  H135     1.0000 0.97060  0.89960  0.91910  Biso   1.000  H
  H136     1.0000 0.52940  0.10040  0.41910  Biso   1.000  H
  C201     1.0000 0.60380  0.40120  0.00290  Biso   1.000  C
  C202     1.0000 0.89620  0.59880  0.50290  Biso   1.000  C
  C203     1.0000 0.10380  0.09880  0.99710  Biso   1.000  C
  C204     1.0000 0.39620  0.90120  0.49710  Biso   1.000  C
  C205     1.0000 0.39620  0.59880  0.99710  Biso   1.000  C
  C206     1.0000 0.10380  0.40120  0.49710  Biso   1.000  C
  C207     1.0000 0.89620  0.90120  0.00290  Biso   1.000  C
  C208     1.0000 0.60380  0.09880  0.50290  Biso   1.000  C
  H137     1.0000 0.60840  0.44580  0.00470  Biso   1.000  H
  H138     1.0000 0.89160  0.55420  0.50470  Biso   1.000  H
  H139     1.0000 0.10840  0.05420  0.99530  Biso   1.000  H
  H140     1.0000 0.39160  0.94580  0.49530  Biso   1.000  H
  H141     1.0000 0.39160  0.55420  0.99530  Biso   1.000  H
  H142     1.0000 0.10840  0.44580  0.49530  Biso   1.000  H
  H143     1.0000 0.89160  0.94580  0.00470  Biso   1.000  H
  H144     1.0000 0.60840  0.05420  0.50470  Biso   1.000  H
  O121     1.0000 0.44230  0.19530  0.67170  Biso   1.000  O
  O122     1.0000 0.05770  0.80470  0.17170  Biso   1.000  O
  O123     1.0000 0.94230  0.30470  0.32830  Biso   1.000  O
  O124     1.0000 0.55770  0.69530  0.82830  Biso   1.000  O
  O125     1.0000 0.55770  0.80470  0.32830  Biso   1.000  O
  O126     1.0000 0.94230  0.19530  0.82830  Biso   1.000  O
  O127     1.0000 0.05770  0.69530  0.67170  Biso   1.000  O
  O128     1.0000 0.44230  0.30470  0.17170  Biso   1.000  O
  C209     1.0000 0.45920  0.32090  0.67540  Biso   1.000  C
  C210     1.0000 0.04080  0.67910  0.17540  Biso   1.000  C
  C211     1.0000 0.95920  0.17910  0.32460  Biso   1.000  C
  C212     1.0000 0.54080  0.82090  0.82460  Biso   1.000  C
  C213     1.0000 0.54080  0.67910  0.32460  Biso   1.000  C
  C214     1.0000 0.95920  0.32090  0.82460  Biso   1.000  C
  C215     1.0000 0.04080  0.82090  0.67540  Biso   1.000  C
  C216     1.0000 0.45920  0.17910  0.17540  Biso   1.000  C
  C217     1.0000 0.47540  0.29610  0.71810  Biso   1.000  C
  C218     1.0000 0.02460  0.70390  0.21810  Biso   1.000  C
  C219     1.0000 0.97540  0.20390  0.28190  Biso   1.000  C
  C220     1.0000 0.52460  0.79610  0.78190  Biso   1.000  C
  C221     1.0000 0.52460  0.70390  0.28190  Biso   1.000  C
  C222     1.0000 0.97540  0.29610  0.78190  Biso   1.000  C
  C223     1.0000 0.02460  0.79610  0.71810  Biso   1.000  C
  C224     1.0000 0.47540  0.20390  0.21810  Biso   1.000  C
  C225     1.0000 0.45560  0.22690  0.72840  Biso   1.000  C
  C226     1.0000 0.04440  0.77310  0.22840  Biso   1.000  C
  C227     1.0000 0.95560  0.27310  0.27160  Biso   1.000  C
  C228     1.0000 0.54440  0.72690  0.77160  Biso   1.000  C
  C229     1.0000 0.54440  0.77310  0.27160  Biso   1.000  C
  C230     1.0000 0.95560  0.22690  0.77160  Biso   1.000  C
  C231     1.0000 0.04440  0.72690  0.72840  Biso   1.000  C
  C232     1.0000 0.45560  0.27310  0.22840  Biso   1.000  C
  C233     1.0000 0.91670  0.92170  0.26860  Biso   1.000  C
  C234     1.0000 0.58330  0.07830  0.76860  Biso   1.000  C
  C235     1.0000 0.41670  0.57830  0.73140  Biso   1.000  C
  C236     1.0000 0.08330  0.42170  0.23140  Biso   1.000  C
  C237     1.0000 0.08330  0.07830  0.73140  Biso   1.000  C
  C238     1.0000 0.41670  0.92170  0.23140  Biso   1.000  C
  C239     1.0000 0.58330  0.42170  0.26860  Biso   1.000  C
  C240     1.0000 0.91670  0.57830  0.76860  Biso   1.000  C
  H145     1.0000 0.09210  0.92760  0.10340  Biso   1.000  H
  H146     1.0000 0.40790  0.07240  0.60340  Biso   1.000  H
  H147     1.0000 0.59210  0.57240  0.89660  Biso   1.000  H
  H148     1.0000 0.90790  0.42760  0.39660  Biso   1.000  H
  H149     1.0000 0.90790  0.07240  0.89660  Biso   1.000  H
  H150     1.0000 0.59210  0.92760  0.39660  Biso   1.000  H
  H151     1.0000 0.40790  0.42760  0.10340  Biso   1.000  H
  H152     1.0000 0.09210  0.57240  0.60340  Biso   1.000  H
  H153     1.0000 0.35040  0.32970  0.85820  Biso   1.000  H
  H154     1.0000 0.14960  0.67030  0.35820  Biso   1.000  H
  H155     1.0000 0.85040  0.17030  0.14180  Biso   1.000  H
  H156     1.0000 0.64960  0.82970  0.64180  Biso   1.000  H
  H157     1.0000 0.64960  0.67030  0.14180  Biso   1.000  H
  H158     1.0000 0.85040  0.32970  0.64180  Biso   1.000  H
  H159     1.0000 0.14960  0.82970  0.85820  Biso   1.000  H
  H160     1.0000 0.35040  0.17030  0.35820  Biso   1.000  H
  H161     1.0000 0.08240  0.87920  0.15420  Biso   1.000  H
  H162     1.0000 0.41760  0.12080  0.65420  Biso   1.000  H
  H163     1.0000 0.58240  0.62080  0.84580  Biso   1.000  H
  H164     1.0000 0.91760  0.37920  0.34580  Biso   1.000  H
  H165     1.0000 0.91760  0.12080  0.84580  Biso   1.000  H
  H166     1.0000 0.58240  0.87920  0.34580  Biso   1.000  H
  H167     1.0000 0.41760  0.37920  0.15420  Biso   1.000  H
  H168     1.0000 0.08240  0.62080  0.65420  Biso   1.000  H
  H169     1.0000 0.40080  0.37260  0.84000  Biso   1.000  H
  H170     1.0000 0.09920  0.62740  0.34000  Biso   1.000  H
  H171     1.0000 0.90080  0.12740  0.16000  Biso   1.000  H
  H172     1.0000 0.59920  0.87260  0.66000  Biso   1.000  H
  H173     1.0000 0.59920  0.62740  0.16000  Biso   1.000  H
  H174     1.0000 0.90080  0.37260  0.66000  Biso   1.000  H
  H175     1.0000 0.09920  0.87260  0.84000  Biso   1.000  H
  H176     1.0000 0.40080  0.12740  0.34000  Biso   1.000  H
  H177     1.0000 0.21350  0.16200  0.36840  Biso   1.000  H
  H178     1.0000 0.28650  0.83800  0.86840  Biso   1.000  H
  H179     1.0000 0.71350  0.33800  0.63160  Biso   1.000  H
  H180     1.0000 0.78650  0.66200  0.13160  Biso   1.000  H
  H181     1.0000 0.78650  0.83800  0.63160  Biso   1.000  H
  H182     1.0000 0.71350  0.16200  0.13160  Biso   1.000  H
  H183     1.0000 0.28650  0.66200  0.36840  Biso   1.000  H
  H184     1.0000 0.21350  0.33800  0.86840  Biso   1.000  H
  H185     1.0000 0.22620  0.20150  0.31540  Biso   1.000  H
  H186     1.0000 0.27380  0.79850  0.81540  Biso   1.000  H
  H187     1.0000 0.72620  0.29850  0.68460  Biso   1.000  H
  H188     1.0000 0.77380  0.70150  0.18460  Biso   1.000  H
  H189     1.0000 0.77380  0.79850  0.68460  Biso   1.000  H
  H190     1.0000 0.72620  0.20150  0.18460  Biso   1.000  H
  H191     1.0000 0.27380  0.70150  0.31540  Biso   1.000  H
  H192     1.0000 0.22620  0.29850  0.81540  Biso   1.000  H
  H193     1.0000 0.38670  0.40590  0.95730  Biso   1.000  H
  H194     1.0000 0.11330  0.59410  0.45730  Biso   1.000  H
  H195     1.0000 0.88670  0.09410  0.04270  Biso   1.000  H
  H196     1.0000 0.61330  0.90590  0.54270  Biso   1.000  H
  H197     1.0000 0.61330  0.59410  0.04270  Biso   1.000  H
  H198     1.0000 0.88670  0.40590  0.54270  Biso   1.000  H
  H199     1.0000 0.11330  0.90590  0.95730  Biso   1.000  H
  H200     1.0000 0.38670  0.09410  0.45730  Biso   1.000  H
  H201     1.0000 0.57510  0.29940  0.78650  Biso   1.000  H
  H202     1.0000 0.92490  0.70060  0.28650  Biso   1.000  H
  H203     1.0000 0.07510  0.20060  0.21350  Biso   1.000  H
  H204     1.0000 0.42490  0.79940  0.71350  Biso   1.000  H
  H205     1.0000 0.42490  0.70060  0.21350  Biso   1.000  H
  H206     1.0000 0.07510  0.29940  0.71350  Biso   1.000  H
  H207     1.0000 0.92490  0.79940  0.78650  Biso   1.000  H
  H208     1.0000 0.57510  0.20060  0.28650  Biso   1.000  H
  H209     1.0000 0.53060  0.34950  0.78330  Biso   1.000  H
  H210     1.0000 0.96940  0.65050  0.28330  Biso   1.000  H
  H211     1.0000 0.03060  0.15050  0.21670  Biso   1.000  H
  H212     1.0000 0.46940  0.84950  0.71670  Biso   1.000  H
  H213     1.0000 0.46940  0.65050  0.21670  Biso   1.000  H
  H214     1.0000 0.03060  0.34950  0.71670  Biso   1.000  H
  H215     1.0000 0.96940  0.84950  0.78330  Biso   1.000  H
  H216     1.0000 0.53060  0.15050  0.28330  Biso   1.000  H
  H217     1.0000 0.33020  0.41470  0.00530  Biso   1.000  H
  H218     1.0000 0.16980  0.58530  0.50530  Biso   1.000  H
  H219     1.0000 0.83020  0.08530  0.99470  Biso   1.000  H
  H220     1.0000 0.66980  0.91470  0.49470  Biso   1.000  H
  H221     1.0000 0.66980  0.58530  0.99470  Biso   1.000  H
  H222     1.0000 0.83020  0.41470  0.49470  Biso   1.000  H
  H223     1.0000 0.16980  0.91470  0.00530  Biso   1.000  H
  H224     1.0000 0.33020  0.08530  0.50530  Biso   1.000  H
  H225     1.0000 0.20970  0.38410  0.02680  Biso   1.000  H
  H226     1.0000 0.29030  0.61590  0.52680  Biso   1.000  H
  H227     1.0000 0.70970  0.11590  0.97320  Biso   1.000  H
  H228     1.0000 0.79030  0.88410  0.47320  Biso   1.000  H
  H229     1.0000 0.79030  0.61590  0.97320  Biso   1.000  H
  H230     1.0000 0.70970  0.38410  0.47320  Biso   1.000  H
  H231     1.0000 0.29030  0.88410  0.02680  Biso   1.000  H
  H232     1.0000 0.20970  0.11590  0.52680  Biso   1.000  H
  H233     1.0000 0.24160  0.34990  0.07960  Biso   1.000  H
  H234     1.0000 0.25840  0.65010  0.57960  Biso   1.000  H
  H235     1.0000 0.74160  0.15010  0.92040  Biso   1.000  H
  H236     1.0000 0.75840  0.84990  0.42040  Biso   1.000  H
  H237     1.0000 0.75840  0.65010  0.92040  Biso   1.000  H
  H238     1.0000 0.74160  0.34990  0.42040  Biso   1.000  H
  H239     1.0000 0.25840  0.84990  0.07960  Biso   1.000  H
  H240     1.0000 0.24160  0.15010  0.57960  Biso   1.000  H
