data_image0
_cell_length_a       14.0845
_cell_length_b       14.0845
_cell_length_c       44.2036
_cell_angle_alpha    90
_cell_angle_beta     90
_cell_angle_gamma    90

_symmetry_space_group_name_H-M    "P 1"
_symmetry_int_tables_number       1

loop_
  _symmetry_equiv_pos_as_xyz
  'x, y, z'

loop_
  _atom_site_label
  _atom_site_occupancy
  _atom_site_fract_x
  _atom_site_fract_y
  _atom_site_fract_z
  _atom_site_thermal_displace_type
  _atom_site_B_iso_or_equiv
  _atom_site_type_symbol
  Cu1      1.0000 0.50000  0.25000  0.17191  Biso   1.000  Cu
  Cu2      1.0000 0.00000  0.75000  0.67191  Biso   1.000  Cu
  Cu3      1.0000 0.50000  0.75000  0.42191  Biso   1.000  Cu
  Cu4      1.0000 0.00000  0.25000  0.92191  Biso   1.000  Cu
  Cu5      1.0000 0.50000  0.75000  0.82809  Biso   1.000  Cu
  Cu6      1.0000 0.00000  0.25000  0.32809  Biso   1.000  Cu
  Cu7      1.0000 0.00000  0.75000  0.07809  Biso   1.000  Cu
  Cu8      1.0000 0.50000  0.25000  0.57809  Biso   1.000  Cu
  O1       1.0000 0.36811  0.35713  0.16996  Biso   1.000  O
  O2       1.0000 0.13189  0.64287  0.66996  Biso   1.000  O
  O3       1.0000 0.39287  0.61811  0.41996  Biso   1.000  O
  O4       1.0000 0.10713  0.38189  0.91996  Biso   1.000  O
  O5       1.0000 0.86811  0.85713  0.66996  Biso   1.000  O
  O6       1.0000 0.63189  0.14287  0.16996  Biso   1.000  O
  O7       1.0000 0.89287  0.11811  0.91996  Biso   1.000  O
  O8       1.0000 0.60713  0.88189  0.41996  Biso   1.000  O
  O9       1.0000 0.63189  0.64287  0.83004  Biso   1.000  O
  O10      1.0000 0.86811  0.35713  0.33004  Biso   1.000  O
  O11      1.0000 0.10713  0.88189  0.08004  Biso   1.000  O
  O12      1.0000 0.39287  0.11811  0.58004  Biso   1.000  O
  O13      1.0000 0.13189  0.14287  0.33004  Biso   1.000  O
  O14      1.0000 0.36811  0.85713  0.83004  Biso   1.000  O
  O15      1.0000 0.60713  0.38189  0.58004  Biso   1.000  O
  O16      1.0000 0.89287  0.61811  0.08004  Biso   1.000  O
  H1       1.0000 0.36100  0.38080  0.15160  Biso   1.000  H
  H2       1.0000 0.13900  0.61920  0.65160  Biso   1.000  H
  H3       1.0000 0.36920  0.61100  0.40160  Biso   1.000  H
  H4       1.0000 0.13080  0.38900  0.90160  Biso   1.000  H
  H5       1.0000 0.86100  0.88080  0.65160  Biso   1.000  H
  H6       1.0000 0.63900  0.11920  0.15160  Biso   1.000  H
  H7       1.0000 0.86920  0.11100  0.90160  Biso   1.000  H
  H8       1.0000 0.63080  0.88900  0.40160  Biso   1.000  H
  H9       1.0000 0.63900  0.61920  0.84840  Biso   1.000  H
  H10      1.0000 0.86100  0.38080  0.34840  Biso   1.000  H
  H11      1.0000 0.13080  0.88900  0.09840  Biso   1.000  H
  H12      1.0000 0.36920  0.11100  0.59840  Biso   1.000  H
  H13      1.0000 0.13900  0.11920  0.34840  Biso   1.000  H
  H14      1.0000 0.36100  0.88080  0.84840  Biso   1.000  H
  H15      1.0000 0.63080  0.38900  0.59840  Biso   1.000  H
  H16      1.0000 0.86920  0.61100  0.09840  Biso   1.000  H
  H17      1.0000 0.37640  0.40490  0.18260  Biso   1.000  H
  H18      1.0000 0.12360  0.59510  0.68260  Biso   1.000  H
  H19      1.0000 0.34510  0.62640  0.43260  Biso   1.000  H
  H20      1.0000 0.15490  0.37360  0.93260  Biso   1.000  H
  H21      1.0000 0.87640  0.90490  0.68260  Biso   1.000  H
  H22      1.0000 0.62360  0.09510  0.18260  Biso   1.000  H
  H23      1.0000 0.84510  0.12640  0.93260  Biso   1.000  H
  H24      1.0000 0.65490  0.87360  0.43260  Biso   1.000  H
  H25      1.0000 0.62360  0.59510  0.81740  Biso   1.000  H
  H26      1.0000 0.87640  0.40490  0.31740  Biso   1.000  H
  H27      1.0000 0.15490  0.87360  0.06740  Biso   1.000  H
  H28      1.0000 0.34510  0.12640  0.56740  Biso   1.000  H
  H29      1.0000 0.12360  0.09510  0.31740  Biso   1.000  H
  H30      1.0000 0.37640  0.90490  0.81740  Biso   1.000  H
  H31      1.0000 0.65490  0.37360  0.56740  Biso   1.000  H
  H32      1.0000 0.84510  0.62640  0.06740  Biso   1.000  H
  N1       1.0000 0.61789  0.40450  0.24249  Biso   1.000  N
  N2       1.0000 0.88211  0.59550  0.74249  Biso   1.000  N
  N3       1.0000 0.34550  0.86789  0.49249  Biso   1.000  N
  N4       1.0000 0.15450  0.13211  0.99249  Biso   1.000  N
  N5       1.0000 0.11789  0.90450  0.74249  Biso   1.000  N
  N6       1.0000 0.38211  0.09550  0.24249  Biso   1.000  N
  N7       1.0000 0.84550  0.36789  0.99249  Biso   1.000  N
  N8       1.0000 0.65450  0.63211  0.49249  Biso   1.000  N
  N9       1.0000 0.38211  0.59550  0.75751  Biso   1.000  N
  N10      1.0000 0.11789  0.40450  0.25751  Biso   1.000  N
  N11      1.0000 0.15450  0.63211  0.00751  Biso   1.000  N
  N12      1.0000 0.34550  0.36789  0.50751  Biso   1.000  N
  N13      1.0000 0.88211  0.09550  0.25751  Biso   1.000  N
  N14      1.0000 0.61789  0.90450  0.75751  Biso   1.000  N
  N15      1.0000 0.65450  0.13211  0.50751  Biso   1.000  N
  N16      1.0000 0.84550  0.86789  0.00751  Biso   1.000  N
  N17      1.0000 0.69881  0.37295  0.22902  Biso   1.000  N
  N18      1.0000 0.80119  0.62705  0.72902  Biso   1.000  N
  N19      1.0000 0.37705  0.94881  0.47902  Biso   1.000  N
  N20      1.0000 0.12295  0.05119  0.97902  Biso   1.000  N
  N21      1.0000 0.19881  0.87295  0.72902  Biso   1.000  N
  N22      1.0000 0.30119  0.12705  0.22902  Biso   1.000  N
  N23      1.0000 0.87705  0.44881  0.97902  Biso   1.000  N
  N24      1.0000 0.62295  0.55119  0.47902  Biso   1.000  N
  N25      1.0000 0.30119  0.62705  0.77098  Biso   1.000  N
  N26      1.0000 0.19881  0.37295  0.27098  Biso   1.000  N
  N27      1.0000 0.12295  0.55119  0.02098  Biso   1.000  N
  N28      1.0000 0.37705  0.44881  0.52098  Biso   1.000  N
  N29      1.0000 0.80119  0.12705  0.27098  Biso   1.000  N
  N30      1.0000 0.69881  0.87295  0.77098  Biso   1.000  N
  N31      1.0000 0.62295  0.05119  0.52098  Biso   1.000  N
  N32      1.0000 0.87705  0.94881  0.02098  Biso   1.000  N
  N33      1.0000 0.57102  0.32172  0.20410  Biso   1.000  N
  N34      1.0000 0.92898  0.67828  0.70410  Biso   1.000  N
  N35      1.0000 0.42828  0.82102  0.45410  Biso   1.000  N
  N36      1.0000 0.07172  0.17898  0.95410  Biso   1.000  N
  N37      1.0000 0.07102  0.82172  0.70410  Biso   1.000  N
  N38      1.0000 0.42898  0.17828  0.20410  Biso   1.000  N
  N39      1.0000 0.92828  0.32102  0.95410  Biso   1.000  N
  N40      1.0000 0.57172  0.67898  0.45410  Biso   1.000  N
  N41      1.0000 0.42898  0.67828  0.79590  Biso   1.000  N
  N42      1.0000 0.07102  0.32172  0.29590  Biso   1.000  N
  N43      1.0000 0.07172  0.67898  0.04590  Biso   1.000  N
  N44      1.0000 0.42828  0.32102  0.54590  Biso   1.000  N
  N45      1.0000 0.92898  0.17828  0.29590  Biso   1.000  N
  N46      1.0000 0.57102  0.82172  0.79590  Biso   1.000  N
  N47      1.0000 0.57172  0.17898  0.54590  Biso   1.000  N
  N48      1.0000 0.92828  0.82102  0.04590  Biso   1.000  N
  N49      1.0000 0.63184  0.61952  0.34950  Biso   1.000  N
  N50      1.0000 0.86816  0.38048  0.84950  Biso   1.000  N
  N51      1.0000 0.13048  0.88184  0.59950  Biso   1.000  N
  N52      1.0000 0.36952  0.11816  0.09950  Biso   1.000  N
  N53      1.0000 0.13184  0.11952  0.84950  Biso   1.000  N
  N54      1.0000 0.36816  0.88048  0.34950  Biso   1.000  N
  N55      1.0000 0.63048  0.38184  0.09950  Biso   1.000  N
  N56      1.0000 0.86952  0.61816  0.59950  Biso   1.000  N
  N57      1.0000 0.36816  0.38048  0.65050  Biso   1.000  N
  N58      1.0000 0.13184  0.61952  0.15050  Biso   1.000  N
  N59      1.0000 0.36952  0.61816  0.90050  Biso   1.000  N
  N60      1.0000 0.13048  0.38184  0.40050  Biso   1.000  N
  N61      1.0000 0.86816  0.88048  0.15050  Biso   1.000  N
  N62      1.0000 0.63184  0.11952  0.65050  Biso   1.000  N
  N63      1.0000 0.86952  0.11816  0.40050  Biso   1.000  N
  N64      1.0000 0.63048  0.88184  0.90050  Biso   1.000  N
  N65      1.0000 0.71271  0.64707  0.36414  Biso   1.000  N
  N66      1.0000 0.78729  0.35293  0.86414  Biso   1.000  N
  N67      1.0000 0.10293  0.96271  0.61414  Biso   1.000  N
  N68      1.0000 0.39707  0.03729  0.11414  Biso   1.000  N
  N69      1.0000 0.21271  0.14707  0.86414  Biso   1.000  N
  N70      1.0000 0.28729  0.85293  0.36414  Biso   1.000  N
  N71      1.0000 0.60293  0.46271  0.11414  Biso   1.000  N
  N72      1.0000 0.89707  0.53729  0.61414  Biso   1.000  N
  N73      1.0000 0.28729  0.35293  0.63586  Biso   1.000  N
  N74      1.0000 0.21271  0.64707  0.13586  Biso   1.000  N
  N75      1.0000 0.39707  0.53729  0.88586  Biso   1.000  N
  N76      1.0000 0.10293  0.46271  0.38586  Biso   1.000  N
  N77      1.0000 0.78729  0.85293  0.13586  Biso   1.000  N
  N78      1.0000 0.71271  0.14707  0.63586  Biso   1.000  N
  N79      1.0000 0.89707  0.03729  0.38586  Biso   1.000  N
  N80      1.0000 0.60293  0.96271  0.88586  Biso   1.000  N
  N81      1.0000 0.58262  0.69003  0.39003  Biso   1.000  N
  N82      1.0000 0.91738  0.30997  0.89003  Biso   1.000  N
  N83      1.0000 0.05997  0.83262  0.64003  Biso   1.000  N
  N84      1.0000 0.44003  0.16738  0.14003  Biso   1.000  N
  N85      1.0000 0.08262  0.19003  0.89003  Biso   1.000  N
  N86      1.0000 0.41738  0.80997  0.39003  Biso   1.000  N
  N87      1.0000 0.55997  0.33262  0.14003  Biso   1.000  N
  N88      1.0000 0.94003  0.66738  0.64003  Biso   1.000  N
  N89      1.0000 0.41738  0.30997  0.60997  Biso   1.000  N
  N90      1.0000 0.08262  0.69003  0.10997  Biso   1.000  N
  N91      1.0000 0.44003  0.66738  0.85997  Biso   1.000  N
  N92      1.0000 0.05997  0.33262  0.35997  Biso   1.000  N
  N93      1.0000 0.91738  0.80997  0.10997  Biso   1.000  N
  N94      1.0000 0.58262  0.19003  0.60997  Biso   1.000  N
  N95      1.0000 0.94003  0.16738  0.35997  Biso   1.000  N
  N96      1.0000 0.55997  0.83262  0.85997  Biso   1.000  N
  C1       1.0000 0.66684  0.32415  0.20596  Biso   1.000  C
  C2       1.0000 0.83316  0.67585  0.70596  Biso   1.000  C
  C3       1.0000 0.42585  0.91684  0.45596  Biso   1.000  C
  C4       1.0000 0.07415  0.08316  0.95596  Biso   1.000  C
  C5       1.0000 0.16684  0.82415  0.70596  Biso   1.000  C
  C6       1.0000 0.33316  0.17585  0.20596  Biso   1.000  C
  C7       1.0000 0.92585  0.41684  0.95596  Biso   1.000  C
  C8       1.0000 0.57415  0.58316  0.45596  Biso   1.000  C
  C9       1.0000 0.33316  0.67585  0.79404  Biso   1.000  C
  C10      1.0000 0.16684  0.32415  0.29404  Biso   1.000  C
  C11      1.0000 0.07415  0.58316  0.04404  Biso   1.000  C
  C12      1.0000 0.42585  0.41684  0.54404  Biso   1.000  C
  C13      1.0000 0.83316  0.17585  0.29404  Biso   1.000  C
  C14      1.0000 0.66684  0.82415  0.79404  Biso   1.000  C
  C15      1.0000 0.57415  0.08316  0.54404  Biso   1.000  C
  C16      1.0000 0.92585  0.91684  0.04404  Biso   1.000  C
  H33      1.0000 0.70640  0.29390  0.19210  Biso   1.000  H
  H34      1.0000 0.79360  0.70610  0.69210  Biso   1.000  H
  H35      1.0000 0.45610  0.95640  0.44210  Biso   1.000  H
  H36      1.0000 0.04390  0.04360  0.94210  Biso   1.000  H
  H37      1.0000 0.20640  0.79390  0.69210  Biso   1.000  H
  H38      1.0000 0.29360  0.20610  0.19210  Biso   1.000  H
  H39      1.0000 0.95610  0.45640  0.94210  Biso   1.000  H
  H40      1.0000 0.54390  0.54360  0.44210  Biso   1.000  H
  H41      1.0000 0.29360  0.70610  0.80790  Biso   1.000  H
  H42      1.0000 0.20640  0.29390  0.30790  Biso   1.000  H
  H43      1.0000 0.04390  0.54360  0.05790  Biso   1.000  H
  H44      1.0000 0.45610  0.45640  0.55790  Biso   1.000  H
  H45      1.0000 0.79360  0.20610  0.30790  Biso   1.000  H
  H46      1.0000 0.70640  0.79390  0.80790  Biso   1.000  H
  H47      1.0000 0.54390  0.04360  0.55790  Biso   1.000  H
  H48      1.0000 0.95610  0.95640  0.05790  Biso   1.000  H
  C17      1.0000 0.54273  0.37301  0.22747  Biso   1.000  C
  C18      1.0000 0.95727  0.62699  0.72747  Biso   1.000  C
  C19      1.0000 0.37699  0.79273  0.47747  Biso   1.000  C
  C20      1.0000 0.12301  0.20727  0.97747  Biso   1.000  C
  C21      1.0000 0.04273  0.87301  0.72747  Biso   1.000  C
  C22      1.0000 0.45727  0.12699  0.22747  Biso   1.000  C
  C23      1.0000 0.87699  0.29273  0.97747  Biso   1.000  C
  C24      1.0000 0.62301  0.70727  0.47747  Biso   1.000  C
  C25      1.0000 0.45727  0.62699  0.77253  Biso   1.000  C
  C26      1.0000 0.04273  0.37301  0.27253  Biso   1.000  C
  C27      1.0000 0.12301  0.70727  0.02253  Biso   1.000  C
  C28      1.0000 0.37699  0.29273  0.52253  Biso   1.000  C
  C29      1.0000 0.95727  0.12699  0.27253  Biso   1.000  C
  C30      1.0000 0.54273  0.87301  0.77253  Biso   1.000  C
  C31      1.0000 0.62301  0.20727  0.52253  Biso   1.000  C
  C32      1.0000 0.87699  0.79273  0.02253  Biso   1.000  C
  H49      1.0000 0.47980  0.38510  0.23260  Biso   1.000  H
  H50      1.0000 0.02020  0.61490  0.73260  Biso   1.000  H
  H51      1.0000 0.36490  0.72980  0.48260  Biso   1.000  H
  H52      1.0000 0.13510  0.27020  0.98260  Biso   1.000  H
  H53      1.0000 0.97980  0.88510  0.73260  Biso   1.000  H
  H54      1.0000 0.52020  0.11490  0.23260  Biso   1.000  H
  H55      1.0000 0.86490  0.22980  0.98260  Biso   1.000  H
  H56      1.0000 0.63510  0.77020  0.48260  Biso   1.000  H
  H57      1.0000 0.52020  0.61490  0.76740  Biso   1.000  H
  H58      1.0000 0.97980  0.38510  0.26740  Biso   1.000  H
  H59      1.0000 0.13510  0.77020  0.01740  Biso   1.000  H
  H60      1.0000 0.36490  0.22980  0.51740  Biso   1.000  H
  H61      1.0000 0.02020  0.11490  0.26740  Biso   1.000  H
  H62      1.0000 0.47980  0.88510  0.76740  Biso   1.000  H
  H63      1.0000 0.63510  0.27020  0.51740  Biso   1.000  H
  H64      1.0000 0.86490  0.72980  0.01740  Biso   1.000  H
  C33      1.0000 0.62215  0.46067  0.26965  Biso   1.000  C
  C34      1.0000 0.87785  0.53933  0.76965  Biso   1.000  C
  C35      1.0000 0.28933  0.87215  0.51965  Biso   1.000  C
  C36      1.0000 0.21067  0.12785  0.01965  Biso   1.000  C
  C37      1.0000 0.12215  0.96067  0.76965  Biso   1.000  C
  C38      1.0000 0.37785  0.03933  0.26965  Biso   1.000  C
  C39      1.0000 0.78933  0.37215  0.01965  Biso   1.000  C
  C40      1.0000 0.71067  0.62785  0.51965  Biso   1.000  C
  C41      1.0000 0.37785  0.53933  0.73035  Biso   1.000  C
  C42      1.0000 0.12215  0.46067  0.23035  Biso   1.000  C
  C43      1.0000 0.21067  0.62785  0.98035  Biso   1.000  C
  C44      1.0000 0.28933  0.37215  0.48035  Biso   1.000  C
  C45      1.0000 0.87785  0.03933  0.23035  Biso   1.000  C
  C46      1.0000 0.62215  0.96067  0.73035  Biso   1.000  C
  C47      1.0000 0.71067  0.12785  0.48035  Biso   1.000  C
  C48      1.0000 0.78933  0.87215  0.98035  Biso   1.000  C
  C49      1.0000 0.62450  0.55967  0.26704  Biso   1.000  C
  C50      1.0000 0.87550  0.44033  0.76704  Biso   1.000  C
  C51      1.0000 0.19033  0.87450  0.51704  Biso   1.000  C
  C52      1.0000 0.30967  0.12550  0.01704  Biso   1.000  C
  C53      1.0000 0.12450  0.05967  0.76704  Biso   1.000  C
  C54      1.0000 0.37550  0.94033  0.26704  Biso   1.000  C
  C55      1.0000 0.69033  0.37450  0.01704  Biso   1.000  C
  C56      1.0000 0.80967  0.62550  0.51704  Biso   1.000  C
  C57      1.0000 0.37550  0.44033  0.73296  Biso   1.000  C
  C58      1.0000 0.12450  0.55967  0.23296  Biso   1.000  C
  C59      1.0000 0.30967  0.62550  0.98296  Biso   1.000  C
  C60      1.0000 0.19033  0.37450  0.48296  Biso   1.000  C
  C61      1.0000 0.87550  0.94033  0.23296  Biso   1.000  C
  C62      1.0000 0.62450  0.05967  0.73296  Biso   1.000  C
  C63      1.0000 0.80967  0.12550  0.48296  Biso   1.000  C
  C64      1.0000 0.69033  0.87450  0.98296  Biso   1.000  C
  C65      1.0000 0.62099  0.60843  0.23881  Biso   1.000  C
  C66      1.0000 0.87901  0.39157  0.73881  Biso   1.000  C
  C67      1.0000 0.14157  0.87099  0.48881  Biso   1.000  C
  C68      1.0000 0.35843  0.12901  0.98881  Biso   1.000  C
  C69      1.0000 0.12099  0.10843  0.73881  Biso   1.000  C
  C70      1.0000 0.37901  0.89157  0.23881  Biso   1.000  C
  C71      1.0000 0.64157  0.37099  0.98881  Biso   1.000  C
  C72      1.0000 0.85843  0.62901  0.48881  Biso   1.000  C
  C73      1.0000 0.37901  0.39157  0.76119  Biso   1.000  C
  C74      1.0000 0.12099  0.60843  0.26119  Biso   1.000  C
  C75      1.0000 0.35843  0.62901  0.01119  Biso   1.000  C
  C76      1.0000 0.14157  0.37099  0.51119  Biso   1.000  C
  C77      1.0000 0.87901  0.89157  0.26119  Biso   1.000  C
  C78      1.0000 0.62099  0.10843  0.76119  Biso   1.000  C
  C79      1.0000 0.85843  0.12901  0.51119  Biso   1.000  C
  C80      1.0000 0.64157  0.87099  0.01119  Biso   1.000  C
  H65      1.0000 0.61780  0.57400  0.22090  Biso   1.000  H
  H66      1.0000 0.88220  0.42600  0.72090  Biso   1.000  H
  H67      1.0000 0.17600  0.86780  0.47090  Biso   1.000  H
  H68      1.0000 0.32400  0.13220  0.97090  Biso   1.000  H
  H69      1.0000 0.11780  0.07400  0.72090  Biso   1.000  H
  H70      1.0000 0.38220  0.92600  0.22090  Biso   1.000  H
  H71      1.0000 0.67600  0.36780  0.97090  Biso   1.000  H
  H72      1.0000 0.82400  0.63220  0.47090  Biso   1.000  H
  H73      1.0000 0.38220  0.42600  0.77910  Biso   1.000  H
  H74      1.0000 0.11780  0.57400  0.27910  Biso   1.000  H
  H75      1.0000 0.32400  0.63220  0.02910  Biso   1.000  H
  H76      1.0000 0.17600  0.36780  0.52910  Biso   1.000  H
  H77      1.0000 0.88220  0.92600  0.27910  Biso   1.000  H
  H78      1.0000 0.61780  0.07400  0.77910  Biso   1.000  H
  H79      1.0000 0.82400  0.13220  0.52910  Biso   1.000  H
  H80      1.0000 0.67600  0.86780  0.02910  Biso   1.000  H
  C81      1.0000 0.62230  0.70483  0.23790  Biso   1.000  C
  C82      1.0000 0.87770  0.29517  0.73790  Biso   1.000  C
  C83      1.0000 0.04517  0.87230  0.48790  Biso   1.000  C
  C84      1.0000 0.45483  0.12770  0.98790  Biso   1.000  C
  C85      1.0000 0.12230  0.20483  0.73790  Biso   1.000  C
  C86      1.0000 0.37770  0.79517  0.23790  Biso   1.000  C
  C87      1.0000 0.54517  0.37230  0.98790  Biso   1.000  C
  C88      1.0000 0.95483  0.62770  0.48790  Biso   1.000  C
  C89      1.0000 0.37770  0.29517  0.76210  Biso   1.000  C
  C90      1.0000 0.12230  0.70483  0.26210  Biso   1.000  C
  C91      1.0000 0.45483  0.62770  0.01210  Biso   1.000  C
  C92      1.0000 0.04517  0.37230  0.51210  Biso   1.000  C
  C93      1.0000 0.87770  0.79517  0.26210  Biso   1.000  C
  C94      1.0000 0.62230  0.20483  0.76210  Biso   1.000  C
  C95      1.0000 0.95483  0.12770  0.51210  Biso   1.000  C
  C96      1.0000 0.54517  0.87230  0.01210  Biso   1.000  C
  H81      1.0000 0.61980  0.73580  0.21930  Biso   1.000  H
  H82      1.0000 0.88020  0.26420  0.71930  Biso   1.000  H
  H83      1.0000 0.01420  0.86980  0.46930  Biso   1.000  H
  H84      1.0000 0.48580  0.13020  0.96930  Biso   1.000  H
  H85      1.0000 0.11980  0.23580  0.71930  Biso   1.000  H
  H86      1.0000 0.38020  0.76420  0.21930  Biso   1.000  H
  H87      1.0000 0.51420  0.36980  0.96930  Biso   1.000  H
  H88      1.0000 0.98580  0.63020  0.46930  Biso   1.000  H
  H89      1.0000 0.38020  0.26420  0.78070  Biso   1.000  H
  H90      1.0000 0.11980  0.73580  0.28070  Biso   1.000  H
  H91      1.0000 0.48580  0.63020  0.03070  Biso   1.000  H
  H92      1.0000 0.01420  0.36980  0.53070  Biso   1.000  H
  H93      1.0000 0.88020  0.76420  0.28070  Biso   1.000  H
  H94      1.0000 0.61980  0.23580  0.78070  Biso   1.000  H
  H95      1.0000 0.98580  0.13020  0.53070  Biso   1.000  H
  H96      1.0000 0.51420  0.86980  0.03070  Biso   1.000  H
  C97      1.0000 0.62730  0.75895  0.26501  Biso   1.000  C
  C98      1.0000 0.87270  0.24105  0.76501  Biso   1.000  C
  C99      1.0000 0.99105  0.87730  0.51501  Biso   1.000  C
  C100     1.0000 0.50895  0.12270  0.01501  Biso   1.000  C
  C101     1.0000 0.12730  0.25895  0.76501  Biso   1.000  C
  C102     1.0000 0.37270  0.74105  0.26501  Biso   1.000  C
  C103     1.0000 0.49105  0.37730  0.01501  Biso   1.000  C
  C104     1.0000 0.00895  0.62270  0.51501  Biso   1.000  C
  C105     1.0000 0.37270  0.24105  0.73499  Biso   1.000  C
  C106     1.0000 0.12730  0.75895  0.23499  Biso   1.000  C
  C107     1.0000 0.50895  0.62270  0.98499  Biso   1.000  C
  C108     1.0000 0.99105  0.37730  0.48499  Biso   1.000  C
  C109     1.0000 0.87270  0.74105  0.23499  Biso   1.000  C
  C110     1.0000 0.62730  0.25895  0.73499  Biso   1.000  C
  C111     1.0000 0.00895  0.12270  0.48499  Biso   1.000  C
  C112     1.0000 0.49105  0.87730  0.98499  Biso   1.000  C
  H97      1.0000 0.62800  0.82490  0.26400  Biso   1.000  H
  H98      1.0000 0.87200  0.17510  0.76400  Biso   1.000  H
  H99      1.0000 0.92510  0.87800  0.51400  Biso   1.000  H
  H100     1.0000 0.57490  0.12200  0.01400  Biso   1.000  H
  H101     1.0000 0.12800  0.32490  0.76400  Biso   1.000  H
  H102     1.0000 0.37200  0.67510  0.26400  Biso   1.000  H
  H103     1.0000 0.42510  0.37800  0.01400  Biso   1.000  H
  H104     1.0000 0.07490  0.62200  0.51400  Biso   1.000  H
  H105     1.0000 0.37200  0.17510  0.73600  Biso   1.000  H
  H106     1.0000 0.12800  0.82490  0.23600  Biso   1.000  H
  H107     1.0000 0.57490  0.62200  0.98600  Biso   1.000  H
  H108     1.0000 0.92510  0.37800  0.48600  Biso   1.000  H
  H109     1.0000 0.87200  0.67510  0.23600  Biso   1.000  H
  H110     1.0000 0.62800  0.32490  0.73600  Biso   1.000  H
  H111     1.0000 0.07490  0.12200  0.48600  Biso   1.000  H
  H112     1.0000 0.42510  0.87800  0.98600  Biso   1.000  H
  C113     1.0000 0.63100  0.71560  0.29235  Biso   1.000  C
  C114     1.0000 0.86900  0.28440  0.79235  Biso   1.000  C
  C115     1.0000 0.03440  0.88100  0.54235  Biso   1.000  C
  C116     1.0000 0.46560  0.11900  0.04235  Biso   1.000  C
  C117     1.0000 0.13100  0.21560  0.79235  Biso   1.000  C
  C118     1.0000 0.36900  0.78440  0.29235  Biso   1.000  C
  C119     1.0000 0.53440  0.38100  0.04235  Biso   1.000  C
  C120     1.0000 0.96560  0.61900  0.54235  Biso   1.000  C
  C121     1.0000 0.36900  0.28440  0.70765  Biso   1.000  C
  C122     1.0000 0.13100  0.71560  0.20765  Biso   1.000  C
  C123     1.0000 0.46560  0.61900  0.95765  Biso   1.000  C
  C124     1.0000 0.03440  0.38100  0.45765  Biso   1.000  C
  C125     1.0000 0.86900  0.78440  0.20765  Biso   1.000  C
  C126     1.0000 0.63100  0.21560  0.70765  Biso   1.000  C
  C127     1.0000 0.96560  0.11900  0.45765  Biso   1.000  C
  C128     1.0000 0.53440  0.88100  0.95765  Biso   1.000  C
  H113     1.0000 0.63450  0.75190  0.30990  Biso   1.000  H
  H114     1.0000 0.86550  0.24810  0.80990  Biso   1.000  H
  H115     1.0000 0.99810  0.88450  0.55990  Biso   1.000  H
  H116     1.0000 0.50190  0.11550  0.05990  Biso   1.000  H
  H117     1.0000 0.13450  0.25190  0.80990  Biso   1.000  H
  H118     1.0000 0.36550  0.74810  0.30990  Biso   1.000  H
  H119     1.0000 0.49810  0.38450  0.05990  Biso   1.000  H
  H120     1.0000 0.00190  0.61550  0.55990  Biso   1.000  H
  H121     1.0000 0.36550  0.24810  0.69010  Biso   1.000  H
  H122     1.0000 0.13450  0.75190  0.19010  Biso   1.000  H
  H123     1.0000 0.50190  0.61550  0.94010  Biso   1.000  H
  H124     1.0000 0.99810  0.38450  0.44010  Biso   1.000  H
  H125     1.0000 0.86550  0.74810  0.19010  Biso   1.000  H
  H126     1.0000 0.63450  0.25190  0.69010  Biso   1.000  H
  H127     1.0000 0.00190  0.11550  0.44010  Biso   1.000  H
  H128     1.0000 0.49810  0.88450  0.94010  Biso   1.000  H
  C129     1.0000 0.62961  0.61448  0.29437  Biso   1.000  C
  C130     1.0000 0.87039  0.38552  0.79437  Biso   1.000  C
  C131     1.0000 0.13552  0.87961  0.54437  Biso   1.000  C
  C132     1.0000 0.36448  0.12039  0.04437  Biso   1.000  C
  C133     1.0000 0.12961  0.11448  0.79437  Biso   1.000  C
  C134     1.0000 0.37039  0.88552  0.29437  Biso   1.000  C
  C135     1.0000 0.63552  0.37961  0.04437  Biso   1.000  C
  C136     1.0000 0.86448  0.62039  0.54437  Biso   1.000  C
  C137     1.0000 0.37039  0.38552  0.70563  Biso   1.000  C
  C138     1.0000 0.12961  0.61448  0.20563  Biso   1.000  C
  C139     1.0000 0.36448  0.62039  0.95563  Biso   1.000  C
  C140     1.0000 0.13552  0.37961  0.45563  Biso   1.000  C
  C141     1.0000 0.87039  0.88552  0.20563  Biso   1.000  C
  C142     1.0000 0.62961  0.11448  0.70563  Biso   1.000  C
  C143     1.0000 0.86448  0.12039  0.45563  Biso   1.000  C
  C144     1.0000 0.63552  0.87961  0.95563  Biso   1.000  C
  C145     1.0000 0.63318  0.56576  0.32178  Biso   1.000  C
  C146     1.0000 0.86682  0.43424  0.82178  Biso   1.000  C
  C147     1.0000 0.18424  0.88318  0.57178  Biso   1.000  C
  C148     1.0000 0.31576  0.11682  0.07178  Biso   1.000  C
  C149     1.0000 0.13318  0.06576  0.82178  Biso   1.000  C
  C150     1.0000 0.36682  0.93424  0.32178  Biso   1.000  C
  C151     1.0000 0.68424  0.38318  0.07178  Biso   1.000  C
  C152     1.0000 0.81576  0.61682  0.57178  Biso   1.000  C
  C153     1.0000 0.36682  0.43424  0.67822  Biso   1.000  C
  C154     1.0000 0.13318  0.56576  0.17822  Biso   1.000  C
  C155     1.0000 0.31576  0.61682  0.92822  Biso   1.000  C
  C156     1.0000 0.18424  0.38318  0.42822  Biso   1.000  C
  C157     1.0000 0.86682  0.93424  0.17822  Biso   1.000  C
  C158     1.0000 0.63318  0.06576  0.67822  Biso   1.000  C
  C159     1.0000 0.81576  0.11682  0.42822  Biso   1.000  C
  C160     1.0000 0.68424  0.88318  0.92822  Biso   1.000  C
  C161     1.0000 0.63318  0.46694  0.32431  Biso   1.000  C
  C162     1.0000 0.86682  0.53306  0.82431  Biso   1.000  C
  C163     1.0000 0.28306  0.88318  0.57431  Biso   1.000  C
  C164     1.0000 0.21694  0.11682  0.07431  Biso   1.000  C
  C165     1.0000 0.13318  0.96694  0.82431  Biso   1.000  C
  C166     1.0000 0.36682  0.03306  0.32431  Biso   1.000  C
  C167     1.0000 0.78306  0.38318  0.07431  Biso   1.000  C
  C168     1.0000 0.71694  0.61682  0.57431  Biso   1.000  C
  C169     1.0000 0.36682  0.53306  0.67569  Biso   1.000  C
  C170     1.0000 0.13318  0.46694  0.17569  Biso   1.000  C
  C171     1.0000 0.21694  0.61682  0.92569  Biso   1.000  C
  C172     1.0000 0.28306  0.38318  0.42569  Biso   1.000  C
  C173     1.0000 0.86682  0.03306  0.17569  Biso   1.000  C
  C174     1.0000 0.63318  0.96694  0.67569  Biso   1.000  C
  C175     1.0000 0.71694  0.11682  0.42569  Biso   1.000  C
  C176     1.0000 0.78306  0.88318  0.92569  Biso   1.000  C
  C177     1.0000 0.63944  0.41883  0.35256  Biso   1.000  C
  C178     1.0000 0.86056  0.58117  0.85256  Biso   1.000  C
  C179     1.0000 0.33117  0.88944  0.60256  Biso   1.000  C
  C180     1.0000 0.16883  0.11056  0.10256  Biso   1.000  C
  C181     1.0000 0.13944  0.91883  0.85256  Biso   1.000  C
  C182     1.0000 0.36056  0.08117  0.35256  Biso   1.000  C
  C183     1.0000 0.83117  0.38944  0.10256  Biso   1.000  C
  C184     1.0000 0.66883  0.61056  0.60256  Biso   1.000  C
  C185     1.0000 0.36056  0.58117  0.64744  Biso   1.000  C
  C186     1.0000 0.13944  0.41883  0.14744  Biso   1.000  C
  C187     1.0000 0.16883  0.61056  0.89744  Biso   1.000  C
  C188     1.0000 0.33117  0.38944  0.39744  Biso   1.000  C
  C189     1.0000 0.86056  0.08117  0.14744  Biso   1.000  C
  C190     1.0000 0.63944  0.91883  0.64744  Biso   1.000  C
  C191     1.0000 0.66883  0.11056  0.39744  Biso   1.000  C
  C192     1.0000 0.83117  0.88944  0.89744  Biso   1.000  C
  H129     1.0000 0.64620  0.45370  0.37030  Biso   1.000  H
  H130     1.0000 0.85380  0.54630  0.87030  Biso   1.000  H
  H131     1.0000 0.29630  0.89620  0.62030  Biso   1.000  H
  H132     1.0000 0.20370  0.10380  0.12030  Biso   1.000  H
  H133     1.0000 0.14620  0.95370  0.87030  Biso   1.000  H
  H134     1.0000 0.35380  0.04630  0.37030  Biso   1.000  H
  H135     1.0000 0.79630  0.39620  0.12030  Biso   1.000  H
  H136     1.0000 0.70370  0.60380  0.62030  Biso   1.000  H
  H137     1.0000 0.35380  0.54630  0.62970  Biso   1.000  H
  H138     1.0000 0.14620  0.45370  0.12970  Biso   1.000  H
  H139     1.0000 0.20370  0.60380  0.87970  Biso   1.000  H
  H140     1.0000 0.29630  0.39620  0.37970  Biso   1.000  H
  H141     1.0000 0.85380  0.04630  0.12970  Biso   1.000  H
  H142     1.0000 0.64620  0.95370  0.62970  Biso   1.000  H
  H143     1.0000 0.70370  0.10380  0.37970  Biso   1.000  H
  H144     1.0000 0.79630  0.89620  0.87970  Biso   1.000  H
  C193     1.0000 0.63560  0.32250  0.35385  Biso   1.000  C
  C194     1.0000 0.86440  0.67750  0.85385  Biso   1.000  C
  C195     1.0000 0.42750  0.88560  0.60385  Biso   1.000  C
  C196     1.0000 0.07250  0.11440  0.10385  Biso   1.000  C
  C197     1.0000 0.13560  0.82250  0.85385  Biso   1.000  C
  C198     1.0000 0.36440  0.17750  0.35385  Biso   1.000  C
  C199     1.0000 0.92750  0.38560  0.10385  Biso   1.000  C
  C200     1.0000 0.57250  0.61440  0.60385  Biso   1.000  C
  C201     1.0000 0.36440  0.67750  0.64615  Biso   1.000  C
  C202     1.0000 0.13560  0.32250  0.14615  Biso   1.000  C
  C203     1.0000 0.07250  0.61440  0.89615  Biso   1.000  C
  C204     1.0000 0.42750  0.38560  0.39615  Biso   1.000  C
  C205     1.0000 0.86440  0.17750  0.14615  Biso   1.000  C
  C206     1.0000 0.63560  0.82250  0.64615  Biso   1.000  C
  C207     1.0000 0.57250  0.11440  0.39615  Biso   1.000  C
  C208     1.0000 0.92750  0.88560  0.89615  Biso   1.000  C
  H145     1.0000 0.64040  0.29200  0.37240  Biso   1.000  H
  H146     1.0000 0.85960  0.70800  0.87240  Biso   1.000  H
  H147     1.0000 0.45800  0.89040  0.62240  Biso   1.000  H
  H148     1.0000 0.04200  0.10960  0.12240  Biso   1.000  H
  H149     1.0000 0.14040  0.79200  0.87240  Biso   1.000  H
  H150     1.0000 0.35960  0.20800  0.37240  Biso   1.000  H
  H151     1.0000 0.95800  0.39040  0.12240  Biso   1.000  H
  H152     1.0000 0.54200  0.60960  0.62240  Biso   1.000  H
  H153     1.0000 0.35960  0.70800  0.62760  Biso   1.000  H
  H154     1.0000 0.14040  0.29200  0.12760  Biso   1.000  H
  H155     1.0000 0.04200  0.60960  0.87760  Biso   1.000  H
  H156     1.0000 0.45800  0.39040  0.37760  Biso   1.000  H
  H157     1.0000 0.85960  0.20800  0.12760  Biso   1.000  H
  H158     1.0000 0.64040  0.79200  0.62760  Biso   1.000  H
  H159     1.0000 0.54200  0.10960  0.37760  Biso   1.000  H
  H160     1.0000 0.95800  0.89040  0.87760  Biso   1.000  H
  C209     1.0000 0.62430  0.26821  0.32715  Biso   1.000  C
  C210     1.0000 0.87570  0.73179  0.82715  Biso   1.000  C
  C211     1.0000 0.48179  0.87430  0.57715  Biso   1.000  C
  C212     1.0000 0.01821  0.12570  0.07715  Biso   1.000  C
  C213     1.0000 0.12430  0.76821  0.82715  Biso   1.000  C
  C214     1.0000 0.37570  0.23179  0.32715  Biso   1.000  C
  C215     1.0000 0.98179  0.37430  0.07715  Biso   1.000  C
  C216     1.0000 0.51821  0.62570  0.57715  Biso   1.000  C
  C217     1.0000 0.37570  0.73179  0.67285  Biso   1.000  C
  C218     1.0000 0.12430  0.26821  0.17285  Biso   1.000  C
  C219     1.0000 0.01821  0.62570  0.92285  Biso   1.000  C
  C220     1.0000 0.48179  0.37430  0.42285  Biso   1.000  C
  C221     1.0000 0.87570  0.23179  0.17285  Biso   1.000  C
  C222     1.0000 0.62430  0.76821  0.67285  Biso   1.000  C
  C223     1.0000 0.51821  0.12570  0.42285  Biso   1.000  C
  C224     1.0000 0.98179  0.87430  0.92285  Biso   1.000  C
  H161     1.0000 0.61940  0.20250  0.32850  Biso   1.000  H
  H162     1.0000 0.88060  0.79750  0.82850  Biso   1.000  H
  H163     1.0000 0.54750  0.86940  0.57850  Biso   1.000  H
  H164     1.0000 0.95250  0.13060  0.07850  Biso   1.000  H
  H165     1.0000 0.11940  0.70250  0.82850  Biso   1.000  H
  H166     1.0000 0.38060  0.29750  0.32850  Biso   1.000  H
  H167     1.0000 0.04750  0.36940  0.07850  Biso   1.000  H
  H168     1.0000 0.45250  0.63060  0.57850  Biso   1.000  H
  H169     1.0000 0.38060  0.79750  0.67150  Biso   1.000  H
  H170     1.0000 0.11940  0.20250  0.17150  Biso   1.000  H
  H171     1.0000 0.95250  0.63060  0.92150  Biso   1.000  H
  H172     1.0000 0.54750  0.36940  0.42150  Biso   1.000  H
  H173     1.0000 0.88060  0.29750  0.17150  Biso   1.000  H
  H174     1.0000 0.61940  0.70250  0.67150  Biso   1.000  H
  H175     1.0000 0.45250  0.13060  0.42150  Biso   1.000  H
  H176     1.0000 0.04750  0.86940  0.92150  Biso   1.000  H
  C225     1.0000 0.62053  0.31100  0.29966  Biso   1.000  C
  C226     1.0000 0.87947  0.68900  0.79966  Biso   1.000  C
  C227     1.0000 0.43900  0.87053  0.54966  Biso   1.000  C
  C228     1.0000 0.06100  0.12947  0.04966  Biso   1.000  C
  C229     1.0000 0.12053  0.81100  0.79966  Biso   1.000  C
  C230     1.0000 0.37947  0.18900  0.29966  Biso   1.000  C
  C231     1.0000 0.93900  0.37053  0.04966  Biso   1.000  C
  C232     1.0000 0.56100  0.62947  0.54966  Biso   1.000  C
  C233     1.0000 0.37947  0.68900  0.70034  Biso   1.000  C
  C234     1.0000 0.12053  0.31100  0.20034  Biso   1.000  C
  C235     1.0000 0.06100  0.62947  0.95034  Biso   1.000  C
  C236     1.0000 0.43900  0.37053  0.45034  Biso   1.000  C
  C237     1.0000 0.87947  0.18900  0.20034  Biso   1.000  C
  C238     1.0000 0.62053  0.81100  0.70034  Biso   1.000  C
  C239     1.0000 0.56100  0.12947  0.45034  Biso   1.000  C
  C240     1.0000 0.93900  0.87053  0.95034  Biso   1.000  C
  H177     1.0000 0.61450  0.27420  0.28230  Biso   1.000  H
  H178     1.0000 0.88550  0.72580  0.78230  Biso   1.000  H
  H179     1.0000 0.47580  0.86450  0.53230  Biso   1.000  H
  H180     1.0000 0.02420  0.13550  0.03230  Biso   1.000  H
  H181     1.0000 0.11450  0.77420  0.78230  Biso   1.000  H
  H182     1.0000 0.38550  0.22580  0.28230  Biso   1.000  H
  H183     1.0000 0.97580  0.36450  0.03230  Biso   1.000  H
  H184     1.0000 0.52420  0.63550  0.53230  Biso   1.000  H
  H185     1.0000 0.38550  0.72580  0.71770  Biso   1.000  H
  H186     1.0000 0.11450  0.27420  0.21770  Biso   1.000  H
  H187     1.0000 0.02420  0.63550  0.96770  Biso   1.000  H
  H188     1.0000 0.47580  0.36450  0.46770  Biso   1.000  H
  H189     1.0000 0.88550  0.22580  0.21770  Biso   1.000  H
  H190     1.0000 0.61450  0.77420  0.71770  Biso   1.000  H
  H191     1.0000 0.52420  0.13550  0.46770  Biso   1.000  H
  H192     1.0000 0.97580  0.86450  0.96770  Biso   1.000  H
  C241     1.0000 0.62579  0.41206  0.29717  Biso   1.000  C
  C242     1.0000 0.87421  0.58794  0.79717  Biso   1.000  C
  C243     1.0000 0.33794  0.87579  0.54717  Biso   1.000  C
  C244     1.0000 0.16206  0.12421  0.04717  Biso   1.000  C
  C245     1.0000 0.12579  0.91206  0.79717  Biso   1.000  C
  C246     1.0000 0.37421  0.08794  0.29717  Biso   1.000  C
  C247     1.0000 0.83794  0.37579  0.04717  Biso   1.000  C
  C248     1.0000 0.66206  0.62421  0.54717  Biso   1.000  C
  C249     1.0000 0.37421  0.58794  0.70283  Biso   1.000  C
  C250     1.0000 0.12579  0.41206  0.20283  Biso   1.000  C
  C251     1.0000 0.16206  0.62421  0.95283  Biso   1.000  C
  C252     1.0000 0.33794  0.37579  0.45283  Biso   1.000  C
  C253     1.0000 0.87421  0.08794  0.20283  Biso   1.000  C
  C254     1.0000 0.62579  0.91206  0.70283  Biso   1.000  C
  C255     1.0000 0.66206  0.12421  0.45283  Biso   1.000  C
  C256     1.0000 0.83794  0.87579  0.95283  Biso   1.000  C
  C257     1.0000 0.67945  0.68918  0.38835  Biso   1.000  C
  C258     1.0000 0.82055  0.31082  0.88835  Biso   1.000  C
  C259     1.0000 0.06082  0.92945  0.63835  Biso   1.000  C
  C260     1.0000 0.43918  0.07055  0.13835  Biso   1.000  C
  C261     1.0000 0.17945  0.18918  0.88835  Biso   1.000  C
  C262     1.0000 0.32055  0.81082  0.38835  Biso   1.000  C
  C263     1.0000 0.56082  0.42945  0.13835  Biso   1.000  C
  C264     1.0000 0.93918  0.57055  0.63835  Biso   1.000  C
  C265     1.0000 0.32055  0.31082  0.61165  Biso   1.000  C
  C266     1.0000 0.17945  0.68918  0.11165  Biso   1.000  C
  C267     1.0000 0.43918  0.57055  0.86165  Biso   1.000  C
  C268     1.0000 0.06082  0.42945  0.36165  Biso   1.000  C
  C269     1.0000 0.82055  0.81082  0.11165  Biso   1.000  C
  C270     1.0000 0.67945  0.18918  0.61165  Biso   1.000  C
  C271     1.0000 0.93918  0.07055  0.36165  Biso   1.000  C
  C272     1.0000 0.56082  0.92945  0.86165  Biso   1.000  C
  H193     1.0000 0.71830  0.71610  0.40310  Biso   1.000  H
  H194     1.0000 0.78170  0.28390  0.90310  Biso   1.000  H
  H195     1.0000 0.03390  0.96830  0.65310  Biso   1.000  H
  H196     1.0000 0.46610  0.03170  0.15310  Biso   1.000  H
  H197     1.0000 0.21830  0.21610  0.90310  Biso   1.000  H
  H198     1.0000 0.28170  0.78390  0.40310  Biso   1.000  H
  H199     1.0000 0.53390  0.46830  0.15310  Biso   1.000  H
  H200     1.0000 0.96610  0.53170  0.65310  Biso   1.000  H
  H201     1.0000 0.28170  0.28390  0.59690  Biso   1.000  H
  H202     1.0000 0.21830  0.71610  0.09690  Biso   1.000  H
  H203     1.0000 0.46610  0.53170  0.84690  Biso   1.000  H
  H204     1.0000 0.03390  0.46830  0.34690  Biso   1.000  H
  H205     1.0000 0.78170  0.78390  0.09690  Biso   1.000  H
  H206     1.0000 0.71830  0.21610  0.59690  Biso   1.000  H
  H207     1.0000 0.96610  0.03170  0.34690  Biso   1.000  H
  H208     1.0000 0.53390  0.96830  0.84690  Biso   1.000  H
  C273     1.0000 0.55556  0.64521  0.36512  Biso   1.000  C
  C274     1.0000 0.94444  0.35479  0.86512  Biso   1.000  C
  C275     1.0000 0.10479  0.80556  0.61512  Biso   1.000  C
  C276     1.0000 0.39521  0.19444  0.11512  Biso   1.000  C
  C277     1.0000 0.05556  0.14521  0.86512  Biso   1.000  C
  C278     1.0000 0.44444  0.85479  0.36512  Biso   1.000  C
  C279     1.0000 0.60479  0.30556  0.11512  Biso   1.000  C
  C280     1.0000 0.89521  0.69444  0.61512  Biso   1.000  C
  C281     1.0000 0.44444  0.35479  0.63488  Biso   1.000  C
  C282     1.0000 0.05556  0.64521  0.13488  Biso   1.000  C
  C283     1.0000 0.39521  0.69444  0.88488  Biso   1.000  C
  C284     1.0000 0.10479  0.30556  0.38488  Biso   1.000  C
  C285     1.0000 0.94444  0.85479  0.13488  Biso   1.000  C
  C286     1.0000 0.55556  0.14521  0.63488  Biso   1.000  C
  C287     1.0000 0.89521  0.19444  0.38488  Biso   1.000  C
  C288     1.0000 0.60479  0.80556  0.88488  Biso   1.000  C
  H209     1.0000 0.49300  0.63360  0.35950  Biso   1.000  H
  H210     1.0000 0.00700  0.36640  0.85950  Biso   1.000  H
  H211     1.0000 0.11640  0.74300  0.60950  Biso   1.000  H
  H212     1.0000 0.38360  0.25700  0.10950  Biso   1.000  H
  H213     1.0000 0.99300  0.13360  0.85950  Biso   1.000  H
  H214     1.0000 0.50700  0.86640  0.35950  Biso   1.000  H
  H215     1.0000 0.61640  0.24300  0.10950  Biso   1.000  H
  H216     1.0000 0.88360  0.75700  0.60950  Biso   1.000  H
  H217     1.0000 0.50700  0.36640  0.64050  Biso   1.000  H
  H218     1.0000 0.99300  0.63360  0.14050  Biso   1.000  H
  H219     1.0000 0.38360  0.75700  0.89050  Biso   1.000  H
  H220     1.0000 0.11640  0.24300  0.39050  Biso   1.000  H
  H221     1.0000 0.00700  0.86640  0.14050  Biso   1.000  H
  H222     1.0000 0.49300  0.13360  0.64050  Biso   1.000  H
  H223     1.0000 0.88360  0.25700  0.39050  Biso   1.000  H
  H224     1.0000 0.61640  0.74300  0.89050  Biso   1.000  H
  O17      1.0000 0.40681  0.52145  0.32783  Biso   1.000  O
  O18      1.0000 0.09319  0.47855  0.82783  Biso   1.000  O
  O19      1.0000 0.22855  0.65681  0.57783  Biso   1.000  O
  O20      1.0000 0.27145  0.34319  0.07783  Biso   1.000  O
  O21      1.0000 0.90681  0.02145  0.82783  Biso   1.000  O
  O22      1.0000 0.59319  0.97855  0.32783  Biso   1.000  O
  O23      1.0000 0.72855  0.15681  0.07783  Biso   1.000  O
  O24      1.0000 0.77145  0.84319  0.57783  Biso   1.000  O
  O25      1.0000 0.59319  0.47855  0.67217  Biso   1.000  O
  O26      1.0000 0.90681  0.52145  0.17217  Biso   1.000  O
  O27      1.0000 0.27145  0.84319  0.92217  Biso   1.000  O
  O28      1.0000 0.22855  0.15681  0.42217  Biso   1.000  O
  O29      1.0000 0.09319  0.97855  0.17217  Biso   1.000  O
  O30      1.0000 0.40681  0.02145  0.67217  Biso   1.000  O
  O31      1.0000 0.77145  0.34319  0.42217  Biso   1.000  O
  O32      1.0000 0.72855  0.65681  0.92217  Biso   1.000  O
  O33      1.0000 0.32575  0.61164  0.35703  Biso   1.000  O
  O34      1.0000 0.17425  0.38836  0.85703  Biso   1.000  O
  O35      1.0000 0.13836  0.57575  0.60703  Biso   1.000  O
  O36      1.0000 0.36164  0.42425  0.10703  Biso   1.000  O
  O37      1.0000 0.82575  0.11164  0.85703  Biso   1.000  O
  O38      1.0000 0.67425  0.88836  0.35703  Biso   1.000  O
  O39      1.0000 0.63836  0.07575  0.10703  Biso   1.000  O
  O40      1.0000 0.86164  0.92425  0.60703  Biso   1.000  O
  O41      1.0000 0.67425  0.38836  0.64297  Biso   1.000  O
  O42      1.0000 0.82575  0.61164  0.14297  Biso   1.000  O
  O43      1.0000 0.36164  0.92425  0.89297  Biso   1.000  O
  O44      1.0000 0.13836  0.07575  0.39297  Biso   1.000  O
  O45      1.0000 0.17425  0.88836  0.14297  Biso   1.000  O
  O46      1.0000 0.32575  0.11164  0.64297  Biso   1.000  O
  O47      1.0000 0.86164  0.42425  0.39297  Biso   1.000  O
  O48      1.0000 0.63836  0.57575  0.89297  Biso   1.000  O
  O49      1.0000 0.25507  0.51550  0.32703  Biso   1.000  O
  O50      1.0000 0.24493  0.48450  0.82703  Biso   1.000  O
  O51      1.0000 0.23450  0.50507  0.57703  Biso   1.000  O
  O52      1.0000 0.26550  0.49493  0.07703  Biso   1.000  O
  O53      1.0000 0.75507  0.01550  0.82703  Biso   1.000  O
  O54      1.0000 0.74493  0.98450  0.32703  Biso   1.000  O
  O55      1.0000 0.73450  0.00507  0.07703  Biso   1.000  O
  O56      1.0000 0.76550  0.99493  0.57703  Biso   1.000  O
  O57      1.0000 0.74493  0.48450  0.67297  Biso   1.000  O
  O58      1.0000 0.75507  0.51550  0.17297  Biso   1.000  O
  O59      1.0000 0.26550  0.99493  0.92297  Biso   1.000  O
  O60      1.0000 0.23450  0.00507  0.42297  Biso   1.000  O
  O61      1.0000 0.24493  0.98450  0.17297  Biso   1.000  O
  O62      1.0000 0.25507  0.01550  0.67297  Biso   1.000  O
  O63      1.0000 0.76550  0.49493  0.42297  Biso   1.000  O
  O64      1.0000 0.73450  0.50507  0.92297  Biso   1.000  O
  N97      1.0000 0.32931  0.54949  0.33704  Biso   1.000  N
  N98      1.0000 0.17069  0.45051  0.83704  Biso   1.000  N
  N99      1.0000 0.20051  0.57931  0.58704  Biso   1.000  N
  N100     1.0000 0.29949  0.42069  0.08704  Biso   1.000  N
  N101     1.0000 0.82931  0.04949  0.83704  Biso   1.000  N
  N102     1.0000 0.67069  0.95051  0.33704  Biso   1.000  N
  N103     1.0000 0.70051  0.07931  0.08704  Biso   1.000  N
  N104     1.0000 0.79949  0.92069  0.58704  Biso   1.000  N
  N105     1.0000 0.67069  0.45051  0.66296  Biso   1.000  N
  N106     1.0000 0.82931  0.54949  0.16296  Biso   1.000  N
  N107     1.0000 0.29949  0.92069  0.91296  Biso   1.000  N
  N108     1.0000 0.20051  0.07931  0.41296  Biso   1.000  N
  N109     1.0000 0.17069  0.95051  0.16296  Biso   1.000  N
  N110     1.0000 0.32931  0.04949  0.66296  Biso   1.000  N
  N111     1.0000 0.79949  0.42069  0.41296  Biso   1.000  N
  N112     1.0000 0.70051  0.57931  0.91296  Biso   1.000  N
  O65      1.0000 0.36410  0.51131  0.20652  Biso   1.000  O
  O66      1.0000 0.13590  0.48869  0.70652  Biso   1.000  O
  O67      1.0000 0.23869  0.61410  0.45652  Biso   1.000  O
  O68      1.0000 0.26131  0.38590  0.95652  Biso   1.000  O
  O69      1.0000 0.86410  0.01131  0.70652  Biso   1.000  O
  O70      1.0000 0.63590  0.98869  0.20652  Biso   1.000  O
  O71      1.0000 0.73869  0.11410  0.95652  Biso   1.000  O
  O72      1.0000 0.76131  0.88590  0.45652  Biso   1.000  O
  O73      1.0000 0.63590  0.48869  0.79348  Biso   1.000  O
  O74      1.0000 0.86410  0.51131  0.29348  Biso   1.000  O
  O75      1.0000 0.26131  0.88590  0.04348  Biso   1.000  O
  O76      1.0000 0.23869  0.11410  0.54348  Biso   1.000  O
  O77      1.0000 0.13590  0.98869  0.29348  Biso   1.000  O
  O78      1.0000 0.36410  0.01131  0.79348  Biso   1.000  O
  O79      1.0000 0.76131  0.38590  0.54348  Biso   1.000  O
  O80      1.0000 0.73869  0.61410  0.04348  Biso   1.000  O
  H225     1.0000 0.38500  0.55980  0.19720  Biso   1.000  H
  H226     1.0000 0.11500  0.44020  0.69720  Biso   1.000  H
  H227     1.0000 0.19020  0.63500  0.44720  Biso   1.000  H
  H228     1.0000 0.30980  0.36500  0.94720  Biso   1.000  H
  H229     1.0000 0.88500  0.05980  0.69720  Biso   1.000  H
  H230     1.0000 0.61500  0.94020  0.19720  Biso   1.000  H
  H231     1.0000 0.69020  0.13500  0.94720  Biso   1.000  H
  H232     1.0000 0.80980  0.86500  0.44720  Biso   1.000  H
  H233     1.0000 0.61500  0.44020  0.80280  Biso   1.000  H
  H234     1.0000 0.88500  0.55980  0.30280  Biso   1.000  H
  H235     1.0000 0.30980  0.86500  0.05280  Biso   1.000  H
  H236     1.0000 0.19020  0.13500  0.55280  Biso   1.000  H
  H237     1.0000 0.11500  0.94020  0.30280  Biso   1.000  H
  H238     1.0000 0.38500  0.05980  0.80280  Biso   1.000  H
  H239     1.0000 0.80980  0.36500  0.55280  Biso   1.000  H
  H240     1.0000 0.69020  0.63500  0.05280  Biso   1.000  H
  H241     1.0000 0.36890  0.52000  0.22550  Biso   1.000  H
  H242     1.0000 0.13110  0.48000  0.72550  Biso   1.000  H
  H243     1.0000 0.23000  0.61890  0.47550  Biso   1.000  H
  H244     1.0000 0.27000  0.38110  0.97550  Biso   1.000  H
  H245     1.0000 0.86890  0.02000  0.72550  Biso   1.000  H
  H246     1.0000 0.63110  0.98000  0.22550  Biso   1.000  H
  H247     1.0000 0.73000  0.11890  0.97550  Biso   1.000  H
  H248     1.0000 0.77000  0.88110  0.47550  Biso   1.000  H
  H249     1.0000 0.63110  0.48000  0.77450  Biso   1.000  H
  H250     1.0000 0.86890  0.52000  0.27450  Biso   1.000  H
  H251     1.0000 0.27000  0.88110  0.02450  Biso   1.000  H
  H252     1.0000 0.23000  0.11890  0.52450  Biso   1.000  H
  H253     1.0000 0.13110  0.98000  0.27450  Biso   1.000  H
  H254     1.0000 0.36890  0.02000  0.77450  Biso   1.000  H
  H255     1.0000 0.77000  0.38110  0.52450  Biso   1.000  H
  H256     1.0000 0.73000  0.61890  0.02450  Biso   1.000  H
  O81      1.0000 0.60209  0.64774  0.15485  Biso   1.000  O
  O82      1.0000 0.89791  0.35226  0.65485  Biso   1.000  O
  O83      1.0000 0.10226  0.85209  0.40485  Biso   1.000  O
  O84      1.0000 0.39774  0.14791  0.90485  Biso   1.000  O
  O85      1.0000 0.10209  0.14774  0.65485  Biso   1.000  O
  O86      1.0000 0.39791  0.85226  0.15485  Biso   1.000  O
  O87      1.0000 0.60226  0.35209  0.90485  Biso   1.000  O
  O88      1.0000 0.89774  0.64791  0.40485  Biso   1.000  O
  O89      1.0000 0.39791  0.35226  0.84515  Biso   1.000  O
  O90      1.0000 0.10209  0.64774  0.34515  Biso   1.000  O
  O91      1.0000 0.39774  0.64791  0.09515  Biso   1.000  O
  O92      1.0000 0.10226  0.35209  0.59515  Biso   1.000  O
  O93      1.0000 0.89791  0.85226  0.34515  Biso   1.000  O
  O94      1.0000 0.60209  0.14774  0.84515  Biso   1.000  O
  O95      1.0000 0.89774  0.14791  0.59515  Biso   1.000  O
  O96      1.0000 0.60226  0.85209  0.09515  Biso   1.000  O
  H257     1.0000 0.65150  0.61540  0.15890  Biso   1.000  H
  H258     1.0000 0.84850  0.38460  0.65890  Biso   1.000  H
  H259     1.0000 0.13460  0.90150  0.40890  Biso   1.000  H
  H260     1.0000 0.36540  0.09850  0.90890  Biso   1.000  H
  H261     1.0000 0.15150  0.11540  0.65890  Biso   1.000  H
  H262     1.0000 0.34850  0.88460  0.15890  Biso   1.000  H
  H263     1.0000 0.63460  0.40150  0.90890  Biso   1.000  H
  H264     1.0000 0.86540  0.59850  0.40890  Biso   1.000  H
  H265     1.0000 0.34850  0.38460  0.84110  Biso   1.000  H
  H266     1.0000 0.15150  0.61540  0.34110  Biso   1.000  H
  H267     1.0000 0.36540  0.59850  0.09110  Biso   1.000  H
  H268     1.0000 0.13460  0.40150  0.59110  Biso   1.000  H
  H269     1.0000 0.84850  0.88460  0.34110  Biso   1.000  H
  H270     1.0000 0.65150  0.11540  0.84110  Biso   1.000  H
  H271     1.0000 0.86540  0.09850  0.59110  Biso   1.000  H
  H272     1.0000 0.63460  0.90150  0.09110  Biso   1.000  H
  H273     1.0000 0.61450  0.70660  0.15680  Biso   1.000  H
  H274     1.0000 0.88550  0.29340  0.65680  Biso   1.000  H
  H275     1.0000 0.04340  0.86450  0.40680  Biso   1.000  H
  H276     1.0000 0.45660  0.13550  0.90680  Biso   1.000  H
  H277     1.0000 0.11450  0.20660  0.65680  Biso   1.000  H
  H278     1.0000 0.38550  0.79340  0.15680  Biso   1.000  H
  H279     1.0000 0.54340  0.36450  0.90680  Biso   1.000  H
  H280     1.0000 0.95660  0.63550  0.40680  Biso   1.000  H
  H281     1.0000 0.38550  0.29340  0.84320  Biso   1.000  H
  H282     1.0000 0.11450  0.70660  0.34320  Biso   1.000  H
  H283     1.0000 0.45660  0.63550  0.09320  Biso   1.000  H
  H284     1.0000 0.04340  0.36450  0.59320  Biso   1.000  H
  H285     1.0000 0.88550  0.79340  0.34320  Biso   1.000  H
  H286     1.0000 0.61450  0.20660  0.84320  Biso   1.000  H
  H287     1.0000 0.95660  0.13550  0.59320  Biso   1.000  H
  H288     1.0000 0.54340  0.86450  0.09320  Biso   1.000  H
  O97      1.0000 0.40632  0.65372  0.16587  Biso   1.000  O
  O98      1.0000 0.09368  0.34628  0.66587  Biso   1.000  O
  O99      1.0000 0.09628  0.65632  0.41587  Biso   1.000  O
  O100     1.0000 0.40372  0.34368  0.91587  Biso   1.000  O
  O101     1.0000 0.90632  0.15372  0.66587  Biso   1.000  O
  O102     1.0000 0.59368  0.84628  0.16587  Biso   1.000  O
  O103     1.0000 0.59628  0.15632  0.91587  Biso   1.000  O
  O104     1.0000 0.90372  0.84368  0.41587  Biso   1.000  O
  O105     1.0000 0.59368  0.34628  0.83413  Biso   1.000  O
  O106     1.0000 0.90632  0.65372  0.33413  Biso   1.000  O
  O107     1.0000 0.40372  0.84368  0.08413  Biso   1.000  O
  O108     1.0000 0.09628  0.15632  0.58413  Biso   1.000  O
  O109     1.0000 0.09368  0.84628  0.33413  Biso   1.000  O
  O110     1.0000 0.40632  0.15372  0.83413  Biso   1.000  O
  O111     1.0000 0.90372  0.34368  0.58413  Biso   1.000  O
  O112     1.0000 0.59628  0.65632  0.08413  Biso   1.000  O
  H289     1.0000 0.37190  0.63280  0.15150  Biso   1.000  H
  H290     1.0000 0.12810  0.36720  0.65150  Biso   1.000  H
  H291     1.0000 0.11720  0.62190  0.40150  Biso   1.000  H
  H292     1.0000 0.38280  0.37810  0.90150  Biso   1.000  H
  H293     1.0000 0.87190  0.13280  0.65150  Biso   1.000  H
  H294     1.0000 0.62810  0.86720  0.15150  Biso   1.000  H
  H295     1.0000 0.61720  0.12190  0.90150  Biso   1.000  H
  H296     1.0000 0.88280  0.87810  0.40150  Biso   1.000  H
  H297     1.0000 0.62810  0.36720  0.84850  Biso   1.000  H
  H298     1.0000 0.87190  0.63280  0.34850  Biso   1.000  H
  H299     1.0000 0.38280  0.87810  0.09850  Biso   1.000  H
  H300     1.0000 0.11720  0.12190  0.59850  Biso   1.000  H
  H301     1.0000 0.12810  0.86720  0.34850  Biso   1.000  H
  H302     1.0000 0.37190  0.13280  0.84850  Biso   1.000  H
  H303     1.0000 0.88280  0.37810  0.59850  Biso   1.000  H
  H304     1.0000 0.61720  0.62190  0.09850  Biso   1.000  H
  H305     1.0000 0.46390  0.63890  0.16260  Biso   1.000  H
  H306     1.0000 0.03610  0.36110  0.66260  Biso   1.000  H
  H307     1.0000 0.11110  0.71390  0.41260  Biso   1.000  H
  H308     1.0000 0.38890  0.28610  0.91260  Biso   1.000  H
  H309     1.0000 0.96390  0.13890  0.66260  Biso   1.000  H
  H310     1.0000 0.53610  0.86110  0.16260  Biso   1.000  H
  H311     1.0000 0.61110  0.21390  0.91260  Biso   1.000  H
  H312     1.0000 0.88890  0.78610  0.41260  Biso   1.000  H
  H313     1.0000 0.53610  0.36110  0.83740  Biso   1.000  H
  H314     1.0000 0.96390  0.63890  0.33740  Biso   1.000  H
  H315     1.0000 0.38890  0.78610  0.08740  Biso   1.000  H
  H316     1.0000 0.11110  0.21390  0.58740  Biso   1.000  H
  H317     1.0000 0.03610  0.86110  0.33740  Biso   1.000  H
  H318     1.0000 0.46390  0.13890  0.83740  Biso   1.000  H
  H319     1.0000 0.88890  0.28610  0.58740  Biso   1.000  H
  H320     1.0000 0.61110  0.71390  0.08740  Biso   1.000  H
  O113     1.0000 0.38313  0.46094  0.26704  Biso   1.000  O
  O114     1.0000 0.11687  0.53906  0.76704  Biso   1.000  O
  O115     1.0000 0.28906  0.63313  0.51704  Biso   1.000  O
  O116     1.0000 0.21094  0.36687  0.01704  Biso   1.000  O
  O117     1.0000 0.88313  0.96094  0.76704  Biso   1.000  O
  O118     1.0000 0.61687  0.03906  0.26704  Biso   1.000  O
  O119     1.0000 0.78906  0.13313  0.01704  Biso   1.000  O
  O120     1.0000 0.71094  0.86687  0.51704  Biso   1.000  O
  O121     1.0000 0.61687  0.53906  0.73296  Biso   1.000  O
  O122     1.0000 0.88313  0.46094  0.23296  Biso   1.000  O
  O123     1.0000 0.21094  0.86687  0.98296  Biso   1.000  O
  O124     1.0000 0.28906  0.13313  0.48296  Biso   1.000  O
  O125     1.0000 0.11687  0.03906  0.23296  Biso   1.000  O
  O126     1.0000 0.38313  0.96094  0.73296  Biso   1.000  O
  O127     1.0000 0.71094  0.36687  0.48296  Biso   1.000  O
  O128     1.0000 0.78906  0.63313  0.98296  Biso   1.000  O
  H321     1.0000 0.33100  0.43050  0.26710  Biso   1.000  H
  H322     1.0000 0.16900  0.56950  0.76710  Biso   1.000  H
  H323     1.0000 0.31950  0.58100  0.51710  Biso   1.000  H
  H324     1.0000 0.18050  0.41900  0.01710  Biso   1.000  H
  H325     1.0000 0.83100  0.93050  0.76710  Biso   1.000  H
  H326     1.0000 0.66900  0.06950  0.26710  Biso   1.000  H
  H327     1.0000 0.81950  0.08100  0.01710  Biso   1.000  H
  H328     1.0000 0.68050  0.91900  0.51710  Biso   1.000  H
  H329     1.0000 0.66900  0.56950  0.73290  Biso   1.000  H
  H330     1.0000 0.83100  0.43050  0.23290  Biso   1.000  H
  H331     1.0000 0.18050  0.91900  0.98290  Biso   1.000  H
  H332     1.0000 0.31950  0.08100  0.48290  Biso   1.000  H
  H333     1.0000 0.16900  0.06950  0.23290  Biso   1.000  H
  H334     1.0000 0.33100  0.93050  0.73290  Biso   1.000  H
  H335     1.0000 0.68050  0.41900  0.48290  Biso   1.000  H
  H336     1.0000 0.81950  0.58100  0.98290  Biso   1.000  H
  H337     1.0000 0.39530  0.48040  0.28480  Biso   1.000  H
  H338     1.0000 0.10470  0.51960  0.78480  Biso   1.000  H
  H339     1.0000 0.26960  0.64530  0.53480  Biso   1.000  H
  H340     1.0000 0.23040  0.35470  0.03480  Biso   1.000  H
  H341     1.0000 0.89530  0.98040  0.78480  Biso   1.000  H
  H342     1.0000 0.60470  0.01960  0.28480  Biso   1.000  H
  H343     1.0000 0.76960  0.14530  0.03480  Biso   1.000  H
  H344     1.0000 0.73040  0.85470  0.53480  Biso   1.000  H
  H345     1.0000 0.60470  0.51960  0.71520  Biso   1.000  H
  H346     1.0000 0.89530  0.48040  0.21520  Biso   1.000  H
  H347     1.0000 0.23040  0.85470  0.96520  Biso   1.000  H
  H348     1.0000 0.26960  0.14530  0.46520  Biso   1.000  H
  H349     1.0000 0.10470  0.01960  0.21520  Biso   1.000  H
  H350     1.0000 0.39530  0.98040  0.71520  Biso   1.000  H
  H351     1.0000 0.73040  0.35470  0.46520  Biso   1.000  H
  H352     1.0000 0.76960  0.64530  0.96520  Biso   1.000  H
