data_image0
_cell_length_a       53.643
_cell_length_b       53.643
_cell_length_c       11.92
_cell_angle_alpha    90
_cell_angle_beta     90
_cell_angle_gamma    120

_symmetry_space_group_name_H-M    "P 1"
_symmetry_int_tables_number       1

loop_
  _symmetry_equiv_pos_as_xyz
  'x, y, z'

loop_
  _atom_site_label
  _atom_site_occupancy
  _atom_site_fract_x
  _atom_site_fract_y
  _atom_site_fract_z
  _atom_site_thermal_displace_type
  _atom_site_B_iso_or_equiv
  _atom_site_type_symbol
  Cu1      1.0000 0.93696  0.08424  0.73310  Biso   1.000  Cu
  Cu2      1.0000 0.91577  0.85272  0.73310  Biso   1.000  Cu
  Cu3      1.0000 0.14728  0.06304  0.73310  Biso   1.000  Cu
  Cu4      1.0000 0.27029  0.41757  0.06643  Biso   1.000  Cu
  Cu5      1.0000 0.24910  0.18606  0.06643  Biso   1.000  Cu
  Cu6      1.0000 0.48061  0.39637  0.06643  Biso   1.000  Cu
  Cu7      1.0000 0.41757  0.48061  0.60023  Biso   1.000  Cu
  Cu8      1.0000 0.18606  0.27029  0.60023  Biso   1.000  Cu
  Cu9      1.0000 0.06304  0.91576  0.26690  Biso   1.000  Cu
  Cu10     1.0000 0.08424  0.14728  0.26690  Biso   1.000  Cu
  Cu11     1.0000 0.85272  0.93696  0.26690  Biso   1.000  Cu
  Cu12     1.0000 0.39637  0.24910  0.60023  Biso   1.000  Cu
  Cu13     1.0000 0.91291  0.09813  0.93457  Biso   1.000  Cu
  Cu14     1.0000 0.90187  0.81478  0.93457  Biso   1.000  Cu
  Cu15     1.0000 0.18522  0.08709  0.93457  Biso   1.000  Cu
  Cu16     1.0000 0.24624  0.43146  0.26790  Biso   1.000  Cu
  Cu17     1.0000 0.23520  0.14811  0.26790  Biso   1.000  Cu
  Cu18     1.0000 0.51856  0.42043  0.26790  Biso   1.000  Cu
  Cu19     1.0000 0.43146  0.51856  0.39876  Biso   1.000  Cu
  Cu20     1.0000 0.14811  0.24624  0.39876  Biso   1.000  Cu
  Cu21     1.0000 0.08709  0.90187  0.06543  Biso   1.000  Cu
  Cu22     1.0000 0.09813  0.18522  0.06543  Biso   1.000  Cu
  Cu23     1.0000 0.81478  0.91291  0.06543  Biso   1.000  Cu
  Cu24     1.0000 0.42043  0.23520  0.39876  Biso   1.000  Cu
  Cu25     1.0000 0.98080  0.23751  0.43890  Biso   1.000  Cu
  Cu26     1.0000 0.76249  0.74329  0.43890  Biso   1.000  Cu
  Cu27     1.0000 0.25671  0.01920  0.43890  Biso   1.000  Cu
  Cu28     1.0000 0.31413  0.57084  0.77223  Biso   1.000  Cu
  Cu29     1.0000 0.09583  0.07663  0.77223  Biso   1.000  Cu
  Cu30     1.0000 0.59004  0.35253  0.77223  Biso   1.000  Cu
  Cu31     1.0000 0.57084  0.59004  0.89443  Biso   1.000  Cu
  Cu32     1.0000 0.07663  0.31413  0.89443  Biso   1.000  Cu
  Cu33     1.0000 0.01920  0.76249  0.56110  Biso   1.000  Cu
  Cu34     1.0000 0.23751  0.25671  0.56110  Biso   1.000  Cu
  Cu35     1.0000 0.74329  0.98080  0.56110  Biso   1.000  Cu
  Cu36     1.0000 0.35253  0.09583  0.89443  Biso   1.000  Cu
  Cu37     1.0000 0.75716  0.01856  0.35877  Biso   1.000  Cu
  Cu38     1.0000 0.98144  0.73860  0.35877  Biso   1.000  Cu
  Cu39     1.0000 0.26140  0.24284  0.35877  Biso   1.000  Cu
  Cu40     1.0000 0.09049  0.35189  0.69210  Biso   1.000  Cu
  Cu41     1.0000 0.31477  0.07193  0.69210  Biso   1.000  Cu
  Cu42     1.0000 0.59473  0.57617  0.69210  Biso   1.000  Cu
  Cu43     1.0000 0.35189  0.59473  0.97456  Biso   1.000  Cu
  Cu44     1.0000 0.07193  0.09049  0.97456  Biso   1.000  Cu
  Cu45     1.0000 0.24284  0.98144  0.64123  Biso   1.000  Cu
  Cu46     1.0000 0.01856  0.26140  0.64123  Biso   1.000  Cu
  Cu47     1.0000 0.73860  0.75716  0.64123  Biso   1.000  Cu
  Cu48     1.0000 0.57617  0.31477  0.97456  Biso   1.000  Cu
  O1       1.0000 0.97075  0.10462  0.63810  Biso   1.000  O
  O2       1.0000 0.89538  0.86613  0.63810  Biso   1.000  O
  O3       1.0000 0.13387  0.02925  0.63810  Biso   1.000  O
  O4       1.0000 0.30408  0.43795  0.97143  Biso   1.000  O
  O5       1.0000 0.22871  0.19946  0.97143  Biso   1.000  O
  O6       1.0000 0.46720  0.36258  0.97143  Biso   1.000  O
  O7       1.0000 0.43795  0.46720  0.69523  Biso   1.000  O
  O8       1.0000 0.19946  0.30408  0.69523  Biso   1.000  O
  O9       1.0000 0.02925  0.89538  0.36190  Biso   1.000  O
  O10      1.0000 0.10462  0.13387  0.36190  Biso   1.000  O
  O11      1.0000 0.86613  0.97075  0.36190  Biso   1.000  O
  O12      1.0000 0.36258  0.22871  0.69523  Biso   1.000  O
  O13      1.0000 0.99420  0.08643  0.72920  Biso   1.000  O
  O14      1.0000 0.91357  0.90777  0.72920  Biso   1.000  O
  O15      1.0000 0.09223  0.00580  0.72920  Biso   1.000  O
  O16      1.0000 0.32753  0.41976  0.06253  Biso   1.000  O
  O17      1.0000 0.24690  0.24110  0.06253  Biso   1.000  O
  O18      1.0000 0.42556  0.33913  0.06253  Biso   1.000  O
  O19      1.0000 0.41976  0.42556  0.60413  Biso   1.000  O
  O20      1.0000 0.24110  0.32753  0.60413  Biso   1.000  O
  O21      1.0000 0.00580  0.91357  0.27080  Biso   1.000  O
  O22      1.0000 0.08643  0.09223  0.27080  Biso   1.000  O
  O23      1.0000 0.90777  0.99420  0.27080  Biso   1.000  O
  O24      1.0000 0.33913  0.24690  0.60413  Biso   1.000  O
  O25      1.0000 0.97021  0.20522  0.34030  Biso   1.000  O
  O26      1.0000 0.79478  0.76499  0.34030  Biso   1.000  O
  O27      1.0000 0.23501  0.02979  0.34030  Biso   1.000  O
  O28      1.0000 0.30354  0.53855  0.67363  Biso   1.000  O
  O29      1.0000 0.12811  0.09832  0.67363  Biso   1.000  O
  O30      1.0000 0.56834  0.36312  0.67363  Biso   1.000  O
  O31      1.0000 0.53855  0.56834  0.99303  Biso   1.000  O
  O32      1.0000 0.09832  0.30354  0.99303  Biso   1.000  O
  O33      1.0000 0.02979  0.79478  0.65970  Biso   1.000  O
  O34      1.0000 0.20522  0.23501  0.65970  Biso   1.000  O
  O35      1.0000 0.76499  0.97021  0.65970  Biso   1.000  O
  O36      1.0000 0.36312  0.12811  0.99303  Biso   1.000  O
  O37      1.0000 0.92694  0.17722  0.41200  Biso   1.000  O
  O38      1.0000 0.82278  0.74972  0.41200  Biso   1.000  O
  O39      1.0000 0.25028  0.07306  0.41200  Biso   1.000  O
  O40      1.0000 0.26027  0.51055  0.74533  Biso   1.000  O
  O41      1.0000 0.15611  0.08305  0.74533  Biso   1.000  O
  O42      1.0000 0.58361  0.40639  0.74533  Biso   1.000  O
  O43      1.0000 0.51055  0.58361  0.92133  Biso   1.000  O
  O44      1.0000 0.08305  0.26027  0.92133  Biso   1.000  O
  O45      1.0000 0.07306  0.82278  0.58800  Biso   1.000  O
  O46      1.0000 0.17722  0.25028  0.58800  Biso   1.000  O
  O47      1.0000 0.74972  0.92694  0.58800  Biso   1.000  O
  O48      1.0000 0.40639  0.15611  0.92133  Biso   1.000  O
  O49      1.0000 0.93117  0.30325  0.07200  Biso   1.000  O
  O50      1.0000 0.69675  0.62792  0.07200  Biso   1.000  O
  O51      1.0000 0.37208  0.06883  0.07200  Biso   1.000  O
  O52      1.0000 0.26450  0.63658  0.40533  Biso   1.000  O
  O53      1.0000 0.03008  0.96125  0.40533  Biso   1.000  O
  O54      1.0000 0.70541  0.40216  0.40533  Biso   1.000  O
  O55      1.0000 0.63658  0.70541  0.26133  Biso   1.000  O
  O56      1.0000 0.96125  0.26450  0.26133  Biso   1.000  O
  O57      1.0000 0.06883  0.69675  0.92800  Biso   1.000  O
  O58      1.0000 0.30325  0.37208  0.92800  Biso   1.000  O
  O59      1.0000 0.62792  0.93117  0.92800  Biso   1.000  O
  O60      1.0000 0.40216  0.03008  0.26133  Biso   1.000  O
  O61      1.0000 0.91369  0.26121  0.98370  Biso   1.000  O
  O62      1.0000 0.73879  0.65248  0.98370  Biso   1.000  O
  O63      1.0000 0.34752  0.08631  0.98370  Biso   1.000  O
  O64      1.0000 0.24702  0.59454  0.31703  Biso   1.000  O
  O65      1.0000 0.07212  0.98581  0.31703  Biso   1.000  O
  O66      1.0000 0.68085  0.41964  0.31703  Biso   1.000  O
  O67      1.0000 0.59454  0.68085  0.34963  Biso   1.000  O
  O68      1.0000 0.98581  0.24702  0.34963  Biso   1.000  O
  O69      1.0000 0.08631  0.73879  0.01630  Biso   1.000  O
  O70      1.0000 0.26121  0.34752  0.01630  Biso   1.000  O
  O71      1.0000 0.65248  0.91369  0.01630  Biso   1.000  O
  O72      1.0000 0.41964  0.07212  0.34963  Biso   1.000  O
  O73      1.0000 0.87840  0.07782  0.02300  Biso   1.000  O
  O74      1.0000 0.92218  0.80058  0.02300  Biso   1.000  O
  O75      1.0000 0.19942  0.12160  0.02300  Biso   1.000  O
  O76      1.0000 0.21173  0.41115  0.35633  Biso   1.000  O
  O77      1.0000 0.25551  0.13391  0.35633  Biso   1.000  O
  O78      1.0000 0.53275  0.45493  0.35633  Biso   1.000  O
  O79      1.0000 0.41115  0.53275  0.31033  Biso   1.000  O
  O80      1.0000 0.13391  0.21173  0.31033  Biso   1.000  O
  O81      1.0000 0.12160  0.92218  0.97700  Biso   1.000  O
  O82      1.0000 0.07782  0.19942  0.97700  Biso   1.000  O
  O83      1.0000 0.80058  0.87840  0.97700  Biso   1.000  O
  O84      1.0000 0.45493  0.25551  0.31033  Biso   1.000  O
  O85      1.0000 0.85303  0.09207  0.91980  Biso   1.000  O
  O86      1.0000 0.90793  0.76096  0.91980  Biso   1.000  O
  O87      1.0000 0.23904  0.14697  0.91980  Biso   1.000  O
  O88      1.0000 0.18636  0.42540  0.25313  Biso   1.000  O
  O89      1.0000 0.24126  0.09429  0.25313  Biso   1.000  O
  O90      1.0000 0.57237  0.48030  0.25313  Biso   1.000  O
  O91      1.0000 0.42540  0.57237  0.41353  Biso   1.000  O
  O92      1.0000 0.09429  0.18636  0.41353  Biso   1.000  O
  O93      1.0000 0.14697  0.90793  0.08020  Biso   1.000  O
  O94      1.0000 0.09207  0.23904  0.08020  Biso   1.000  O
  O95      1.0000 0.76096  0.85303  0.08020  Biso   1.000  O
  O96      1.0000 0.48030  0.24126  0.41353  Biso   1.000  O
  O97      1.0000 0.90458  0.06814  0.83030  Biso   1.000  O
  O98      1.0000 0.93186  0.83644  0.83030  Biso   1.000  O
  O99      1.0000 0.16356  0.09542  0.83030  Biso   1.000  O
  O100     1.0000 0.23791  0.40147  0.16363  Biso   1.000  O
  O101     1.0000 0.26519  0.16977  0.16363  Biso   1.000  O
  O102     1.0000 0.49689  0.42875  0.16363  Biso   1.000  O
  O103     1.0000 0.40147  0.49689  0.50303  Biso   1.000  O
  O104     1.0000 0.16977  0.23791  0.50303  Biso   1.000  O
  O105     1.0000 0.09542  0.93186  0.16970  Biso   1.000  O
  O106     1.0000 0.06814  0.16356  0.16970  Biso   1.000  O
  O107     1.0000 0.83644  0.90458  0.16970  Biso   1.000  O
  O108     1.0000 0.42875  0.26519  0.50303  Biso   1.000  O
  O109     1.0000 0.94633  0.11417  0.84000  Biso   1.000  O
  O110     1.0000 0.88583  0.83216  0.84000  Biso   1.000  O
  O111     1.0000 0.16784  0.05367  0.84000  Biso   1.000  O
  O112     1.0000 0.27966  0.44750  0.17333  Biso   1.000  O
  O113     1.0000 0.21916  0.16549  0.17333  Biso   1.000  O
  O114     1.0000 0.50117  0.38700  0.17333  Biso   1.000  O
  O115     1.0000 0.44750  0.50117  0.49333  Biso   1.000  O
  O116     1.0000 0.16549  0.27966  0.49333  Biso   1.000  O
  O117     1.0000 0.05367  0.88583  0.16000  Biso   1.000  O
  O118     1.0000 0.11417  0.16784  0.16000  Biso   1.000  O
  O119     1.0000 0.83216  0.94633  0.16000  Biso   1.000  O
  O120     1.0000 0.38700  0.21916  0.49333  Biso   1.000  O
  O121     1.0000 0.99684  0.26994  0.53870  Biso   1.000  O
  O122     1.0000 0.73006  0.72690  0.53870  Biso   1.000  O
  O123     1.0000 0.27310  0.00316  0.53870  Biso   1.000  O
  O124     1.0000 0.33017  0.60327  0.87203  Biso   1.000  O
  O125     1.0000 0.06339  0.06023  0.87203  Biso   1.000  O
  O126     1.0000 0.60643  0.33649  0.87203  Biso   1.000  O
  O127     1.0000 0.60327  0.60643  0.79463  Biso   1.000  O
  O128     1.0000 0.06023  0.33017  0.79463  Biso   1.000  O
  O129     1.0000 0.00316  0.73006  0.46130  Biso   1.000  O
  O130     1.0000 0.26994  0.27310  0.46130  Biso   1.000  O
  O131     1.0000 0.72690  0.99684  0.46130  Biso   1.000  O
  O132     1.0000 0.33649  0.06339  0.79463  Biso   1.000  O
  O133     1.0000 0.00235  0.22899  0.54380  Biso   1.000  O
  O134     1.0000 0.77101  0.77336  0.54380  Biso   1.000  O
  O135     1.0000 0.22664  0.99765  0.54380  Biso   1.000  O
  O136     1.0000 0.33568  0.56232  0.87713  Biso   1.000  O
  O137     1.0000 0.10434  0.10669  0.87713  Biso   1.000  O
  O138     1.0000 0.55997  0.33098  0.87713  Biso   1.000  O
  O139     1.0000 0.56232  0.55997  0.78953  Biso   1.000  O
  O140     1.0000 0.10669  0.33568  0.78953  Biso   1.000  O
  O141     1.0000 0.99765  0.77101  0.45620  Biso   1.000  O
  O142     1.0000 0.22899  0.22664  0.45620  Biso   1.000  O
  O143     1.0000 0.77336  0.00235  0.45620  Biso   1.000  O
  O144     1.0000 0.33098  0.10434  0.78953  Biso   1.000  O
  N1       1.0000 0.05264  0.13256  0.37840  Biso   1.000  N
  N2       1.0000 0.86744  0.92008  0.37840  Biso   1.000  N
  N3       1.0000 0.07992  0.94736  0.37840  Biso   1.000  N
  N4       1.0000 0.38597  0.46589  0.71173  Biso   1.000  N
  N5       1.0000 0.20077  0.25341  0.71173  Biso   1.000  N
  N6       1.0000 0.41325  0.28069  0.71173  Biso   1.000  N
  N7       1.0000 0.46589  0.41325  0.95493  Biso   1.000  N
  N8       1.0000 0.25341  0.38597  0.95493  Biso   1.000  N
  N9       1.0000 0.94736  0.86744  0.62160  Biso   1.000  N
  N10      1.0000 0.13256  0.07992  0.62160  Biso   1.000  N
  N11      1.0000 0.92008  0.05264  0.62160  Biso   1.000  N
  N12      1.0000 0.28069  0.20077  0.95493  Biso   1.000  N
  N13      1.0000 0.92833  0.12946  0.05040  Biso   1.000  N
  N14      1.0000 0.87054  0.79887  0.05040  Biso   1.000  N
  N15      1.0000 0.20113  0.07167  0.05040  Biso   1.000  N
  N16      1.0000 0.26166  0.46279  0.38373  Biso   1.000  N
  N17      1.0000 0.20387  0.13220  0.38373  Biso   1.000  N
  N18      1.0000 0.53446  0.40500  0.38373  Biso   1.000  N
  N19      1.0000 0.46279  0.53446  0.28293  Biso   1.000  N
  N20      1.0000 0.13220  0.26166  0.28293  Biso   1.000  N
  N21      1.0000 0.07167  0.87054  0.94960  Biso   1.000  N
  N22      1.0000 0.12946  0.20113  0.94960  Biso   1.000  N
  N23      1.0000 0.79887  0.92833  0.94960  Biso   1.000  N
  N24      1.0000 0.40500  0.20387  0.28293  Biso   1.000  N
  N25      1.0000 0.96373  0.25294  0.33030  Biso   1.000  N
  N26      1.0000 0.74706  0.71079  0.33030  Biso   1.000  N
  N27      1.0000 0.28921  0.03627  0.33030  Biso   1.000  N
  N28      1.0000 0.29706  0.58627  0.66363  Biso   1.000  N
  N29      1.0000 0.08039  0.04412  0.66363  Biso   1.000  N
  N30      1.0000 0.62254  0.36960  0.66363  Biso   1.000  N
  N31      1.0000 0.58627  0.62254  0.00303  Biso   1.000  N
  N32      1.0000 0.04412  0.29706  0.00303  Biso   1.000  N
  N33      1.0000 0.03627  0.74706  0.66970  Biso   1.000  N
  N34      1.0000 0.25294  0.28921  0.66970  Biso   1.000  N
  N35      1.0000 0.71079  0.96373  0.66970  Biso   1.000  N
  N36      1.0000 0.36960  0.08039  0.00303  Biso   1.000  N
  N37      1.0000 0.79075  0.03775  0.25300  Biso   1.000  N
  N38      1.0000 0.96225  0.75300  0.25300  Biso   1.000  N
  N39      1.0000 0.24700  0.20925  0.25300  Biso   1.000  N
  N40      1.0000 0.12408  0.37108  0.58633  Biso   1.000  N
  N41      1.0000 0.29558  0.08633  0.58633  Biso   1.000  N
  N42      1.0000 0.58033  0.54258  0.58633  Biso   1.000  N
  N43      1.0000 0.37108  0.58033  0.08033  Biso   1.000  N
  N44      1.0000 0.08633  0.12408  0.08033  Biso   1.000  N
  N45      1.0000 0.20925  0.96225  0.74700  Biso   1.000  N
  N46      1.0000 0.03775  0.24700  0.74700  Biso   1.000  N
  N47      1.0000 0.75300  0.79075  0.74700  Biso   1.000  N
  N48      1.0000 0.54258  0.29558  0.08033  Biso   1.000  N
  C1       1.0000 0.02955  0.10530  0.37490  Biso   1.000  C
  C2       1.0000 0.89470  0.92425  0.37490  Biso   1.000  C
  C3       1.0000 0.07575  0.97045  0.37490  Biso   1.000  C
  C4       1.0000 0.36288  0.43863  0.70823  Biso   1.000  C
  C5       1.0000 0.22803  0.25758  0.70823  Biso   1.000  C
  C6       1.0000 0.40908  0.30378  0.70823  Biso   1.000  C
  C7       1.0000 0.43863  0.40908  0.95843  Biso   1.000  C
  C8       1.0000 0.25758  0.36288  0.95843  Biso   1.000  C
  C9       1.0000 0.97045  0.89470  0.62510  Biso   1.000  C
  C10      1.0000 0.10530  0.07575  0.62510  Biso   1.000  C
  C11      1.0000 0.92425  0.02955  0.62510  Biso   1.000  C
  C12      1.0000 0.30378  0.22803  0.95843  Biso   1.000  C
  C13      1.0000 0.02563  0.08799  0.27830  Biso   1.000  C
  C14      1.0000 0.91201  0.93764  0.27830  Biso   1.000  C
  C15      1.0000 0.06236  0.97437  0.27830  Biso   1.000  C
  C16      1.0000 0.35896  0.42132  0.61163  Biso   1.000  C
  C17      1.0000 0.24534  0.27097  0.61163  Biso   1.000  C
  C18      1.0000 0.39569  0.30770  0.61163  Biso   1.000  C
  C19      1.0000 0.42132  0.39569  0.05503  Biso   1.000  C
  C20      1.0000 0.27097  0.35896  0.05503  Biso   1.000  C
  C21      1.0000 0.97437  0.91201  0.72170  Biso   1.000  C
  C22      1.0000 0.08799  0.06236  0.72170  Biso   1.000  C
  C23      1.0000 0.93764  0.02563  0.72170  Biso   1.000  C
  C24      1.0000 0.30770  0.24534  0.05503  Biso   1.000  C
  H1       1.0000 0.03840  0.09560  0.21840  Biso   1.000  H
  H2       1.0000 0.90440  0.94280  0.21840  Biso   1.000  H
  H3       1.0000 0.05720  0.96160  0.21840  Biso   1.000  H
  H4       1.0000 0.37173  0.42893  0.55173  Biso   1.000  H
  H5       1.0000 0.23773  0.27613  0.55173  Biso   1.000  H
  H6       1.0000 0.39053  0.29493  0.55173  Biso   1.000  H
  H7       1.0000 0.42893  0.39053  0.11493  Biso   1.000  H
  H8       1.0000 0.27613  0.37173  0.11493  Biso   1.000  H
  H9       1.0000 0.96160  0.90440  0.78160  Biso   1.000  H
  H10      1.0000 0.09560  0.05720  0.78160  Biso   1.000  H
  H11      1.0000 0.94280  0.03840  0.78160  Biso   1.000  H
  H12      1.0000 0.29493  0.23773  0.11493  Biso   1.000  H
  C25      1.0000 0.00370  0.06081  0.27310  Biso   1.000  C
  C26      1.0000 0.93919  0.94289  0.27310  Biso   1.000  C
  C27      1.0000 0.05711  0.99630  0.27310  Biso   1.000  C
  C28      1.0000 0.33703  0.39414  0.60643  Biso   1.000  C
  C29      1.0000 0.27252  0.27622  0.60643  Biso   1.000  C
  C30      1.0000 0.39044  0.32963  0.60643  Biso   1.000  C
  C31      1.0000 0.39414  0.39044  0.06023  Biso   1.000  C
  C32      1.0000 0.27622  0.33703  0.06023  Biso   1.000  C
  C33      1.0000 0.99630  0.93919  0.72690  Biso   1.000  C
  C34      1.0000 0.06081  0.05711  0.72690  Biso   1.000  C
  C35      1.0000 0.94289  0.00370  0.72690  Biso   1.000  C
  C36      1.0000 0.32963  0.27252  0.06023  Biso   1.000  C
  H13      1.0000 0.00160  0.04980  0.20980  Biso   1.000  H
  H14      1.0000 0.95020  0.95180  0.20980  Biso   1.000  H
  H15      1.0000 0.04820  0.99840  0.20980  Biso   1.000  H
  H16      1.0000 0.33493  0.38313  0.54313  Biso   1.000  H
  H17      1.0000 0.28353  0.28513  0.54313  Biso   1.000  H
  H18      1.0000 0.38153  0.33173  0.54313  Biso   1.000  H
  H19      1.0000 0.38313  0.38153  0.12353  Biso   1.000  H
  H20      1.0000 0.28513  0.33493  0.12353  Biso   1.000  H
  H21      1.0000 0.99840  0.95020  0.79020  Biso   1.000  H
  H22      1.0000 0.04980  0.04820  0.79020  Biso   1.000  H
  H23      1.0000 0.95180  0.00160  0.79020  Biso   1.000  H
  H24      1.0000 0.33173  0.28353  0.12353  Biso   1.000  H
  C37      1.0000 0.98362  0.04860  0.36280  Biso   1.000  C
  C38      1.0000 0.95140  0.93502  0.36280  Biso   1.000  C
  C39      1.0000 0.06498  0.01638  0.36280  Biso   1.000  C
  C40      1.0000 0.31695  0.38193  0.69613  Biso   1.000  C
  C41      1.0000 0.28473  0.26835  0.69613  Biso   1.000  C
  C42      1.0000 0.39831  0.34971  0.69613  Biso   1.000  C
  C43      1.0000 0.38193  0.39831  0.97053  Biso   1.000  C
  C44      1.0000 0.26835  0.31695  0.97053  Biso   1.000  C
  C45      1.0000 0.01638  0.95140  0.63720  Biso   1.000  C
  C46      1.0000 0.04860  0.06498  0.63720  Biso   1.000  C
  C47      1.0000 0.93502  0.98362  0.63720  Biso   1.000  C
  C48      1.0000 0.34971  0.28473  0.97053  Biso   1.000  C
  H25      1.0000 0.96850  0.02970  0.35780  Biso   1.000  H
  H26      1.0000 0.97030  0.93880  0.35780  Biso   1.000  H
  H27      1.0000 0.06120  0.03150  0.35780  Biso   1.000  H
  H28      1.0000 0.30183  0.36303  0.69113  Biso   1.000  H
  H29      1.0000 0.30363  0.27213  0.69113  Biso   1.000  H
  H30      1.0000 0.39453  0.36483  0.69113  Biso   1.000  H
  H31      1.0000 0.36303  0.39453  0.97553  Biso   1.000  H
  H32      1.0000 0.27213  0.30183  0.97553  Biso   1.000  H
  H33      1.0000 0.03150  0.97030  0.64220  Biso   1.000  H
  H34      1.0000 0.02970  0.06120  0.64220  Biso   1.000  H
  H35      1.0000 0.93880  0.96850  0.64220  Biso   1.000  H
  H36      1.0000 0.36483  0.30363  0.97553  Biso   1.000  H
  C49      1.0000 0.98647  0.06426  0.45420  Biso   1.000  C
  C50      1.0000 0.93574  0.92221  0.45420  Biso   1.000  C
  C51      1.0000 0.07779  0.01353  0.45420  Biso   1.000  C
  C52      1.0000 0.31980  0.39759  0.78753  Biso   1.000  C
  C53      1.0000 0.26907  0.25554  0.78753  Biso   1.000  C
  C54      1.0000 0.41112  0.34686  0.78753  Biso   1.000  C
  C55      1.0000 0.39759  0.41112  0.87913  Biso   1.000  C
  C56      1.0000 0.25554  0.31980  0.87913  Biso   1.000  C
  C57      1.0000 0.01353  0.93574  0.54580  Biso   1.000  C
  C58      1.0000 0.06426  0.07779  0.54580  Biso   1.000  C
  C59      1.0000 0.92221  0.98647  0.54580  Biso   1.000  C
  C60      1.0000 0.34686  0.26907  0.87913  Biso   1.000  C
  H37      1.0000 0.97330  0.05600  0.51250  Biso   1.000  H
  H38      1.0000 0.94400  0.91730  0.51250  Biso   1.000  H
  H39      1.0000 0.08270  0.02670  0.51250  Biso   1.000  H
  H40      1.0000 0.30663  0.38933  0.84583  Biso   1.000  H
  H41      1.0000 0.27733  0.25063  0.84583  Biso   1.000  H
  H42      1.0000 0.41603  0.36003  0.84583  Biso   1.000  H
  H43      1.0000 0.38933  0.41603  0.82083  Biso   1.000  H
  H44      1.0000 0.25063  0.30663  0.82083  Biso   1.000  H
  H45      1.0000 0.02670  0.94400  0.48750  Biso   1.000  H
  H46      1.0000 0.05600  0.08270  0.48750  Biso   1.000  H
  H47      1.0000 0.91730  0.97330  0.48750  Biso   1.000  H
  H48      1.0000 0.36003  0.27733  0.82083  Biso   1.000  H
  C61      1.0000 0.00930  0.09344  0.46410  Biso   1.000  C
  C62      1.0000 0.90656  0.91586  0.46410  Biso   1.000  C
  C63      1.0000 0.08414  0.99070  0.46410  Biso   1.000  C
  C64      1.0000 0.34263  0.42677  0.79743  Biso   1.000  C
  C65      1.0000 0.23989  0.24919  0.79743  Biso   1.000  C
  C66      1.0000 0.41747  0.32403  0.79743  Biso   1.000  C
  C67      1.0000 0.42677  0.41747  0.86923  Biso   1.000  C
  C68      1.0000 0.24919  0.34263  0.86923  Biso   1.000  C
  C69      1.0000 0.99070  0.90656  0.53590  Biso   1.000  C
  C70      1.0000 0.09344  0.08414  0.53590  Biso   1.000  C
  C71      1.0000 0.91586  0.00930  0.53590  Biso   1.000  C
  C72      1.0000 0.32403  0.23989  0.86923  Biso   1.000  C
  C73      1.0000 0.01288  0.11057  0.55790  Biso   1.000  C
  C74      1.0000 0.88943  0.90231  0.55790  Biso   1.000  C
  C75      1.0000 0.09769  0.98712  0.55790  Biso   1.000  C
  C76      1.0000 0.34621  0.44390  0.89123  Biso   1.000  C
  C77      1.0000 0.22276  0.23564  0.89123  Biso   1.000  C
  C78      1.0000 0.43102  0.32045  0.89123  Biso   1.000  C
  C79      1.0000 0.44390  0.43102  0.77543  Biso   1.000  C
  C80      1.0000 0.23564  0.34621  0.77543  Biso   1.000  C
  C81      1.0000 0.98712  0.88943  0.44210  Biso   1.000  C
  C82      1.0000 0.11057  0.09769  0.44210  Biso   1.000  C
  C83      1.0000 0.90231  0.01288  0.44210  Biso   1.000  C
  C84      1.0000 0.32045  0.22276  0.77543  Biso   1.000  C
  C85      1.0000 0.99118  0.09938  0.65240  Biso   1.000  C
  C86      1.0000 0.90062  0.89180  0.65240  Biso   1.000  C
  C87      1.0000 0.10820  0.00882  0.65240  Biso   1.000  C
  C88      1.0000 0.32451  0.43271  0.98573  Biso   1.000  C
  C89      1.0000 0.23395  0.22513  0.98573  Biso   1.000  C
  C90      1.0000 0.44153  0.34215  0.98573  Biso   1.000  C
  C91      1.0000 0.43271  0.44153  0.68093  Biso   1.000  C
  C92      1.0000 0.22513  0.32451  0.68093  Biso   1.000  C
  C93      1.0000 0.00882  0.90062  0.34760  Biso   1.000  C
  C94      1.0000 0.09938  0.10820  0.34760  Biso   1.000  C
  C95      1.0000 0.89180  0.99118  0.34760  Biso   1.000  C
  C96      1.0000 0.34215  0.23395  0.68093  Biso   1.000  C
  C97      1.0000 0.03669  0.13865  0.56380  Biso   1.000  C
  C98      1.0000 0.86135  0.89804  0.56380  Biso   1.000  C
  C99      1.0000 0.10196  0.96331  0.56380  Biso   1.000  C
  C100     1.0000 0.37002  0.47198  0.89713  Biso   1.000  C
  C101     1.0000 0.19468  0.23137  0.89713  Biso   1.000  C
  C102     1.0000 0.43529  0.29664  0.89713  Biso   1.000  C
  C103     1.0000 0.47198  0.43529  0.76953  Biso   1.000  C
  C104     1.0000 0.23137  0.37002  0.76953  Biso   1.000  C
  C105     1.0000 0.96331  0.86135  0.43620  Biso   1.000  C
  C106     1.0000 0.13865  0.10196  0.43620  Biso   1.000  C
  C107     1.0000 0.89804  0.03669  0.43620  Biso   1.000  C
  C108     1.0000 0.29664  0.19468  0.76953  Biso   1.000  C
  C109     1.0000 0.04276  0.15684  0.65820  Biso   1.000  C
  C110     1.0000 0.84316  0.88592  0.65820  Biso   1.000  C
  C111     1.0000 0.11408  0.95724  0.65820  Biso   1.000  C
  C112     1.0000 0.37609  0.49017  0.99153  Biso   1.000  C
  C113     1.0000 0.17649  0.21925  0.99153  Biso   1.000  C
  C114     1.0000 0.44741  0.29057  0.99153  Biso   1.000  C
  C115     1.0000 0.49017  0.44741  0.67513  Biso   1.000  C
  C116     1.0000 0.21925  0.37609  0.67513  Biso   1.000  C
  C117     1.0000 0.95724  0.84316  0.34180  Biso   1.000  C
  C118     1.0000 0.15684  0.11408  0.34180  Biso   1.000  C
  C119     1.0000 0.88592  0.04276  0.34180  Biso   1.000  C
  C120     1.0000 0.29057  0.17649  0.67513  Biso   1.000  C
  H49      1.0000 0.03030  0.15040  0.71930  Biso   1.000  H
  H50      1.0000 0.84960  0.87990  0.71930  Biso   1.000  H
  H51      1.0000 0.12010  0.96970  0.71930  Biso   1.000  H
  H52      1.0000 0.36363  0.48373  0.05263  Biso   1.000  H
  H53      1.0000 0.18293  0.21323  0.05263  Biso   1.000  H
  H54      1.0000 0.45343  0.30303  0.05263  Biso   1.000  H
  H55      1.0000 0.48373  0.45343  0.61403  Biso   1.000  H
  H56      1.0000 0.21323  0.36363  0.61403  Biso   1.000  H
  H57      1.0000 0.96970  0.84960  0.28070  Biso   1.000  H
  H58      1.0000 0.15040  0.12010  0.28070  Biso   1.000  H
  H59      1.0000 0.87990  0.03030  0.28070  Biso   1.000  H
  H60      1.0000 0.30303  0.18293  0.61403  Biso   1.000  H
  C121     1.0000 0.06643  0.18352  0.66110  Biso   1.000  C
  C122     1.0000 0.81648  0.88291  0.66110  Biso   1.000  C
  C123     1.0000 0.11709  0.93357  0.66110  Biso   1.000  C
  C124     1.0000 0.39976  0.51685  0.99443  Biso   1.000  C
  C125     1.0000 0.14981  0.21624  0.99443  Biso   1.000  C
  C126     1.0000 0.45042  0.26690  0.99443  Biso   1.000  C
  C127     1.0000 0.51685  0.45042  0.67223  Biso   1.000  C
  C128     1.0000 0.21624  0.39976  0.67223  Biso   1.000  C
  C129     1.0000 0.93357  0.81648  0.33890  Biso   1.000  C
  C130     1.0000 0.18352  0.11709  0.33890  Biso   1.000  C
  C131     1.0000 0.88291  0.06643  0.33890  Biso   1.000  C
  C132     1.0000 0.26690  0.14981  0.67223  Biso   1.000  C
  H61      1.0000 0.07040  0.19500  0.72460  Biso   1.000  H
  H62      1.0000 0.80500  0.87540  0.72460  Biso   1.000  H
  H63      1.0000 0.12460  0.92960  0.72460  Biso   1.000  H
  H64      1.0000 0.40373  0.52833  0.05793  Biso   1.000  H
  H65      1.0000 0.13833  0.20873  0.05793  Biso   1.000  H
  H66      1.0000 0.45793  0.26293  0.05793  Biso   1.000  H
  H67      1.0000 0.52833  0.45793  0.60873  Biso   1.000  H
  H68      1.0000 0.20873  0.40373  0.60873  Biso   1.000  H
  H69      1.0000 0.92960  0.80500  0.27540  Biso   1.000  H
  H70      1.0000 0.19500  0.12460  0.27540  Biso   1.000  H
  H71      1.0000 0.87540  0.07040  0.27540  Biso   1.000  H
  H72      1.0000 0.26293  0.13833  0.60873  Biso   1.000  H
  C133     1.0000 0.08478  0.19367  0.56800  Biso   1.000  C
  C134     1.0000 0.80633  0.89111  0.56800  Biso   1.000  C
  C135     1.0000 0.10889  0.91522  0.56800  Biso   1.000  C
  C136     1.0000 0.41811  0.52700  0.90133  Biso   1.000  C
  C137     1.0000 0.13966  0.22444  0.90133  Biso   1.000  C
  C138     1.0000 0.44222  0.24855  0.90133  Biso   1.000  C
  C139     1.0000 0.52700  0.44222  0.76533  Biso   1.000  C
  C140     1.0000 0.22444  0.41811  0.76533  Biso   1.000  C
  C141     1.0000 0.91522  0.80633  0.43200  Biso   1.000  C
  C142     1.0000 0.19367  0.10889  0.43200  Biso   1.000  C
  C143     1.0000 0.89111  0.08478  0.43200  Biso   1.000  C
  C144     1.0000 0.24855  0.13966  0.76533  Biso   1.000  C
  H73      1.0000 0.10050  0.21220  0.56980  Biso   1.000  H
  H74      1.0000 0.78780  0.88830  0.56980  Biso   1.000  H
  H75      1.0000 0.11170  0.89950  0.56980  Biso   1.000  H
  H76      1.0000 0.43383  0.54553  0.90313  Biso   1.000  H
  H77      1.0000 0.12113  0.22163  0.90313  Biso   1.000  H
  H78      1.0000 0.44503  0.23283  0.90313  Biso   1.000  H
  H79      1.0000 0.54553  0.44503  0.76353  Biso   1.000  H
  H80      1.0000 0.22163  0.43383  0.76353  Biso   1.000  H
  H81      1.0000 0.89950  0.78780  0.43020  Biso   1.000  H
  H82      1.0000 0.21220  0.11170  0.43020  Biso   1.000  H
  H83      1.0000 0.88830  0.10050  0.43020  Biso   1.000  H
  H84      1.0000 0.23283  0.12113  0.76353  Biso   1.000  H
  C145     1.0000 0.08028  0.17725  0.47500  Biso   1.000  C
  C146     1.0000 0.82275  0.90303  0.47500  Biso   1.000  C
  C147     1.0000 0.09697  0.91972  0.47500  Biso   1.000  C
  C148     1.0000 0.41361  0.51058  0.80833  Biso   1.000  C
  C149     1.0000 0.15608  0.23636  0.80833  Biso   1.000  C
  C150     1.0000 0.43030  0.25305  0.80833  Biso   1.000  C
  C151     1.0000 0.51058  0.43030  0.85833  Biso   1.000  C
  C152     1.0000 0.23636  0.41361  0.85833  Biso   1.000  C
  C153     1.0000 0.91972  0.82275  0.52500  Biso   1.000  C
  C154     1.0000 0.17725  0.09697  0.52500  Biso   1.000  C
  C155     1.0000 0.90303  0.08028  0.52500  Biso   1.000  C
  C156     1.0000 0.25305  0.15608  0.85833  Biso   1.000  C
  H85      1.0000 0.09290  0.18450  0.41460  Biso   1.000  H
  H86      1.0000 0.81550  0.90840  0.41460  Biso   1.000  H
  H87      1.0000 0.09160  0.90710  0.41460  Biso   1.000  H
  H88      1.0000 0.42623  0.51783  0.74793  Biso   1.000  H
  H89      1.0000 0.14883  0.24173  0.74793  Biso   1.000  H
  H90      1.0000 0.42493  0.24043  0.74793  Biso   1.000  H
  H91      1.0000 0.51783  0.42493  0.91873  Biso   1.000  H
  H92      1.0000 0.24173  0.42623  0.91873  Biso   1.000  H
  H93      1.0000 0.90710  0.81550  0.58540  Biso   1.000  H
  H94      1.0000 0.18450  0.09160  0.58540  Biso   1.000  H
  H95      1.0000 0.90840  0.09290  0.58540  Biso   1.000  H
  H96      1.0000 0.24043  0.14883  0.91873  Biso   1.000  H
  C157     1.0000 0.05605  0.14884  0.47090  Biso   1.000  C
  C158     1.0000 0.85116  0.90721  0.47090  Biso   1.000  C
  C159     1.0000 0.09279  0.94395  0.47090  Biso   1.000  C
  C160     1.0000 0.38938  0.48217  0.80423  Biso   1.000  C
  C161     1.0000 0.18449  0.24054  0.80423  Biso   1.000  C
  C162     1.0000 0.42612  0.27728  0.80423  Biso   1.000  C
  C163     1.0000 0.48217  0.42612  0.86243  Biso   1.000  C
  C164     1.0000 0.24054  0.38938  0.86243  Biso   1.000  C
  C165     1.0000 0.94395  0.85116  0.52910  Biso   1.000  C
  C166     1.0000 0.14884  0.09279  0.52910  Biso   1.000  C
  C167     1.0000 0.90721  0.05605  0.52910  Biso   1.000  C
  C168     1.0000 0.27728  0.18449  0.86243  Biso   1.000  C
  C169     1.0000 0.94036  0.12504  0.14170  Biso   1.000  C
  C170     1.0000 0.87496  0.81532  0.14170  Biso   1.000  C
  C171     1.0000 0.18468  0.05964  0.14170  Biso   1.000  C
  C172     1.0000 0.27369  0.45837  0.47503  Biso   1.000  C
  C173     1.0000 0.20829  0.14865  0.47503  Biso   1.000  C
  C174     1.0000 0.51801  0.39297  0.47503  Biso   1.000  C
  C175     1.0000 0.45837  0.51801  0.19163  Biso   1.000  C
  C176     1.0000 0.14865  0.27369  0.19163  Biso   1.000  C
  C177     1.0000 0.05964  0.87496  0.85830  Biso   1.000  C
  C178     1.0000 0.12504  0.18468  0.85830  Biso   1.000  C
  C179     1.0000 0.81532  0.94036  0.85830  Biso   1.000  C
  C180     1.0000 0.39297  0.20829  0.19163  Biso   1.000  C
  C181     1.0000 0.94789  0.10346  0.14280  Biso   1.000  C
  C182     1.0000 0.89654  0.84443  0.14280  Biso   1.000  C
  C183     1.0000 0.15557  0.05211  0.14280  Biso   1.000  C
  C184     1.0000 0.28122  0.43679  0.47613  Biso   1.000  C
  C185     1.0000 0.22987  0.17776  0.47613  Biso   1.000  C
  C186     1.0000 0.48890  0.38544  0.47613  Biso   1.000  C
  C187     1.0000 0.43679  0.48890  0.19053  Biso   1.000  C
  C188     1.0000 0.17776  0.28122  0.19053  Biso   1.000  C
  C189     1.0000 0.05211  0.89654  0.85720  Biso   1.000  C
  C190     1.0000 0.10346  0.15557  0.85720  Biso   1.000  C
  C191     1.0000 0.84443  0.94789  0.85720  Biso   1.000  C
  C192     1.0000 0.38544  0.22987  0.19053  Biso   1.000  C
  H97      1.0000 0.94500  0.09250  0.07860  Biso   1.000  H
  H98      1.0000 0.90750  0.85250  0.07860  Biso   1.000  H
  H99      1.0000 0.14750  0.05500  0.07860  Biso   1.000  H
  H100     1.0000 0.27833  0.42583  0.41193  Biso   1.000  H
  H101     1.0000 0.24083  0.18583  0.41193  Biso   1.000  H
  H102     1.0000 0.48083  0.38833  0.41193  Biso   1.000  H
  H103     1.0000 0.42583  0.48083  0.25473  Biso   1.000  H
  H104     1.0000 0.18583  0.27833  0.25473  Biso   1.000  H
  H105     1.0000 0.05500  0.90750  0.92140  Biso   1.000  H
  H106     1.0000 0.09250  0.14750  0.92140  Biso   1.000  H
  H107     1.0000 0.85250  0.94500  0.92140  Biso   1.000  H
  H108     1.0000 0.38833  0.24083  0.25473  Biso   1.000  H
  C193     1.0000 0.95930  0.09826  0.23580  Biso   1.000  C
  C194     1.0000 0.90174  0.86104  0.23580  Biso   1.000  C
  C195     1.0000 0.13896  0.04070  0.23580  Biso   1.000  C
  C196     1.0000 0.29263  0.43159  0.56913  Biso   1.000  C
  C197     1.0000 0.23507  0.19437  0.56913  Biso   1.000  C
  C198     1.0000 0.47229  0.37403  0.56913  Biso   1.000  C
  C199     1.0000 0.43159  0.47229  0.09753  Biso   1.000  C
  C200     1.0000 0.19437  0.29263  0.09753  Biso   1.000  C
  C201     1.0000 0.04070  0.90174  0.76420  Biso   1.000  C
  C202     1.0000 0.09826  0.13896  0.76420  Biso   1.000  C
  C203     1.0000 0.86104  0.95930  0.76420  Biso   1.000  C
  C204     1.0000 0.37403  0.23507  0.09753  Biso   1.000  C
  H109     1.0000 0.96370  0.08360  0.23500  Biso   1.000  H
  H110     1.0000 0.91640  0.88010  0.23500  Biso   1.000  H
  H111     1.0000 0.11990  0.03630  0.23500  Biso   1.000  H
  H112     1.0000 0.29703  0.41693  0.56833  Biso   1.000  H
  H113     1.0000 0.24973  0.21343  0.56833  Biso   1.000  H
  H114     1.0000 0.45323  0.36963  0.56833  Biso   1.000  H
  H115     1.0000 0.41693  0.45323  0.09833  Biso   1.000  H
  H116     1.0000 0.21343  0.29703  0.09833  Biso   1.000  H
  H117     1.0000 0.03630  0.91640  0.76500  Biso   1.000  H
  H118     1.0000 0.08360  0.11990  0.76500  Biso   1.000  H
  H119     1.0000 0.88010  0.96370  0.76500  Biso   1.000  H
  H120     1.0000 0.36963  0.24973  0.09833  Biso   1.000  H
  C205     1.0000 0.96444  0.11500  0.33310  Biso   1.000  C
  C206     1.0000 0.88500  0.84944  0.33310  Biso   1.000  C
  C207     1.0000 0.15056  0.03556  0.33310  Biso   1.000  C
  C208     1.0000 0.29777  0.44833  0.66643  Biso   1.000  C
  C209     1.0000 0.21833  0.18277  0.66643  Biso   1.000  C
  C210     1.0000 0.48389  0.36889  0.66643  Biso   1.000  C
  C211     1.0000 0.44833  0.48389  0.00023  Biso   1.000  C
  C212     1.0000 0.18277  0.29777  0.00023  Biso   1.000  C
  C213     1.0000 0.03556  0.88500  0.66690  Biso   1.000  C
  C214     1.0000 0.11500  0.15056  0.66690  Biso   1.000  C
  C215     1.0000 0.84944  0.96444  0.66690  Biso   1.000  C
  C216     1.0000 0.36889  0.21833  0.00023  Biso   1.000  C
  H121     1.0000 0.97200  0.11110  0.39640  Biso   1.000  H
  H122     1.0000 0.88890  0.86090  0.39640  Biso   1.000  H
  H123     1.0000 0.13910  0.02800  0.39640  Biso   1.000  H
  H124     1.0000 0.30533  0.44443  0.72973  Biso   1.000  H
  H125     1.0000 0.22223  0.19423  0.72973  Biso   1.000  H
  H126     1.0000 0.47243  0.36133  0.72973  Biso   1.000  H
  H127     1.0000 0.44443  0.47243  0.93693  Biso   1.000  H
  H128     1.0000 0.19423  0.30533  0.93693  Biso   1.000  H
  H129     1.0000 0.02800  0.88890  0.60360  Biso   1.000  H
  H130     1.0000 0.11110  0.13910  0.60360  Biso   1.000  H
  H131     1.0000 0.86090  0.97200  0.60360  Biso   1.000  H
  H132     1.0000 0.36133  0.22223  0.93693  Biso   1.000  H
  C217     1.0000 0.95860  0.13640  0.33580  Biso   1.000  C
  C218     1.0000 0.86360  0.82220  0.33580  Biso   1.000  C
  C219     1.0000 0.17780  0.04140  0.33580  Biso   1.000  C
  C220     1.0000 0.29193  0.46973  0.66913  Biso   1.000  C
  C221     1.0000 0.19693  0.15553  0.66913  Biso   1.000  C
  C222     1.0000 0.51113  0.37473  0.66913  Biso   1.000  C
  C223     1.0000 0.46973  0.51113  0.99753  Biso   1.000  C
  C224     1.0000 0.15553  0.29193  0.99753  Biso   1.000  C
  C225     1.0000 0.04140  0.86360  0.66420  Biso   1.000  C
  C226     1.0000 0.13640  0.17780  0.66420  Biso   1.000  C
  C227     1.0000 0.82220  0.95860  0.66420  Biso   1.000  C
  C228     1.0000 0.37473  0.19693  0.99753  Biso   1.000  C
  H133     1.0000 0.96260  0.14750  0.40040  Biso   1.000  H
  H134     1.0000 0.85250  0.81510  0.40040  Biso   1.000  H
  H135     1.0000 0.18490  0.03740  0.40040  Biso   1.000  H
  H136     1.0000 0.29593  0.48083  0.73373  Biso   1.000  H
  H137     1.0000 0.18583  0.14843  0.73373  Biso   1.000  H
  H138     1.0000 0.51823  0.37073  0.73373  Biso   1.000  H
  H139     1.0000 0.48083  0.51823  0.93293  Biso   1.000  H
  H140     1.0000 0.14843  0.29593  0.93293  Biso   1.000  H
  H141     1.0000 0.03740  0.85250  0.59960  Biso   1.000  H
  H142     1.0000 0.14750  0.18490  0.59960  Biso   1.000  H
  H143     1.0000 0.81510  0.96260  0.59960  Biso   1.000  H
  H144     1.0000 0.37073  0.18583  0.93293  Biso   1.000  H
  C229     1.0000 0.94625  0.14249  0.24030  Biso   1.000  C
  C230     1.0000 0.85751  0.80376  0.24030  Biso   1.000  C
  C231     1.0000 0.19624  0.05375  0.24030  Biso   1.000  C
  C232     1.0000 0.27958  0.47582  0.57363  Biso   1.000  C
  C233     1.0000 0.19084  0.13709  0.57363  Biso   1.000  C
  C234     1.0000 0.52957  0.38708  0.57363  Biso   1.000  C
  C235     1.0000 0.47582  0.52957  0.09303  Biso   1.000  C
  C236     1.0000 0.13709  0.27958  0.09303  Biso   1.000  C
  C237     1.0000 0.05375  0.85751  0.75970  Biso   1.000  C
  C238     1.0000 0.14249  0.19624  0.75970  Biso   1.000  C
  C239     1.0000 0.80376  0.94625  0.75970  Biso   1.000  C
  C240     1.0000 0.38708  0.19084  0.09303  Biso   1.000  C
  C241     1.0000 0.93872  0.16388  0.24030  Biso   1.000  C
  C242     1.0000 0.83612  0.77484  0.24030  Biso   1.000  C
  C243     1.0000 0.22516  0.06128  0.24030  Biso   1.000  C
  C244     1.0000 0.27205  0.49721  0.57363  Biso   1.000  C
  C245     1.0000 0.16945  0.10817  0.57363  Biso   1.000  C
  C246     1.0000 0.55849  0.39461  0.57363  Biso   1.000  C
  C247     1.0000 0.49721  0.55849  0.09303  Biso   1.000  C
  C248     1.0000 0.10817  0.27205  0.09303  Biso   1.000  C
  C249     1.0000 0.06128  0.83612  0.75970  Biso   1.000  C
  C250     1.0000 0.16388  0.22516  0.75970  Biso   1.000  C
  C251     1.0000 0.77484  0.93872  0.75970  Biso   1.000  C
  C252     1.0000 0.39461  0.16945  0.09303  Biso   1.000  C
  C253     1.0000 0.94525  0.18314  0.34130  Biso   1.000  C
  C254     1.0000 0.81686  0.76211  0.34130  Biso   1.000  C
  C255     1.0000 0.23789  0.05475  0.34130  Biso   1.000  C
  C256     1.0000 0.27858  0.51647  0.67463  Biso   1.000  C
  C257     1.0000 0.15019  0.09544  0.67463  Biso   1.000  C
  C258     1.0000 0.57122  0.38808  0.67463  Biso   1.000  C
  C259     1.0000 0.51647  0.57122  0.99203  Biso   1.000  C
  C260     1.0000 0.09544  0.27858  0.99203  Biso   1.000  C
  C261     1.0000 0.05475  0.81686  0.65870  Biso   1.000  C
  C262     1.0000 0.18314  0.23789  0.65870  Biso   1.000  C
  C263     1.0000 0.76211  0.94525  0.65870  Biso   1.000  C
  C264     1.0000 0.38808  0.15019  0.99203  Biso   1.000  C
  C265     1.0000 0.92548  0.16785  0.14660  Biso   1.000  C
  C266     1.0000 0.83215  0.75763  0.14660  Biso   1.000  C
  C267     1.0000 0.24237  0.07452  0.14660  Biso   1.000  C
  C268     1.0000 0.25881  0.50118  0.47993  Biso   1.000  C
  C269     1.0000 0.16548  0.09096  0.47993  Biso   1.000  C
  C270     1.0000 0.57570  0.40785  0.47993  Biso   1.000  C
  C271     1.0000 0.50118  0.57570  0.18673  Biso   1.000  C
  C272     1.0000 0.09096  0.25881  0.18673  Biso   1.000  C
  C273     1.0000 0.07452  0.83215  0.85340  Biso   1.000  C
  C274     1.0000 0.16785  0.24237  0.85340  Biso   1.000  C
  C275     1.0000 0.75763  0.92548  0.85340  Biso   1.000  C
  C276     1.0000 0.40785  0.16548  0.18673  Biso   1.000  C
  C277     1.0000 0.91611  0.18839  0.14070  Biso   1.000  C
  C278     1.0000 0.81161  0.72772  0.14070  Biso   1.000  C
  C279     1.0000 0.27228  0.08389  0.14070  Biso   1.000  C
  C280     1.0000 0.24944  0.52172  0.47403  Biso   1.000  C
  C281     1.0000 0.14494  0.06105  0.47403  Biso   1.000  C
  C282     1.0000 0.60561  0.41722  0.47403  Biso   1.000  C
  C283     1.0000 0.52172  0.60561  0.19263  Biso   1.000  C
  C284     1.0000 0.06105  0.24944  0.19263  Biso   1.000  C
  C285     1.0000 0.08389  0.81161  0.85930  Biso   1.000  C
  C286     1.0000 0.18839  0.27228  0.85930  Biso   1.000  C
  C287     1.0000 0.72772  0.91611  0.85930  Biso   1.000  C
  C288     1.0000 0.41722  0.14494  0.19263  Biso   1.000  C
  H145     1.0000 0.91870  0.20000  0.20270  Biso   1.000  H
  H146     1.0000 0.80000  0.71870  0.20270  Biso   1.000  H
  H147     1.0000 0.28130  0.08130  0.20270  Biso   1.000  H
  H148     1.0000 0.25203  0.53333  0.53603  Biso   1.000  H
  H149     1.0000 0.13333  0.05203  0.53603  Biso   1.000  H
  H150     1.0000 0.61463  0.41463  0.53603  Biso   1.000  H
  H151     1.0000 0.53333  0.61463  0.13063  Biso   1.000  H
  H152     1.0000 0.05203  0.25203  0.13063  Biso   1.000  H
  H153     1.0000 0.08130  0.80000  0.79730  Biso   1.000  H
  H154     1.0000 0.20000  0.28130  0.79730  Biso   1.000  H
  H155     1.0000 0.71870  0.91870  0.79730  Biso   1.000  H
  H156     1.0000 0.41463  0.13333  0.13063  Biso   1.000  H
  C289     1.0000 0.90361  0.19154  0.04810  Biso   1.000  C
  C290     1.0000 0.80846  0.71207  0.04810  Biso   1.000  C
  C291     1.0000 0.28793  0.09639  0.04810  Biso   1.000  C
  C292     1.0000 0.23694  0.52487  0.38143  Biso   1.000  C
  C293     1.0000 0.14179  0.04540  0.38143  Biso   1.000  C
  C294     1.0000 0.62126  0.42972  0.38143  Biso   1.000  C
  C295     1.0000 0.52487  0.62126  0.28523  Biso   1.000  C
  C296     1.0000 0.04540  0.23694  0.28523  Biso   1.000  C
  C297     1.0000 0.09639  0.80846  0.95190  Biso   1.000  C
  C298     1.0000 0.19154  0.28793  0.95190  Biso   1.000  C
  C299     1.0000 0.71207  0.90361  0.95190  Biso   1.000  C
  C300     1.0000 0.42972  0.14179  0.28523  Biso   1.000  C
  H157     1.0000 0.89740  0.20500  0.04670  Biso   1.000  H
  H158     1.0000 0.79500  0.69240  0.04670  Biso   1.000  H
  H159     1.0000 0.30760  0.10260  0.04670  Biso   1.000  H
  H160     1.0000 0.23073  0.53833  0.38003  Biso   1.000  H
  H161     1.0000 0.12833  0.02573  0.38003  Biso   1.000  H
  H162     1.0000 0.64093  0.43593  0.38003  Biso   1.000  H
  H163     1.0000 0.53833  0.64093  0.28663  Biso   1.000  H
  H164     1.0000 0.02573  0.23073  0.28663  Biso   1.000  H
  H165     1.0000 0.10260  0.79500  0.95330  Biso   1.000  H
  H166     1.0000 0.20500  0.30760  0.95330  Biso   1.000  H
  H167     1.0000 0.69240  0.89740  0.95330  Biso   1.000  H
  H168     1.0000 0.43593  0.12833  0.28663  Biso   1.000  H
  C301     1.0000 0.89987  0.17413  0.95200  Biso   1.000  C
  C302     1.0000 0.82587  0.72574  0.95200  Biso   1.000  C
  C303     1.0000 0.27426  0.10013  0.95200  Biso   1.000  C
  C304     1.0000 0.23320  0.50746  0.28533  Biso   1.000  C
  C305     1.0000 0.15920  0.05907  0.28533  Biso   1.000  C
  C306     1.0000 0.60759  0.43346  0.28533  Biso   1.000  C
  C307     1.0000 0.50746  0.60759  0.38133  Biso   1.000  C
  C308     1.0000 0.05907  0.23320  0.38133  Biso   1.000  C
  C309     1.0000 0.10013  0.82587  0.04800  Biso   1.000  C
  C310     1.0000 0.17413  0.27426  0.04800  Biso   1.000  C
  C311     1.0000 0.72574  0.89987  0.04800  Biso   1.000  C
  C312     1.0000 0.43346  0.15920  0.38133  Biso   1.000  C
  H169     1.0000 0.89160  0.17650  0.88740  Biso   1.000  H
  H170     1.0000 0.82350  0.71510  0.88740  Biso   1.000  H
  H171     1.0000 0.28490  0.10840  0.88740  Biso   1.000  H
  H172     1.0000 0.22493  0.50983  0.22073  Biso   1.000  H
  H173     1.0000 0.15683  0.04843  0.22073  Biso   1.000  H
  H174     1.0000 0.61823  0.44173  0.22073  Biso   1.000  H
  H175     1.0000 0.50983  0.61823  0.44593  Biso   1.000  H
  H176     1.0000 0.04843  0.22493  0.44593  Biso   1.000  H
  H177     1.0000 0.10840  0.82350  0.11260  Biso   1.000  H
  H178     1.0000 0.17650  0.28490  0.11260  Biso   1.000  H
  H179     1.0000 0.71510  0.89160  0.11260  Biso   1.000  H
  H180     1.0000 0.44173  0.15683  0.44593  Biso   1.000  H
  C313     1.0000 0.90815  0.15447  0.95390  Biso   1.000  C
  C314     1.0000 0.84553  0.75368  0.95390  Biso   1.000  C
  C315     1.0000 0.24632  0.09185  0.95390  Biso   1.000  C
  C316     1.0000 0.24148  0.48780  0.28723  Biso   1.000  C
  C317     1.0000 0.17886  0.08701  0.28723  Biso   1.000  C
  C318     1.0000 0.57965  0.42518  0.28723  Biso   1.000  C
  C319     1.0000 0.48780  0.57965  0.37943  Biso   1.000  C
  C320     1.0000 0.08701  0.24148  0.37943  Biso   1.000  C
  C321     1.0000 0.09185  0.84553  0.04610  Biso   1.000  C
  C322     1.0000 0.15447  0.24632  0.04610  Biso   1.000  C
  C323     1.0000 0.75368  0.90815  0.04610  Biso   1.000  C
  C324     1.0000 0.42518  0.17886  0.37943  Biso   1.000  C
  H181     1.0000 0.90540  0.14330  0.89040  Biso   1.000  H
  H182     1.0000 0.85670  0.76210  0.89040  Biso   1.000  H
  H183     1.0000 0.23790  0.09460  0.89040  Biso   1.000  H
  H184     1.0000 0.23873  0.47663  0.22373  Biso   1.000  H
  H185     1.0000 0.19003  0.09543  0.22373  Biso   1.000  H
  H186     1.0000 0.57123  0.42793  0.22373  Biso   1.000  H
  H187     1.0000 0.47663  0.57123  0.44293  Biso   1.000  H
  H188     1.0000 0.09543  0.23873  0.44293  Biso   1.000  H
  H189     1.0000 0.09460  0.85670  0.10960  Biso   1.000  H
  H190     1.0000 0.14330  0.23790  0.10960  Biso   1.000  H
  H191     1.0000 0.76210  0.90540  0.10960  Biso   1.000  H
  H192     1.0000 0.42793  0.19003  0.44293  Biso   1.000  H
  C325     1.0000 0.92106  0.15014  0.05050  Biso   1.000  C
  C326     1.0000 0.84986  0.77092  0.05050  Biso   1.000  C
  C327     1.0000 0.22908  0.07894  0.05050  Biso   1.000  C
  C328     1.0000 0.25439  0.48347  0.38383  Biso   1.000  C
  C329     1.0000 0.18319  0.10425  0.38383  Biso   1.000  C
  C330     1.0000 0.56241  0.41227  0.38383  Biso   1.000  C
  C331     1.0000 0.48347  0.56241  0.28283  Biso   1.000  C
  C332     1.0000 0.10425  0.25439  0.28283  Biso   1.000  C
  C333     1.0000 0.07894  0.84986  0.94950  Biso   1.000  C
  C334     1.0000 0.15014  0.22908  0.94950  Biso   1.000  C
  C335     1.0000 0.77092  0.92106  0.94950  Biso   1.000  C
  C336     1.0000 0.41227  0.18319  0.28283  Biso   1.000  C
  C337     1.0000 0.97932  0.26643  0.23710  Biso   1.000  C
  C338     1.0000 0.73357  0.71289  0.23710  Biso   1.000  C
  C339     1.0000 0.28711  0.02068  0.23710  Biso   1.000  C
  C340     1.0000 0.31265  0.59976  0.57043  Biso   1.000  C
  C341     1.0000 0.06690  0.04622  0.57043  Biso   1.000  C
  C342     1.0000 0.62044  0.35401  0.57043  Biso   1.000  C
  C343     1.0000 0.59976  0.62044  0.09623  Biso   1.000  C
  C344     1.0000 0.04622  0.31265  0.09623  Biso   1.000  C
  C345     1.0000 0.02068  0.73357  0.76290  Biso   1.000  C
  C346     1.0000 0.26643  0.28711  0.76290  Biso   1.000  C
  C347     1.0000 0.71289  0.97932  0.76290  Biso   1.000  C
  C348     1.0000 0.35401  0.06690  0.09623  Biso   1.000  C
  C349     1.0000 0.00840  0.27277  0.23000  Biso   1.000  C
  C350     1.0000 0.72723  0.73563  0.23000  Biso   1.000  C
  C351     1.0000 0.26437  0.99160  0.23000  Biso   1.000  C
  C352     1.0000 0.34173  0.60610  0.56333  Biso   1.000  C
  C353     1.0000 0.06056  0.06896  0.56333  Biso   1.000  C
  C354     1.0000 0.59770  0.32493  0.56333  Biso   1.000  C
  C355     1.0000 0.60610  0.59770  0.10333  Biso   1.000  C
  C356     1.0000 0.06896  0.34173  0.10333  Biso   1.000  C
  C357     1.0000 0.99160  0.72723  0.77000  Biso   1.000  C
  C358     1.0000 0.27277  0.26437  0.77000  Biso   1.000  C
  C359     1.0000 0.73563  0.00840  0.77000  Biso   1.000  C
  C360     1.0000 0.32493  0.06056  0.10333  Biso   1.000  C
  H193     1.0000 0.01670  0.26840  0.28980  Biso   1.000  H
  H194     1.0000 0.73160  0.74830  0.28980  Biso   1.000  H
  H195     1.0000 0.25170  0.98330  0.28980  Biso   1.000  H
  H196     1.0000 0.35003  0.60173  0.62313  Biso   1.000  H
  H197     1.0000 0.06493  0.08163  0.62313  Biso   1.000  H
  H198     1.0000 0.58503  0.31663  0.62313  Biso   1.000  H
  H199     1.0000 0.60173  0.58503  0.04353  Biso   1.000  H
  H200     1.0000 0.08163  0.35003  0.04353  Biso   1.000  H
  H201     1.0000 0.98330  0.73160  0.71020  Biso   1.000  H
  H202     1.0000 0.26840  0.25170  0.71020  Biso   1.000  H
  H203     1.0000 0.74830  0.01670  0.71020  Biso   1.000  H
  H204     1.0000 0.31663  0.06493  0.04353  Biso   1.000  H
  C361     1.0000 0.02410  0.28521  0.13590  Biso   1.000  C
  C362     1.0000 0.71479  0.73889  0.13590  Biso   1.000  C
  C363     1.0000 0.26111  0.97590  0.13590  Biso   1.000  C
  C364     1.0000 0.35743  0.61854  0.46923  Biso   1.000  C
  C365     1.0000 0.04812  0.07222  0.46923  Biso   1.000  C
  C366     1.0000 0.59444  0.30923  0.46923  Biso   1.000  C
  C367     1.0000 0.61854  0.59444  0.19743  Biso   1.000  C
  C368     1.0000 0.07222  0.35743  0.19743  Biso   1.000  C
  C369     1.0000 0.97590  0.71479  0.86410  Biso   1.000  C
  C370     1.0000 0.28521  0.26111  0.86410  Biso   1.000  C
  C371     1.0000 0.73889  0.02410  0.86410  Biso   1.000  C
  C372     1.0000 0.30923  0.04812  0.19743  Biso   1.000  C
  H205     1.0000 0.04310  0.28920  0.13220  Biso   1.000  H
  H206     1.0000 0.71080  0.75390  0.13220  Biso   1.000  H
  H207     1.0000 0.24610  0.95690  0.13220  Biso   1.000  H
  H208     1.0000 0.37643  0.62253  0.46553  Biso   1.000  H
  H209     1.0000 0.04413  0.08723  0.46553  Biso   1.000  H
  H210     1.0000 0.57943  0.29023  0.46553  Biso   1.000  H
  H211     1.0000 0.62253  0.57943  0.20113  Biso   1.000  H
  H212     1.0000 0.08723  0.37643  0.20113  Biso   1.000  H
  H213     1.0000 0.95690  0.71080  0.86780  Biso   1.000  H
  H214     1.0000 0.28920  0.24610  0.86780  Biso   1.000  H
  H215     1.0000 0.75390  0.04310  0.86780  Biso   1.000  H
  H216     1.0000 0.29023  0.04413  0.20113  Biso   1.000  H
  C373     1.0000 0.01231  0.29212  0.04470  Biso   1.000  C
  C374     1.0000 0.70788  0.72019  0.04470  Biso   1.000  C
  C375     1.0000 0.27981  0.98769  0.04470  Biso   1.000  C
  C376     1.0000 0.34564  0.62545  0.37803  Biso   1.000  C
  C377     1.0000 0.04121  0.05352  0.37803  Biso   1.000  C
  C378     1.0000 0.61314  0.32102  0.37803  Biso   1.000  C
  C379     1.0000 0.62545  0.61314  0.28863  Biso   1.000  C
  C380     1.0000 0.05352  0.34564  0.28863  Biso   1.000  C
  C381     1.0000 0.98769  0.70788  0.95530  Biso   1.000  C
  C382     1.0000 0.29212  0.27981  0.95530  Biso   1.000  C
  C383     1.0000 0.72019  0.01231  0.95530  Biso   1.000  C
  C384     1.0000 0.32102  0.04121  0.28863  Biso   1.000  C
  H217     1.0000 0.02330  0.30010  0.98040  Biso   1.000  H
  H218     1.0000 0.69990  0.72320  0.98040  Biso   1.000  H
  H219     1.0000 0.27680  0.97670  0.98040  Biso   1.000  H
  H220     1.0000 0.35663  0.63343  0.31373  Biso   1.000  H
  H221     1.0000 0.03323  0.05653  0.31373  Biso   1.000  H
  H222     1.0000 0.61013  0.31003  0.31373  Biso   1.000  H
  H223     1.0000 0.63343  0.61013  0.35293  Biso   1.000  H
  H224     1.0000 0.05653  0.35663  0.35293  Biso   1.000  H
  H225     1.0000 0.97670  0.69990  0.01960  Biso   1.000  H
  H226     1.0000 0.30010  0.27680  0.01960  Biso   1.000  H
  H227     1.0000 0.72320  0.02330  0.01960  Biso   1.000  H
  H228     1.0000 0.31003  0.03323  0.35293  Biso   1.000  H
  C385     1.0000 0.98529  0.28727  0.04950  Biso   1.000  C
  C386     1.0000 0.71273  0.69802  0.04950  Biso   1.000  C
  C387     1.0000 0.30198  0.01471  0.04950  Biso   1.000  C
  C388     1.0000 0.31862  0.62060  0.38283  Biso   1.000  C
  C389     1.0000 0.04606  0.03135  0.38283  Biso   1.000  C
  C390     1.0000 0.63531  0.34804  0.38283  Biso   1.000  C
  C391     1.0000 0.62060  0.63531  0.28383  Biso   1.000  C
  C392     1.0000 0.03135  0.31862  0.28383  Biso   1.000  C
  C393     1.0000 0.01471  0.71273  0.95050  Biso   1.000  C
  C394     1.0000 0.28727  0.30198  0.95050  Biso   1.000  C
  C395     1.0000 0.69802  0.98529  0.95050  Biso   1.000  C
  C396     1.0000 0.34804  0.04606  0.28383  Biso   1.000  C
  H229     1.0000 0.97790  0.29250  0.98890  Biso   1.000  H
  H230     1.0000 0.70750  0.68540  0.98890  Biso   1.000  H
  H231     1.0000 0.31460  0.02210  0.98890  Biso   1.000  H
  H232     1.0000 0.31123  0.62583  0.32223  Biso   1.000  H
  H233     1.0000 0.04083  0.01873  0.32223  Biso   1.000  H
  H234     1.0000 0.64793  0.35543  0.32223  Biso   1.000  H
  H235     1.0000 0.62583  0.64793  0.34443  Biso   1.000  H
  H236     1.0000 0.01873  0.31123  0.34443  Biso   1.000  H
  H237     1.0000 0.02210  0.70750  0.01110  Biso   1.000  H
  H238     1.0000 0.29250  0.31460  0.01110  Biso   1.000  H
  H239     1.0000 0.68540  0.97790  0.01110  Biso   1.000  H
  H240     1.0000 0.35543  0.04083  0.34443  Biso   1.000  H
  C397     1.0000 0.96760  0.27431  0.14510  Biso   1.000  C
  C398     1.0000 0.72569  0.69329  0.14510  Biso   1.000  C
  C399     1.0000 0.30671  0.03240  0.14510  Biso   1.000  C
  C400     1.0000 0.30093  0.60764  0.47843  Biso   1.000  C
  C401     1.0000 0.05902  0.02662  0.47843  Biso   1.000  C
  C402     1.0000 0.64004  0.36573  0.47843  Biso   1.000  C
  C403     1.0000 0.60764  0.64004  0.18823  Biso   1.000  C
  C404     1.0000 0.02662  0.30093  0.18823  Biso   1.000  C
  C405     1.0000 0.03240  0.72569  0.85490  Biso   1.000  C
  C406     1.0000 0.27431  0.30671  0.85490  Biso   1.000  C
  C407     1.0000 0.69329  0.96760  0.85490  Biso   1.000  C
  C408     1.0000 0.36573  0.05902  0.18823  Biso   1.000  C
  C409     1.0000 0.93929  0.26852  0.15270  Biso   1.000  C
  C410     1.0000 0.73148  0.67077  0.15270  Biso   1.000  C
  C411     1.0000 0.32923  0.06071  0.15270  Biso   1.000  C
  C412     1.0000 0.27262  0.60185  0.48603  Biso   1.000  C
  C413     1.0000 0.06481  0.00410  0.48603  Biso   1.000  C
  C414     1.0000 0.66256  0.39404  0.48603  Biso   1.000  C
  C415     1.0000 0.60185  0.66256  0.18063  Biso   1.000  C
  C416     1.0000 0.00410  0.27262  0.18063  Biso   1.000  C
  C417     1.0000 0.06071  0.73148  0.84730  Biso   1.000  C
  C418     1.0000 0.26852  0.32923  0.84730  Biso   1.000  C
  C419     1.0000 0.67077  0.93929  0.84730  Biso   1.000  C
  C420     1.0000 0.39404  0.06481  0.18063  Biso   1.000  C
  C421     1.0000 0.92668  0.27783  0.06010  Biso   1.000  C
  C422     1.0000 0.72217  0.64885  0.06010  Biso   1.000  C
  C423     1.0000 0.35115  0.07332  0.06010  Biso   1.000  C
  C424     1.0000 0.26001  0.61116  0.39343  Biso   1.000  C
  C425     1.0000 0.05550  0.98218  0.39343  Biso   1.000  C
  C426     1.0000 0.68448  0.40665  0.39343  Biso   1.000  C
  C427     1.0000 0.61116  0.68448  0.27323  Biso   1.000  C
  C428     1.0000 0.98218  0.26001  0.27323  Biso   1.000  C
  C429     1.0000 0.07332  0.72217  0.93990  Biso   1.000  C
  C430     1.0000 0.27783  0.35115  0.93990  Biso   1.000  C
  C431     1.0000 0.64885  0.92668  0.93990  Biso   1.000  C
  C432     1.0000 0.40665  0.05550  0.27323  Biso   1.000  C
  C433     1.0000 0.92286  0.25441  0.24740  Biso   1.000  C
  C434     1.0000 0.74559  0.66845  0.24740  Biso   1.000  C
  C435     1.0000 0.33155  0.07714  0.24740  Biso   1.000  C
  C436     1.0000 0.25619  0.58774  0.58073  Biso   1.000  C
  C437     1.0000 0.07892  0.00178  0.58073  Biso   1.000  C
  C438     1.0000 0.66488  0.41047  0.58073  Biso   1.000  C
  C439     1.0000 0.58774  0.66488  0.08593  Biso   1.000  C
  C440     1.0000 0.00178  0.25619  0.08593  Biso   1.000  C
  C441     1.0000 0.07714  0.74559  0.75260  Biso   1.000  C
  C442     1.0000 0.25441  0.33155  0.75260  Biso   1.000  C
  C443     1.0000 0.66845  0.92286  0.75260  Biso   1.000  C
  C444     1.0000 0.41047  0.07892  0.08593  Biso   1.000  C
  C445     1.0000 0.89366  0.24683  0.25840  Biso   1.000  C
  C446     1.0000 0.75317  0.64683  0.25840  Biso   1.000  C
  C447     1.0000 0.35317  0.10634  0.25840  Biso   1.000  C
  C448     1.0000 0.22699  0.58016  0.59173  Biso   1.000  C
  C449     1.0000 0.08650  0.98016  0.59173  Biso   1.000  C
  C450     1.0000 0.68650  0.43967  0.59173  Biso   1.000  C
  C451     1.0000 0.58016  0.68650  0.07493  Biso   1.000  C
  C452     1.0000 0.98016  0.22699  0.07493  Biso   1.000  C
  C453     1.0000 0.10634  0.75317  0.74160  Biso   1.000  C
  C454     1.0000 0.24683  0.35317  0.74160  Biso   1.000  C
  C455     1.0000 0.64683  0.89366  0.74160  Biso   1.000  C
  C456     1.0000 0.43967  0.08650  0.07493  Biso   1.000  C
  H241     1.0000 0.88490  0.25140  0.20120  Biso   1.000  H
  H242     1.0000 0.74860  0.63350  0.20120  Biso   1.000  H
  H243     1.0000 0.36650  0.11510  0.20120  Biso   1.000  H
  H244     1.0000 0.21823  0.58473  0.53453  Biso   1.000  H
  H245     1.0000 0.08193  0.96683  0.53453  Biso   1.000  H
  H246     1.0000 0.69983  0.44843  0.53453  Biso   1.000  H
  H247     1.0000 0.58473  0.69983  0.13213  Biso   1.000  H
  H248     1.0000 0.96683  0.21823  0.13213  Biso   1.000  H
  H249     1.0000 0.11510  0.74860  0.79880  Biso   1.000  H
  H250     1.0000 0.25140  0.36650  0.79880  Biso   1.000  H
  H251     1.0000 0.63350  0.88490  0.79880  Biso   1.000  H
  H252     1.0000 0.44843  0.08193  0.13213  Biso   1.000  H
  C457     1.0000 0.87833  0.23299  0.35080  Biso   1.000  C
  C458     1.0000 0.76701  0.64534  0.35080  Biso   1.000  C
  C459     1.0000 0.35466  0.12167  0.35080  Biso   1.000  C
  C460     1.0000 0.21166  0.56632  0.68413  Biso   1.000  C
  C461     1.0000 0.10034  0.97867  0.68413  Biso   1.000  C
  C462     1.0000 0.68799  0.45500  0.68413  Biso   1.000  C
  C463     1.0000 0.56632  0.68799  0.98253  Biso   1.000  C
  C464     1.0000 0.97867  0.21166  0.98253  Biso   1.000  C
  C465     1.0000 0.12167  0.76701  0.64920  Biso   1.000  C
  C466     1.0000 0.23299  0.35466  0.64920  Biso   1.000  C
  C467     1.0000 0.64534  0.87833  0.64920  Biso   1.000  C
  C468     1.0000 0.45500  0.10034  0.98253  Biso   1.000  C
  H253     1.0000 0.85910  0.22800  0.35630  Biso   1.000  H
  H254     1.0000 0.77200  0.63110  0.35630  Biso   1.000  H
  H255     1.0000 0.36890  0.14090  0.35630  Biso   1.000  H
  H256     1.0000 0.19243  0.56133  0.68963  Biso   1.000  H
  H257     1.0000 0.10533  0.96443  0.68963  Biso   1.000  H
  H258     1.0000 0.70223  0.47423  0.68963  Biso   1.000  H
  H259     1.0000 0.56133  0.70223  0.97703  Biso   1.000  H
  H260     1.0000 0.96443  0.19243  0.97703  Biso   1.000  H
  H261     1.0000 0.14090  0.77200  0.64370  Biso   1.000  H
  H262     1.0000 0.22800  0.36890  0.64370  Biso   1.000  H
  H263     1.0000 0.63110  0.85910  0.64370  Biso   1.000  H
  H264     1.0000 0.47423  0.10533  0.97703  Biso   1.000  H
  C469     1.0000 0.89155  0.22615  0.43900  Biso   1.000  C
  C470     1.0000 0.77385  0.66540  0.43900  Biso   1.000  C
  C471     1.0000 0.33460  0.10845  0.43900  Biso   1.000  C
  C472     1.0000 0.22488  0.55948  0.77233  Biso   1.000  C
  C473     1.0000 0.10718  0.99873  0.77233  Biso   1.000  C
  C474     1.0000 0.66793  0.44178  0.77233  Biso   1.000  C
  C475     1.0000 0.55948  0.66793  0.89433  Biso   1.000  C
  C476     1.0000 0.99873  0.22488  0.89433  Biso   1.000  C
  C477     1.0000 0.10845  0.77385  0.56100  Biso   1.000  C
  C478     1.0000 0.22615  0.33460  0.56100  Biso   1.000  C
  C479     1.0000 0.66540  0.89155  0.56100  Biso   1.000  C
  C480     1.0000 0.44178  0.10718  0.89433  Biso   1.000  C
  H265     1.0000 0.88100  0.21700  0.50300  Biso   1.000  H
  H266     1.0000 0.78300  0.66400  0.50300  Biso   1.000  H
  H267     1.0000 0.33600  0.11900  0.50300  Biso   1.000  H
  H268     1.0000 0.21433  0.55033  0.83633  Biso   1.000  H
  H269     1.0000 0.11633  0.99733  0.83633  Biso   1.000  H
  H270     1.0000 0.66933  0.45233  0.83633  Biso   1.000  H
  H271     1.0000 0.55033  0.66933  0.83033  Biso   1.000  H
  H272     1.0000 0.99733  0.21433  0.83033  Biso   1.000  H
  H273     1.0000 0.11900  0.78300  0.49700  Biso   1.000  H
  H274     1.0000 0.21700  0.33600  0.49700  Biso   1.000  H
  H275     1.0000 0.66400  0.88100  0.49700  Biso   1.000  H
  H276     1.0000 0.45233  0.11633  0.83033  Biso   1.000  H
  C481     1.0000 0.91928  0.23268  0.43150  Biso   1.000  C
  C482     1.0000 0.76732  0.68660  0.43150  Biso   1.000  C
  C483     1.0000 0.31340  0.08072  0.43150  Biso   1.000  C
  C484     1.0000 0.25261  0.56601  0.76483  Biso   1.000  C
  C485     1.0000 0.10065  0.01993  0.76483  Biso   1.000  C
  C486     1.0000 0.64673  0.41405  0.76483  Biso   1.000  C
  C487     1.0000 0.56601  0.64673  0.90183  Biso   1.000  C
  C488     1.0000 0.01993  0.25261  0.90183  Biso   1.000  C
  C489     1.0000 0.08072  0.76732  0.56850  Biso   1.000  C
  C490     1.0000 0.23268  0.31340  0.56850  Biso   1.000  C
  C491     1.0000 0.68660  0.91928  0.56850  Biso   1.000  C
  C492     1.0000 0.41405  0.10065  0.90183  Biso   1.000  C
  H277     1.0000 0.92750  0.22770  0.48970  Biso   1.000  H
  H278     1.0000 0.77230  0.69980  0.48970  Biso   1.000  H
  H279     1.0000 0.30020  0.07250  0.48970  Biso   1.000  H
  H280     1.0000 0.26083  0.56103  0.82303  Biso   1.000  H
  H281     1.0000 0.10563  0.03313  0.82303  Biso   1.000  H
  H282     1.0000 0.63353  0.40583  0.82303  Biso   1.000  H
  H283     1.0000 0.56103  0.63353  0.84363  Biso   1.000  H
  H284     1.0000 0.03313  0.26083  0.84363  Biso   1.000  H
  H285     1.0000 0.07250  0.77230  0.51030  Biso   1.000  H
  H286     1.0000 0.22770  0.30020  0.51030  Biso   1.000  H
  H287     1.0000 0.69980  0.92750  0.51030  Biso   1.000  H
  H288     1.0000 0.40583  0.10563  0.84363  Biso   1.000  H
  C493     1.0000 0.93593  0.24702  0.33550  Biso   1.000  C
  C494     1.0000 0.75298  0.68891  0.33550  Biso   1.000  C
  C495     1.0000 0.31109  0.06407  0.33550  Biso   1.000  C
  C496     1.0000 0.26926  0.58035  0.66883  Biso   1.000  C
  C497     1.0000 0.08631  0.02224  0.66883  Biso   1.000  C
  C498     1.0000 0.64442  0.39740  0.66883  Biso   1.000  C
  C499     1.0000 0.58035  0.64442  0.99783  Biso   1.000  C
  C500     1.0000 0.02224  0.26926  0.99783  Biso   1.000  C
  C501     1.0000 0.06407  0.75298  0.66450  Biso   1.000  C
  C502     1.0000 0.24702  0.31109  0.66450  Biso   1.000  C
  C503     1.0000 0.68891  0.93593  0.66450  Biso   1.000  C
  C504     1.0000 0.39740  0.08631  0.99783  Biso   1.000  C
  C505     1.0000 0.81223  0.06491  0.27050  Biso   1.000  C
  C506     1.0000 0.93509  0.74732  0.27050  Biso   1.000  C
  C507     1.0000 0.25268  0.18777  0.27050  Biso   1.000  C
  C508     1.0000 0.14556  0.39824  0.60383  Biso   1.000  C
  C509     1.0000 0.26842  0.08065  0.60383  Biso   1.000  C
  C510     1.0000 0.58601  0.52110  0.60383  Biso   1.000  C
  C511     1.0000 0.39824  0.58601  0.06283  Biso   1.000  C
  C512     1.0000 0.08065  0.14556  0.06283  Biso   1.000  C
  C513     1.0000 0.18777  0.93509  0.72950  Biso   1.000  C
  C514     1.0000 0.06491  0.25268  0.72950  Biso   1.000  C
  C515     1.0000 0.74732  0.81223  0.72950  Biso   1.000  C
  C516     1.0000 0.52110  0.26842  0.06283  Biso   1.000  C
  C517     1.0000 0.81414  0.07936  0.37270  Biso   1.000  C
  C518     1.0000 0.92064  0.73478  0.37270  Biso   1.000  C
  C519     1.0000 0.26522  0.18586  0.37270  Biso   1.000  C
  C520     1.0000 0.14747  0.41269  0.70603  Biso   1.000  C
  C521     1.0000 0.25397  0.06811  0.70603  Biso   1.000  C
  C522     1.0000 0.59855  0.51919  0.70603  Biso   1.000  C
  C523     1.0000 0.41269  0.59855  0.96063  Biso   1.000  C
  C524     1.0000 0.06811  0.14747  0.96063  Biso   1.000  C
  C525     1.0000 0.18586  0.92064  0.62730  Biso   1.000  C
  C526     1.0000 0.07936  0.26522  0.62730  Biso   1.000  C
  C527     1.0000 0.73478  0.81414  0.62730  Biso   1.000  C
  C528     1.0000 0.51919  0.25397  0.96063  Biso   1.000  C
  H289     1.0000 0.80090  0.06950  0.42930  Biso   1.000  H
  H290     1.0000 0.93050  0.73140  0.42930  Biso   1.000  H
  H291     1.0000 0.26860  0.19910  0.42930  Biso   1.000  H
  H292     1.0000 0.13423  0.40283  0.76263  Biso   1.000  H
  H293     1.0000 0.26383  0.06473  0.76263  Biso   1.000  H
  H294     1.0000 0.60193  0.53243  0.76263  Biso   1.000  H
  H295     1.0000 0.40283  0.60193  0.90403  Biso   1.000  H
  H296     1.0000 0.06473  0.13423  0.90403  Biso   1.000  H
  H297     1.0000 0.19910  0.93050  0.57070  Biso   1.000  H
  H298     1.0000 0.06950  0.26860  0.57070  Biso   1.000  H
  H299     1.0000 0.73140  0.80090  0.57070  Biso   1.000  H
  H300     1.0000 0.53243  0.26383  0.90403  Biso   1.000  H
  C529     1.0000 0.83470  0.10693  0.38970  Biso   1.000  C
  C530     1.0000 0.89307  0.72777  0.38970  Biso   1.000  C
  C531     1.0000 0.27223  0.16530  0.38970  Biso   1.000  C
  C532     1.0000 0.16803  0.44026  0.72303  Biso   1.000  C
  C533     1.0000 0.22640  0.06110  0.72303  Biso   1.000  C
  C534     1.0000 0.60556  0.49863  0.72303  Biso   1.000  C
  C535     1.0000 0.44026  0.60556  0.94363  Biso   1.000  C
  C536     1.0000 0.06110  0.16803  0.94363  Biso   1.000  C
  C537     1.0000 0.16530  0.89307  0.61030  Biso   1.000  C
  C538     1.0000 0.10693  0.27223  0.61030  Biso   1.000  C
  C539     1.0000 0.72777  0.83470  0.61030  Biso   1.000  C
  C540     1.0000 0.49863  0.22640  0.94363  Biso   1.000  C
  H301     1.0000 0.83520  0.11600  0.45680  Biso   1.000  H
  H302     1.0000 0.88400  0.71920  0.45680  Biso   1.000  H
  H303     1.0000 0.28080  0.16480  0.45680  Biso   1.000  H
  H304     1.0000 0.16853  0.44933  0.79013  Biso   1.000  H
  H305     1.0000 0.21733  0.05253  0.79013  Biso   1.000  H
  H306     1.0000 0.61413  0.49813  0.79013  Biso   1.000  H
  H307     1.0000 0.44933  0.61413  0.87653  Biso   1.000  H
  H308     1.0000 0.05253  0.16853  0.87653  Biso   1.000  H
  H309     1.0000 0.16480  0.88400  0.54320  Biso   1.000  H
  H310     1.0000 0.11600  0.28080  0.54320  Biso   1.000  H
  H311     1.0000 0.71920  0.83520  0.54320  Biso   1.000  H
  H312     1.0000 0.49813  0.21733  0.87653  Biso   1.000  H
  C541     1.0000 0.85567  0.12228  0.30580  Biso   1.000  C
  C542     1.0000 0.87772  0.73339  0.30580  Biso   1.000  C
  C543     1.0000 0.26661  0.14433  0.30580  Biso   1.000  C
  C544     1.0000 0.18900  0.45561  0.63913  Biso   1.000  C
  C545     1.0000 0.21105  0.06672  0.63913  Biso   1.000  C
  C546     1.0000 0.59994  0.47766  0.63913  Biso   1.000  C
  C547     1.0000 0.45561  0.59994  0.02753  Biso   1.000  C
  C548     1.0000 0.06672  0.18900  0.02753  Biso   1.000  C
  C549     1.0000 0.14433  0.87772  0.69420  Biso   1.000  C
  C550     1.0000 0.12228  0.26661  0.69420  Biso   1.000  C
  C551     1.0000 0.73339  0.85567  0.69420  Biso   1.000  C
  C552     1.0000 0.47766  0.21105  0.02753  Biso   1.000  C
  H313     1.0000 0.86970  0.14130  0.31790  Biso   1.000  H
  H314     1.0000 0.85870  0.72840  0.31790  Biso   1.000  H
  H315     1.0000 0.27160  0.13030  0.31790  Biso   1.000  H
  H316     1.0000 0.20303  0.47463  0.65123  Biso   1.000  H
  H317     1.0000 0.19203  0.06173  0.65123  Biso   1.000  H
  H318     1.0000 0.60493  0.46363  0.65123  Biso   1.000  H
  H319     1.0000 0.47463  0.60493  0.01543  Biso   1.000  H
  H320     1.0000 0.06173  0.20303  0.01543  Biso   1.000  H
  H321     1.0000 0.13030  0.85870  0.68210  Biso   1.000  H
  H322     1.0000 0.14130  0.27160  0.68210  Biso   1.000  H
  H323     1.0000 0.72840  0.86970  0.68210  Biso   1.000  H
  H324     1.0000 0.46363  0.19203  0.01543  Biso   1.000  H
  C553     1.0000 0.85519  0.10918  0.20820  Biso   1.000  C
  C554     1.0000 0.89082  0.74601  0.20820  Biso   1.000  C
  C555     1.0000 0.25399  0.14481  0.20820  Biso   1.000  C
  C556     1.0000 0.18852  0.44251  0.54153  Biso   1.000  C
  C557     1.0000 0.22415  0.07934  0.54153  Biso   1.000  C
  C558     1.0000 0.58732  0.47814  0.54153  Biso   1.000  C
  C559     1.0000 0.44251  0.58732  0.12513  Biso   1.000  C
  C560     1.0000 0.07934  0.18852  0.12513  Biso   1.000  C
  C561     1.0000 0.14481  0.89082  0.79180  Biso   1.000  C
  C562     1.0000 0.10918  0.25399  0.79180  Biso   1.000  C
  C563     1.0000 0.74601  0.85519  0.79180  Biso   1.000  C
  C564     1.0000 0.47814  0.22415  0.12513  Biso   1.000  C
  H325     1.0000 0.86900  0.11940  0.15380  Biso   1.000  H
  H326     1.0000 0.88060  0.74960  0.15380  Biso   1.000  H
  H327     1.0000 0.25040  0.13100  0.15380  Biso   1.000  H
  H328     1.0000 0.20233  0.45273  0.48713  Biso   1.000  H
  H329     1.0000 0.21393  0.08293  0.48713  Biso   1.000  H
  H330     1.0000 0.58373  0.46433  0.48713  Biso   1.000  H
  H331     1.0000 0.45273  0.58373  0.17953  Biso   1.000  H
  H332     1.0000 0.08293  0.20233  0.17953  Biso   1.000  H
  H333     1.0000 0.13100  0.88060  0.84620  Biso   1.000  H
  H334     1.0000 0.11940  0.25040  0.84620  Biso   1.000  H
  H335     1.0000 0.74960  0.86900  0.84620  Biso   1.000  H
  H336     1.0000 0.46433  0.21393  0.17953  Biso   1.000  H
  C565     1.0000 0.83384  0.08010  0.18760  Biso   1.000  C
  C566     1.0000 0.91990  0.75374  0.18760  Biso   1.000  C
  C567     1.0000 0.24626  0.16616  0.18760  Biso   1.000  C
  C568     1.0000 0.16717  0.41343  0.52093  Biso   1.000  C
  C569     1.0000 0.25323  0.08707  0.52093  Biso   1.000  C
  C570     1.0000 0.57959  0.49949  0.52093  Biso   1.000  C
  C571     1.0000 0.41343  0.57959  0.14573  Biso   1.000  C
  C572     1.0000 0.08707  0.16717  0.14573  Biso   1.000  C
  C573     1.0000 0.16616  0.91990  0.81240  Biso   1.000  C
  C574     1.0000 0.08010  0.24626  0.81240  Biso   1.000  C
  C575     1.0000 0.75374  0.83384  0.81240  Biso   1.000  C
  C576     1.0000 0.49949  0.25323  0.14573  Biso   1.000  C
  C577     1.0000 0.83270  0.06568  0.08830  Biso   1.000  C
  C578     1.0000 0.93432  0.76702  0.08830  Biso   1.000  C
  C579     1.0000 0.23298  0.16730  0.08830  Biso   1.000  C
  C580     1.0000 0.16603  0.39901  0.42163  Biso   1.000  C
  C581     1.0000 0.26765  0.10035  0.42163  Biso   1.000  C
  C582     1.0000 0.56631  0.50063  0.42163  Biso   1.000  C
  C583     1.0000 0.39901  0.56631  0.24503  Biso   1.000  C
  C584     1.0000 0.10035  0.16603  0.24503  Biso   1.000  C
  C585     1.0000 0.16730  0.93432  0.91170  Biso   1.000  C
  C586     1.0000 0.06568  0.23298  0.91170  Biso   1.000  C
  C587     1.0000 0.76702  0.83270  0.91170  Biso   1.000  C
  C588     1.0000 0.50063  0.26765  0.24503  Biso   1.000  C
  C589     1.0000 0.85623  0.07997  0.00150  Biso   1.000  C
  C590     1.0000 0.92003  0.77626  0.00150  Biso   1.000  C
  C591     1.0000 0.22374  0.14377  0.00150  Biso   1.000  C
  C592     1.0000 0.18956  0.41330  0.33483  Biso   1.000  C
  C593     1.0000 0.25336  0.10959  0.33483  Biso   1.000  C
  C594     1.0000 0.55707  0.47710  0.33483  Biso   1.000  C
  C595     1.0000 0.41330  0.55707  0.33183  Biso   1.000  C
  C596     1.0000 0.10959  0.18956  0.33183  Biso   1.000  C
  C597     1.0000 0.14377  0.92003  0.99850  Biso   1.000  C
  C598     1.0000 0.07997  0.22374  0.99850  Biso   1.000  C
  C599     1.0000 0.77626  0.85623  0.99850  Biso   1.000  C
  C600     1.0000 0.47710  0.25336  0.33183  Biso   1.000  C
  C601     1.0000 0.80992  0.03772  0.06920  Biso   1.000  C
  C602     1.0000 0.96228  0.77220  0.06920  Biso   1.000  C
  C603     1.0000 0.22780  0.19008  0.06920  Biso   1.000  C
  C604     1.0000 0.14325  0.37105  0.40253  Biso   1.000  C
  C605     1.0000 0.29561  0.10553  0.40253  Biso   1.000  C
  C606     1.0000 0.56113  0.52341  0.40253  Biso   1.000  C
  C607     1.0000 0.37105  0.56113  0.26413  Biso   1.000  C
  C608     1.0000 0.10553  0.14325  0.26413  Biso   1.000  C
  C609     1.0000 0.19008  0.96228  0.93080  Biso   1.000  C
  C610     1.0000 0.03772  0.22780  0.93080  Biso   1.000  C
  C611     1.0000 0.77220  0.80992  0.93080  Biso   1.000  C
  C612     1.0000 0.52341  0.29561  0.26413  Biso   1.000  C
  C613     1.0000 0.80640  0.02246  0.96710  Biso   1.000  C
  C614     1.0000 0.97754  0.78394  0.96710  Biso   1.000  C
  C615     1.0000 0.21606  0.19360  0.96710  Biso   1.000  C
  C616     1.0000 0.13973  0.35579  0.30043  Biso   1.000  C
  C617     1.0000 0.31087  0.11727  0.30043  Biso   1.000  C
  C618     1.0000 0.54939  0.52693  0.30043  Biso   1.000  C
  C619     1.0000 0.35579  0.54939  0.36623  Biso   1.000  C
  C620     1.0000 0.11727  0.13973  0.36623  Biso   1.000  C
  C621     1.0000 0.19360  0.97754  0.03290  Biso   1.000  C
  C622     1.0000 0.02246  0.21606  0.03290  Biso   1.000  C
  C623     1.0000 0.78394  0.80640  0.03290  Biso   1.000  C
  C624     1.0000 0.52693  0.31087  0.36623  Biso   1.000  C
  H337     1.0000 0.81990  0.03090  0.91010  Biso   1.000  H
  H338     1.0000 0.96910  0.78900  0.91010  Biso   1.000  H
  H339     1.0000 0.21100  0.18010  0.91010  Biso   1.000  H
  H340     1.0000 0.15323  0.36423  0.24343  Biso   1.000  H
  H341     1.0000 0.30243  0.12233  0.24343  Biso   1.000  H
  H342     1.0000 0.54433  0.51343  0.24343  Biso   1.000  H
  H343     1.0000 0.36423  0.54433  0.42323  Biso   1.000  H
  H344     1.0000 0.12233  0.15323  0.42323  Biso   1.000  H
  H345     1.0000 0.18010  0.96910  0.08990  Biso   1.000  H
  H346     1.0000 0.03090  0.21100  0.08990  Biso   1.000  H
  H347     1.0000 0.78900  0.81990  0.08990  Biso   1.000  H
  H348     1.0000 0.51343  0.30243  0.42323  Biso   1.000  H
  C625     1.0000 0.78374  0.99604  0.95280  Biso   1.000  C
  C626     1.0000 0.00396  0.78770  0.95280  Biso   1.000  C
  C627     1.0000 0.21230  0.21626  0.95280  Biso   1.000  C
  C628     1.0000 0.11707  0.32937  0.28613  Biso   1.000  C
  C629     1.0000 0.33729  0.12103  0.28613  Biso   1.000  C
  C630     1.0000 0.54563  0.54959  0.28613  Biso   1.000  C
  C631     1.0000 0.32937  0.54563  0.38053  Biso   1.000  C
  C632     1.0000 0.12103  0.11707  0.38053  Biso   1.000  C
  C633     1.0000 0.21626  0.00396  0.04720  Biso   1.000  C
  C634     1.0000 0.99604  0.21230  0.04720  Biso   1.000  C
  C635     1.0000 0.78770  0.78374  0.04720  Biso   1.000  C
  C636     1.0000 0.54959  0.33729  0.38053  Biso   1.000  C
  H349     1.0000 0.78140  0.98660  0.88490  Biso   1.000  H
  H350     1.0000 0.01340  0.79480  0.88490  Biso   1.000  H
  H351     1.0000 0.20520  0.21860  0.88490  Biso   1.000  H
  H352     1.0000 0.11473  0.31993  0.21823  Biso   1.000  H
  H353     1.0000 0.34673  0.12813  0.21823  Biso   1.000  H
  H354     1.0000 0.53853  0.55193  0.21823  Biso   1.000  H
  H355     1.0000 0.31993  0.53853  0.44843  Biso   1.000  H
  H356     1.0000 0.12813  0.11473  0.44843  Biso   1.000  H
  H357     1.0000 0.21860  0.01340  0.11510  Biso   1.000  H
  H358     1.0000 0.98660  0.20520  0.11510  Biso   1.000  H
  H359     1.0000 0.79480  0.78140  0.11510  Biso   1.000  H
  H360     1.0000 0.55193  0.34673  0.44843  Biso   1.000  H
  C637     1.0000 0.76349  0.98239  0.03810  Biso   1.000  C
  C638     1.0000 0.01761  0.78110  0.03810  Biso   1.000  C
  C639     1.0000 0.21890  0.23651  0.03810  Biso   1.000  C
  C640     1.0000 0.09682  0.31572  0.37143  Biso   1.000  C
  C641     1.0000 0.35094  0.11443  0.37143  Biso   1.000  C
  C642     1.0000 0.55223  0.56984  0.37143  Biso   1.000  C
  C643     1.0000 0.31572  0.55223  0.29523  Biso   1.000  C
  C644     1.0000 0.11443  0.09682  0.29523  Biso   1.000  C
  C645     1.0000 0.23651  0.01761  0.96190  Biso   1.000  C
  C646     1.0000 0.98239  0.21890  0.96190  Biso   1.000  C
  C647     1.0000 0.78110  0.76349  0.96190  Biso   1.000  C
  C648     1.0000 0.56984  0.35094  0.29523  Biso   1.000  C
  H361     1.0000 0.74820  0.96390  0.02680  Biso   1.000  H
  H362     1.0000 0.03610  0.78430  0.02680  Biso   1.000  H
  H363     1.0000 0.21570  0.25180  0.02680  Biso   1.000  H
  H364     1.0000 0.08153  0.29723  0.36013  Biso   1.000  H
  H365     1.0000 0.36943  0.11763  0.36013  Biso   1.000  H
  H366     1.0000 0.54903  0.58513  0.36013  Biso   1.000  H
  H367     1.0000 0.29723  0.54903  0.30653  Biso   1.000  H
  H368     1.0000 0.11763  0.08153  0.30653  Biso   1.000  H
  H369     1.0000 0.25180  0.03610  0.97320  Biso   1.000  H
  H370     1.0000 0.96390  0.21570  0.97320  Biso   1.000  H
  H371     1.0000 0.78430  0.74820  0.97320  Biso   1.000  H
  H372     1.0000 0.58513  0.36943  0.30653  Biso   1.000  H
  C649     1.0000 0.76600  0.99586  0.13660  Biso   1.000  C
  C650     1.0000 0.00414  0.77014  0.13660  Biso   1.000  C
  C651     1.0000 0.22986  0.23400  0.13660  Biso   1.000  C
  C652     1.0000 0.09933  0.32919  0.46993  Biso   1.000  C
  C653     1.0000 0.33747  0.10347  0.46993  Biso   1.000  C
  C654     1.0000 0.56319  0.56733  0.46993  Biso   1.000  C
  C655     1.0000 0.32919  0.56319  0.19673  Biso   1.000  C
  C656     1.0000 0.10347  0.09933  0.19673  Biso   1.000  C
  C657     1.0000 0.23400  0.00414  0.86340  Biso   1.000  C
  C658     1.0000 0.99586  0.22986  0.86340  Biso   1.000  C
  C659     1.0000 0.77014  0.76600  0.86340  Biso   1.000  C
  C660     1.0000 0.56733  0.33747  0.19673  Biso   1.000  C
  H373     1.0000 0.75240  0.98640  0.19280  Biso   1.000  H
  H374     1.0000 0.01360  0.76600  0.19280  Biso   1.000  H
  H375     1.0000 0.23400  0.24760  0.19280  Biso   1.000  H
  H376     1.0000 0.08573  0.31973  0.52613  Biso   1.000  H
  H377     1.0000 0.34693  0.09933  0.52613  Biso   1.000  H
  H378     1.0000 0.56733  0.58093  0.52613  Biso   1.000  H
  H379     1.0000 0.31973  0.56733  0.14053  Biso   1.000  H
  H380     1.0000 0.09933  0.08573  0.14053  Biso   1.000  H
  H381     1.0000 0.24760  0.01360  0.80720  Biso   1.000  H
  H382     1.0000 0.98640  0.23400  0.80720  Biso   1.000  H
  H383     1.0000 0.76600  0.75240  0.80720  Biso   1.000  H
  H384     1.0000 0.58093  0.34693  0.14053  Biso   1.000  H
  C661     1.0000 0.78884  0.02408  0.15580  Biso   1.000  C
  C662     1.0000 0.97592  0.76476  0.15580  Biso   1.000  C
  C663     1.0000 0.23524  0.21116  0.15580  Biso   1.000  C
  C664     1.0000 0.12217  0.35741  0.48913  Biso   1.000  C
  C665     1.0000 0.30925  0.09809  0.48913  Biso   1.000  C
  C666     1.0000 0.56857  0.54449  0.48913  Biso   1.000  C
  C667     1.0000 0.35741  0.56857  0.17753  Biso   1.000  C
  C668     1.0000 0.09809  0.12217  0.17753  Biso   1.000  C
  C669     1.0000 0.21116  0.97592  0.84420  Biso   1.000  C
  C670     1.0000 0.02408  0.23524  0.84420  Biso   1.000  C
  C671     1.0000 0.76476  0.78884  0.84420  Biso   1.000  C
  C672     1.0000 0.54449  0.30925  0.17753  Biso   1.000  C
  C673     1.0000 0.87913  0.04073  0.82470  Biso   1.000  C
  C674     1.0000 0.95927  0.83840  0.82470  Biso   1.000  C
  C675     1.0000 0.16160  0.12087  0.82470  Biso   1.000  C
  C676     1.0000 0.21246  0.37406  0.15803  Biso   1.000  C
  C677     1.0000 0.29260  0.17173  0.15803  Biso   1.000  C
  C678     1.0000 0.49493  0.45420  0.15803  Biso   1.000  C
  C679     1.0000 0.37406  0.49493  0.50863  Biso   1.000  C
  C680     1.0000 0.17173  0.21246  0.50863  Biso   1.000  C
  C681     1.0000 0.12087  0.95927  0.17530  Biso   1.000  C
  C682     1.0000 0.04073  0.16160  0.17530  Biso   1.000  C
  C683     1.0000 0.83840  0.87913  0.17530  Biso   1.000  C
  C684     1.0000 0.45420  0.29260  0.50863  Biso   1.000  C
  H385     1.0000 0.88410  0.02630  0.80590  Biso   1.000  H
  H386     1.0000 0.97370  0.85780  0.80590  Biso   1.000  H
  H387     1.0000 0.14220  0.11590  0.80590  Biso   1.000  H
  H388     1.0000 0.21743  0.35963  0.13923  Biso   1.000  H
  H389     1.0000 0.30703  0.19113  0.13923  Biso   1.000  H
  H390     1.0000 0.47553  0.44923  0.13923  Biso   1.000  H
  H391     1.0000 0.35963  0.47553  0.52743  Biso   1.000  H
  H392     1.0000 0.19113  0.21743  0.52743  Biso   1.000  H
  H393     1.0000 0.11590  0.97370  0.19410  Biso   1.000  H
  H394     1.0000 0.02630  0.14220  0.19410  Biso   1.000  H
  H395     1.0000 0.85780  0.88410  0.19410  Biso   1.000  H
  H396     1.0000 0.44923  0.30703  0.52743  Biso   1.000  H
  H397     1.0000 0.86650  0.04110  0.76840  Biso   1.000  H
  H398     1.0000 0.95890  0.82540  0.76840  Biso   1.000  H
  H399     1.0000 0.17460  0.13350  0.76840  Biso   1.000  H
  H400     1.0000 0.19983  0.37443  0.10173  Biso   1.000  H
  H401     1.0000 0.29223  0.15873  0.10173  Biso   1.000  H
  H402     1.0000 0.50793  0.46683  0.10173  Biso   1.000  H
  H403     1.0000 0.37443  0.50793  0.56493  Biso   1.000  H
  H404     1.0000 0.15873  0.19983  0.56493  Biso   1.000  H
  H405     1.0000 0.13350  0.95890  0.23160  Biso   1.000  H
  H406     1.0000 0.04110  0.17460  0.23160  Biso   1.000  H
  H407     1.0000 0.82540  0.86650  0.23160  Biso   1.000  H
  H408     1.0000 0.46683  0.29223  0.56493  Biso   1.000  H
  H409     1.0000 0.86960  0.03630  0.89620  Biso   1.000  H
  H410     1.0000 0.96370  0.83330  0.89620  Biso   1.000  H
  H411     1.0000 0.16670  0.13040  0.89620  Biso   1.000  H
  H412     1.0000 0.20293  0.36963  0.22953  Biso   1.000  H
  H413     1.0000 0.29703  0.16663  0.22953  Biso   1.000  H
  H414     1.0000 0.50003  0.46373  0.22953  Biso   1.000  H
  H415     1.0000 0.36963  0.50003  0.43713  Biso   1.000  H
  H416     1.0000 0.16663  0.20293  0.43713  Biso   1.000  H
  H417     1.0000 0.13040  0.96370  0.10380  Biso   1.000  H
  H418     1.0000 0.03630  0.16670  0.10380  Biso   1.000  H
  H419     1.0000 0.83330  0.86960  0.10380  Biso   1.000  H
  H420     1.0000 0.46373  0.29703  0.43713  Biso   1.000  H
  C685     1.0000 0.97107  0.14120  0.84540  Biso   1.000  C
  C686     1.0000 0.85880  0.82987  0.84540  Biso   1.000  C
  C687     1.0000 0.17013  0.02893  0.84540  Biso   1.000  C
  C688     1.0000 0.30440  0.47453  0.17873  Biso   1.000  C
  C689     1.0000 0.19213  0.16320  0.17873  Biso   1.000  C
  C690     1.0000 0.50346  0.36226  0.17873  Biso   1.000  C
  C691     1.0000 0.47453  0.50346  0.48793  Biso   1.000  C
  C692     1.0000 0.16320  0.30440  0.48793  Biso   1.000  C
  C693     1.0000 0.02893  0.85880  0.15460  Biso   1.000  C
  C694     1.0000 0.14120  0.17013  0.15460  Biso   1.000  C
  C695     1.0000 0.82987  0.97107  0.15460  Biso   1.000  C
  C696     1.0000 0.36226  0.19213  0.48793  Biso   1.000  C
  H421     1.0000 0.98280  0.14400  0.78070  Biso   1.000  H
  H422     1.0000 0.85600  0.83880  0.78070  Biso   1.000  H
  H423     1.0000 0.16120  0.01720  0.78070  Biso   1.000  H
  H424     1.0000 0.31613  0.47733  0.11403  Biso   1.000  H
  H425     1.0000 0.18933  0.17213  0.11403  Biso   1.000  H
  H426     1.0000 0.49453  0.35053  0.11403  Biso   1.000  H
  H427     1.0000 0.47733  0.49453  0.55263  Biso   1.000  H
  H428     1.0000 0.17213  0.31613  0.55263  Biso   1.000  H
  H429     1.0000 0.01720  0.85600  0.21930  Biso   1.000  H
  H430     1.0000 0.14400  0.16120  0.21930  Biso   1.000  H
  H431     1.0000 0.83880  0.98280  0.21930  Biso   1.000  H
  H432     1.0000 0.35053  0.18933  0.55263  Biso   1.000  H
  H433     1.0000 0.98170  0.14240  0.91200  Biso   1.000  H
  H434     1.0000 0.85760  0.83930  0.91200  Biso   1.000  H
  H435     1.0000 0.16070  0.01830  0.91200  Biso   1.000  H
  H436     1.0000 0.31503  0.47573  0.24533  Biso   1.000  H
  H437     1.0000 0.19093  0.17263  0.24533  Biso   1.000  H
  H438     1.0000 0.49403  0.35163  0.24533  Biso   1.000  H
  H439     1.0000 0.47573  0.49403  0.42133  Biso   1.000  H
  H440     1.0000 0.17263  0.31503  0.42133  Biso   1.000  H
  H441     1.0000 0.01830  0.85760  0.08800  Biso   1.000  H
  H442     1.0000 0.14240  0.16070  0.08800  Biso   1.000  H
  H443     1.0000 0.83930  0.98170  0.08800  Biso   1.000  H
  H444     1.0000 0.35163  0.19093  0.42133  Biso   1.000  H
  H445     1.0000 0.96570  0.15580  0.84730  Biso   1.000  H
  H446     1.0000 0.84420  0.80990  0.84730  Biso   1.000  H
  H447     1.0000 0.19010  0.03430  0.84730  Biso   1.000  H
  H448     1.0000 0.29903  0.48913  0.18063  Biso   1.000  H
  H449     1.0000 0.17753  0.14323  0.18063  Biso   1.000  H
  H450     1.0000 0.52343  0.36763  0.18063  Biso   1.000  H
  H451     1.0000 0.48913  0.52343  0.48603  Biso   1.000  H
  H452     1.0000 0.14323  0.29903  0.48603  Biso   1.000  H
  H453     1.0000 0.03430  0.84420  0.15270  Biso   1.000  H
  H454     1.0000 0.15580  0.19010  0.15270  Biso   1.000  H
  H455     1.0000 0.80990  0.96570  0.15270  Biso   1.000  H
  H456     1.0000 0.36763  0.17753  0.48603  Biso   1.000  H
  C697     1.0000 0.99430  0.29463  0.53300  Biso   1.000  C
  C698     1.0000 0.70537  0.69967  0.53300  Biso   1.000  C
  C699     1.0000 0.30033  0.00570  0.53300  Biso   1.000  C
  C700     1.0000 0.32763  0.62796  0.86633  Biso   1.000  C
  C701     1.0000 0.03870  0.03300  0.86633  Biso   1.000  C
  C702     1.0000 0.63366  0.33903  0.86633  Biso   1.000  C
  C703     1.0000 0.62796  0.63366  0.80033  Biso   1.000  C
  C704     1.0000 0.03300  0.32763  0.80033  Biso   1.000  C
  C705     1.0000 0.00570  0.70537  0.46700  Biso   1.000  C
  C706     1.0000 0.29463  0.30033  0.46700  Biso   1.000  C
  C707     1.0000 0.69967  0.99430  0.46700  Biso   1.000  C
  C708     1.0000 0.33903  0.03870  0.80033  Biso   1.000  C
  H457     1.0000 0.00100  0.30520  0.60190  Biso   1.000  H
  H458     1.0000 0.69480  0.69580  0.60190  Biso   1.000  H
  H459     1.0000 0.30420  0.99900  0.60190  Biso   1.000  H
  H460     1.0000 0.33433  0.63853  0.93523  Biso   1.000  H
  H461     1.0000 0.02813  0.02913  0.93523  Biso   1.000  H
  H462     1.0000 0.63753  0.33233  0.93523  Biso   1.000  H
  H463     1.0000 0.63853  0.63753  0.73143  Biso   1.000  H
  H464     1.0000 0.02913  0.33433  0.73143  Biso   1.000  H
  H465     1.0000 0.99900  0.69480  0.39810  Biso   1.000  H
  H466     1.0000 0.30520  0.30420  0.39810  Biso   1.000  H
  H467     1.0000 0.69580  0.00100  0.39810  Biso   1.000  H
  H468     1.0000 0.33233  0.02813  0.73143  Biso   1.000  H
  H469     1.0000 0.97450  0.28920  0.52120  Biso   1.000  H
  H470     1.0000 0.71080  0.68530  0.52120  Biso   1.000  H
  H471     1.0000 0.31470  0.02550  0.52120  Biso   1.000  H
  H472     1.0000 0.30783  0.62253  0.85453  Biso   1.000  H
  H473     1.0000 0.04413  0.01863  0.85453  Biso   1.000  H
  H474     1.0000 0.64803  0.35883  0.85453  Biso   1.000  H
  H475     1.0000 0.62253  0.64803  0.81213  Biso   1.000  H
  H476     1.0000 0.01863  0.30783  0.81213  Biso   1.000  H
  H477     1.0000 0.02550  0.71080  0.47880  Biso   1.000  H
  H478     1.0000 0.28920  0.31470  0.47880  Biso   1.000  H
  H479     1.0000 0.68530  0.97450  0.47880  Biso   1.000  H
  H480     1.0000 0.35883  0.04413  0.81213  Biso   1.000  H
  H481     1.0000 0.00570  0.30650  0.47180  Biso   1.000  H
  H482     1.0000 0.69350  0.69920  0.47180  Biso   1.000  H
  H483     1.0000 0.30080  0.99430  0.47180  Biso   1.000  H
  H484     1.0000 0.33903  0.63983  0.80513  Biso   1.000  H
  H485     1.0000 0.02683  0.03253  0.80513  Biso   1.000  H
  H486     1.0000 0.63413  0.32763  0.80513  Biso   1.000  H
  H487     1.0000 0.63983  0.63413  0.86153  Biso   1.000  H
  H488     1.0000 0.03253  0.33903  0.86153  Biso   1.000  H
  H489     1.0000 0.99430  0.69350  0.52820  Biso   1.000  H
  H490     1.0000 0.30650  0.30080  0.52820  Biso   1.000  H
  H491     1.0000 0.69920  0.00570  0.52820  Biso   1.000  H
  H492     1.0000 0.32763  0.02683  0.86153  Biso   1.000  H
  C709     1.0000 0.00340  0.20302  0.55180  Biso   1.000  C
  C710     1.0000 0.79698  0.80038  0.55180  Biso   1.000  C
  C711     1.0000 0.19962  0.99660  0.55180  Biso   1.000  C
  C712     1.0000 0.33673  0.53635  0.88513  Biso   1.000  C
  C713     1.0000 0.13031  0.13371  0.88513  Biso   1.000  C
  C714     1.0000 0.53295  0.32993  0.88513  Biso   1.000  C
  C715     1.0000 0.53635  0.53295  0.78153  Biso   1.000  C
  C716     1.0000 0.13371  0.33673  0.78153  Biso   1.000  C
  C717     1.0000 0.99660  0.79698  0.44820  Biso   1.000  C
  C718     1.0000 0.20302  0.19962  0.44820  Biso   1.000  C
  C719     1.0000 0.80038  0.00340  0.44820  Biso   1.000  C
  C720     1.0000 0.32993  0.13031  0.78153  Biso   1.000  C
  H493     1.0000 0.01510  0.20420  0.61470  Biso   1.000  H
  H494     1.0000 0.79580  0.81090  0.61470  Biso   1.000  H
  H495     1.0000 0.18910  0.98490  0.61470  Biso   1.000  H
  H496     1.0000 0.34843  0.53753  0.94803  Biso   1.000  H
  H497     1.0000 0.12913  0.14423  0.94803  Biso   1.000  H
  H498     1.0000 0.52243  0.31823  0.94803  Biso   1.000  H
  H499     1.0000 0.53753  0.52243  0.71863  Biso   1.000  H
  H500     1.0000 0.14423  0.34843  0.71863  Biso   1.000  H
  H501     1.0000 0.98490  0.79580  0.38530  Biso   1.000  H
  H502     1.0000 0.20420  0.18910  0.38530  Biso   1.000  H
  H503     1.0000 0.81090  0.01510  0.38530  Biso   1.000  H
  H504     1.0000 0.31823  0.12913  0.71863  Biso   1.000  H
  H505     1.0000 0.01150  0.20030  0.48430  Biso   1.000  H
  H506     1.0000 0.79970  0.81120  0.48430  Biso   1.000  H
  H507     1.0000 0.18880  0.98850  0.48430  Biso   1.000  H
  H508     1.0000 0.34483  0.53363  0.81763  Biso   1.000  H
  H509     1.0000 0.13303  0.14453  0.81763  Biso   1.000  H
  H510     1.0000 0.52213  0.32183  0.81763  Biso   1.000  H
  H511     1.0000 0.53363  0.52213  0.84903  Biso   1.000  H
  H512     1.0000 0.14453  0.34483  0.84903  Biso   1.000  H
  H513     1.0000 0.98850  0.79970  0.51570  Biso   1.000  H
  H514     1.0000 0.20030  0.18880  0.51570  Biso   1.000  H
  H515     1.0000 0.81120  0.01150  0.51570  Biso   1.000  H
  H516     1.0000 0.32183  0.13303  0.84903  Biso   1.000  H
  H517     1.0000 0.98430  0.18710  0.56170  Biso   1.000  H
  H518     1.0000 0.81290  0.79720  0.56170  Biso   1.000  H
  H519     1.0000 0.20280  0.01570  0.56170  Biso   1.000  H
  H520     1.0000 0.31763  0.52043  0.89503  Biso   1.000  H
  H521     1.0000 0.14623  0.13053  0.89503  Biso   1.000  H
  H522     1.0000 0.53613  0.34903  0.89503  Biso   1.000  H
  H523     1.0000 0.52043  0.53613  0.77163  Biso   1.000  H
  H524     1.0000 0.13053  0.31763  0.77163  Biso   1.000  H
  H525     1.0000 0.01570  0.81290  0.43830  Biso   1.000  H
  H526     1.0000 0.18710  0.20280  0.43830  Biso   1.000  H
  H527     1.0000 0.79720  0.98430  0.43830  Biso   1.000  H
  H528     1.0000 0.34903  0.14623  0.77163  Biso   1.000  H
  O145     1.0000 0.06710  0.25510  0.31080  Biso   1.000  O
  O146     1.0000 0.74490  0.81200  0.31080  Biso   1.000  O
  O147     1.0000 0.18800  0.93290  0.31080  Biso   1.000  O
  O148     1.0000 0.40043  0.58843  0.64413  Biso   1.000  O
  O149     1.0000 0.07823  0.14533  0.64413  Biso   1.000  O
  O150     1.0000 0.52133  0.26623  0.64413  Biso   1.000  O
  O151     1.0000 0.58843  0.52133  0.02253  Biso   1.000  O
  O152     1.0000 0.14533  0.40043  0.02253  Biso   1.000  O
  O153     1.0000 0.93290  0.74490  0.68920  Biso   1.000  O
  O154     1.0000 0.25510  0.18800  0.68920  Biso   1.000  O
  O155     1.0000 0.81200  0.06710  0.68920  Biso   1.000  O
  O156     1.0000 0.26623  0.07823  0.02253  Biso   1.000  O
  O157     1.0000 0.90590  0.23753  0.77640  Biso   1.000  O
  O158     1.0000 0.76247  0.66837  0.77640  Biso   1.000  O
  O159     1.0000 0.33163  0.09410  0.77640  Biso   1.000  O
  O160     1.0000 0.23923  0.57086  0.10973  Biso   1.000  O
  O161     1.0000 0.09580  0.00170  0.10973  Biso   1.000  O
  O162     1.0000 0.66496  0.42743  0.10973  Biso   1.000  O
  O163     1.0000 0.57086  0.66496  0.55693  Biso   1.000  O
  O164     1.0000 0.00170  0.23923  0.55693  Biso   1.000  O
  O165     1.0000 0.09410  0.76247  0.22360  Biso   1.000  O
  O166     1.0000 0.23753  0.33163  0.22360  Biso   1.000  O
  O167     1.0000 0.66837  0.90590  0.22360  Biso   1.000  O
  O168     1.0000 0.42743  0.09580  0.55693  Biso   1.000  O
  O169     1.0000 0.93310  0.24522  0.76150  Biso   1.000  O
  O170     1.0000 0.75478  0.68788  0.76150  Biso   1.000  O
  O171     1.0000 0.31212  0.06690  0.76150  Biso   1.000  O
  O172     1.0000 0.26643  0.57855  0.09483  Biso   1.000  O
  O173     1.0000 0.08811  0.02121  0.09483  Biso   1.000  O
  O174     1.0000 0.64545  0.40023  0.09483  Biso   1.000  O
  O175     1.0000 0.57855  0.64545  0.57183  Biso   1.000  O
  O176     1.0000 0.02121  0.26643  0.57183  Biso   1.000  O
  O177     1.0000 0.06690  0.75478  0.23850  Biso   1.000  O
  O178     1.0000 0.24522  0.31212  0.23850  Biso   1.000  O
  O179     1.0000 0.68788  0.93310  0.23850  Biso   1.000  O
  O180     1.0000 0.40023  0.08811  0.57183  Biso   1.000  O
  O181     1.0000 0.90890  0.16727  0.64020  Biso   1.000  O
  O182     1.0000 0.83273  0.74163  0.64020  Biso   1.000  O
  O183     1.0000 0.25837  0.09110  0.64020  Biso   1.000  O
  O184     1.0000 0.24223  0.50060  0.97353  Biso   1.000  O
  O185     1.0000 0.16606  0.07496  0.97353  Biso   1.000  O
  O186     1.0000 0.59170  0.42443  0.97353  Biso   1.000  O
  O187     1.0000 0.50060  0.59170  0.69313  Biso   1.000  O
  O188     1.0000 0.07496  0.24223  0.69313  Biso   1.000  O
  O189     1.0000 0.09110  0.83273  0.35980  Biso   1.000  O
  O190     1.0000 0.16727  0.25837  0.35980  Biso   1.000  O
  O191     1.0000 0.74163  0.90890  0.35980  Biso   1.000  O
  O192     1.0000 0.42443  0.16606  0.69313  Biso   1.000  O
  O193     1.0000 0.93930  0.02840  0.09330  Biso   1.000  O
  O194     1.0000 0.97160  0.91090  0.09330  Biso   1.000  O
  O195     1.0000 0.08910  0.06070  0.09330  Biso   1.000  O
  O196     1.0000 0.27263  0.36173  0.42663  Biso   1.000  O
  O197     1.0000 0.30493  0.24423  0.42663  Biso   1.000  O
  O198     1.0000 0.42243  0.39403  0.42663  Biso   1.000  O
  O199     1.0000 0.36173  0.42243  0.24003  Biso   1.000  O
  O200     1.0000 0.24423  0.27263  0.24003  Biso   1.000  O
  O201     1.0000 0.06070  0.97160  0.90670  Biso   1.000  O
  O202     1.0000 0.02840  0.08910  0.90670  Biso   1.000  O
  O203     1.0000 0.91090  0.93930  0.90670  Biso   1.000  O
  O204     1.0000 0.39403  0.30493  0.24003  Biso   1.000  O
  O205     1.0000 0.05970  0.24402  0.33050  Biso   1.000  O
  O206     1.0000 0.75598  0.81568  0.33050  Biso   1.000  O
  O207     1.0000 0.18432  0.94030  0.33050  Biso   1.000  O
  O208     1.0000 0.39303  0.57735  0.66383  Biso   1.000  O
  O209     1.0000 0.08931  0.14901  0.66383  Biso   1.000  O
  O210     1.0000 0.51765  0.27363  0.66383  Biso   1.000  O
  O211     1.0000 0.57735  0.51765  0.00283  Biso   1.000  O
  O212     1.0000 0.14901  0.39303  0.00283  Biso   1.000  O
  O213     1.0000 0.94030  0.75598  0.66950  Biso   1.000  O
  O214     1.0000 0.24402  0.18432  0.66950  Biso   1.000  O
  O215     1.0000 0.81568  0.05970  0.66950  Biso   1.000  O
  O216     1.0000 0.27363  0.08931  0.00283  Biso   1.000  O
  O217     1.0000 0.73550  0.03008  0.26133  Biso   1.000  O
  O218     1.0000 0.96992  0.70541  0.26133  Biso   1.000  O
  O219     1.0000 0.29459  0.26450  0.26133  Biso   1.000  O
  O220     1.0000 0.06883  0.36342  0.59467  Biso   1.000  O
  O221     1.0000 0.30325  0.03875  0.59467  Biso   1.000  O
  O222     1.0000 0.62792  0.59784  0.59467  Biso   1.000  O
  O223     1.0000 0.36342  0.62792  0.07200  Biso   1.000  O
  O224     1.0000 0.03875  0.06883  0.07200  Biso   1.000  O
  O225     1.0000 0.26450  0.96992  0.73867  Biso   1.000  O
  O226     1.0000 0.03008  0.29459  0.73867  Biso   1.000  O
  O227     1.0000 0.70541  0.73550  0.73867  Biso   1.000  O
  O228     1.0000 0.59784  0.30325  0.07200  Biso   1.000  O
  Cu49     1.0000 0.90951  0.31477  0.97456  Biso   1.000  Cu
  Cu50     1.0000 0.68523  0.59473  0.97456  Biso   1.000  Cu
  Cu51     1.0000 0.40527  0.09049  0.97456  Biso   1.000  Cu
  Cu52     1.0000 0.24284  0.64811  0.30790  Biso   1.000  Cu
  Cu53     1.0000 0.01856  0.92807  0.30790  Biso   1.000  Cu
  Cu54     1.0000 0.73860  0.42383  0.30790  Biso   1.000  Cu
  Cu55     1.0000 0.64811  0.73860  0.35877  Biso   1.000  Cu
  Cu56     1.0000 0.92807  0.24284  0.35877  Biso   1.000  Cu
  Cu57     1.0000 0.09049  0.68523  0.02544  Biso   1.000  Cu
  Cu58     1.0000 0.31477  0.40527  0.02544  Biso   1.000  Cu
  Cu59     1.0000 0.59473  0.90951  0.02544  Biso   1.000  Cu
  Cu60     1.0000 0.42383  0.01856  0.35877  Biso   1.000  Cu
