data_image0
_cell_length_a       42.321
_cell_length_b       42.321
_cell_length_c       30.872
_cell_angle_alpha    90
_cell_angle_beta     90
_cell_angle_gamma    120

_symmetry_space_group_name_H-M    "P 1"
_symmetry_int_tables_number       1

loop_
  _symmetry_equiv_pos_as_xyz
  'x, y, z'

loop_
  _atom_site_label
  _atom_site_occupancy
  _atom_site_fract_x
  _atom_site_fract_y
  _atom_site_fract_z
  _atom_site_thermal_displace_type
  _atom_site_B_iso_or_equiv
  _atom_site_type_symbol
  C1       1.0000 0.07954  0.24246  0.39508  Biso   1.000  C
  C2       1.0000 0.75754  0.83708  0.39508  Biso   1.000  C
  C3       1.0000 0.16292  0.92046  0.39508  Biso   1.000  C
  C4       1.0000 0.24246  0.07954  0.60492  Biso   1.000  C
  C5       1.0000 0.92046  0.16292  0.60492  Biso   1.000  C
  C6       1.0000 0.83708  0.75754  0.60492  Biso   1.000  C
  C7       1.0000 0.74621  0.57579  0.72841  Biso   1.000  C
  C8       1.0000 0.42421  0.17041  0.72841  Biso   1.000  C
  C9       1.0000 0.82959  0.25379  0.72841  Biso   1.000  C
  C10      1.0000 0.90913  0.41287  0.93825  Biso   1.000  C
  C11      1.0000 0.58713  0.49625  0.93825  Biso   1.000  C
  C12      1.0000 0.50375  0.09087  0.93825  Biso   1.000  C
  C13      1.0000 0.41287  0.90913  0.06175  Biso   1.000  C
  C14      1.0000 0.09087  0.50375  0.06175  Biso   1.000  C
  C15      1.0000 0.49625  0.58713  0.06175  Biso   1.000  C
  C16      1.0000 0.57579  0.74621  0.27159  Biso   1.000  C
  C17      1.0000 0.25379  0.82959  0.27159  Biso   1.000  C
  C18      1.0000 0.17041  0.42421  0.27159  Biso   1.000  C
  C19      1.0000 0.92046  0.75754  0.60492  Biso   1.000  C
  C20      1.0000 0.24246  0.16292  0.60492  Biso   1.000  C
  C21      1.0000 0.83708  0.07954  0.60492  Biso   1.000  C
  C22      1.0000 0.75754  0.92046  0.39508  Biso   1.000  C
  C23      1.0000 0.07954  0.83708  0.39508  Biso   1.000  C
  C24      1.0000 0.16292  0.24246  0.39508  Biso   1.000  C
  C25      1.0000 0.58713  0.09087  0.93825  Biso   1.000  C
  C26      1.0000 0.90913  0.49625  0.93825  Biso   1.000  C
  C27      1.0000 0.50375  0.41287  0.93825  Biso   1.000  C
  C28      1.0000 0.42421  0.25379  0.72841  Biso   1.000  C
  C29      1.0000 0.74621  0.17041  0.72841  Biso   1.000  C
  C30      1.0000 0.82959  0.57579  0.72841  Biso   1.000  C
  C31      1.0000 0.25379  0.42421  0.27159  Biso   1.000  C
  C32      1.0000 0.57579  0.82959  0.27159  Biso   1.000  C
  C33      1.0000 0.17041  0.74621  0.27159  Biso   1.000  C
  C34      1.0000 0.09087  0.58713  0.06175  Biso   1.000  C
  C35      1.0000 0.41287  0.50375  0.06175  Biso   1.000  C
  C36      1.0000 0.49625  0.90913  0.06175  Biso   1.000  C
  C37      1.0000 0.05035  0.23512  0.36324  Biso   1.000  C
  C38      1.0000 0.76488  0.81523  0.36324  Biso   1.000  C
  C39      1.0000 0.18477  0.94965  0.36324  Biso   1.000  C
  C40      1.0000 0.23512  0.05035  0.63676  Biso   1.000  C
  C41      1.0000 0.94965  0.18477  0.63676  Biso   1.000  C
  C42      1.0000 0.81523  0.76488  0.63676  Biso   1.000  C
  C43      1.0000 0.71702  0.56845  0.69657  Biso   1.000  C
  C44      1.0000 0.43155  0.14856  0.69657  Biso   1.000  C
  C45      1.0000 0.85144  0.28298  0.69657  Biso   1.000  C
  C46      1.0000 0.90179  0.38368  0.97009  Biso   1.000  C
  C47      1.0000 0.61632  0.51810  0.97009  Biso   1.000  C
  C48      1.0000 0.48190  0.09821  0.97009  Biso   1.000  C
  C49      1.0000 0.38368  0.90179  0.02991  Biso   1.000  C
  C50      1.0000 0.09821  0.48190  0.02991  Biso   1.000  C
  C51      1.0000 0.51810  0.61632  0.02991  Biso   1.000  C
  C52      1.0000 0.56845  0.71702  0.30343  Biso   1.000  C
  C53      1.0000 0.28298  0.85144  0.30343  Biso   1.000  C
  C54      1.0000 0.14856  0.43155  0.30343  Biso   1.000  C
  C55      1.0000 0.94965  0.76488  0.63676  Biso   1.000  C
  C56      1.0000 0.23512  0.18477  0.63676  Biso   1.000  C
  C57      1.0000 0.81523  0.05035  0.63676  Biso   1.000  C
  C58      1.0000 0.76488  0.94965  0.36324  Biso   1.000  C
  C59      1.0000 0.05035  0.81523  0.36324  Biso   1.000  C
  C60      1.0000 0.18477  0.23512  0.36324  Biso   1.000  C
  C61      1.0000 0.61632  0.09821  0.97009  Biso   1.000  C
  C62      1.0000 0.90179  0.51810  0.97009  Biso   1.000  C
  C63      1.0000 0.48190  0.38368  0.97009  Biso   1.000  C
  C64      1.0000 0.43155  0.28298  0.69657  Biso   1.000  C
  C65      1.0000 0.71702  0.14856  0.69657  Biso   1.000  C
  C66      1.0000 0.85144  0.56845  0.69657  Biso   1.000  C
  C67      1.0000 0.28298  0.43155  0.30343  Biso   1.000  C
  C68      1.0000 0.56845  0.85144  0.30343  Biso   1.000  C
  C69      1.0000 0.14856  0.71702  0.30343  Biso   1.000  C
  C70      1.0000 0.09821  0.61632  0.02991  Biso   1.000  C
  C71      1.0000 0.38368  0.48190  0.02991  Biso   1.000  C
  C72      1.0000 0.51810  0.90179  0.02991  Biso   1.000  C
  C73      1.0000 0.05284  0.26377  0.33847  Biso   1.000  C
  C74      1.0000 0.73623  0.78907  0.33847  Biso   1.000  C
  C75      1.0000 0.21093  0.94716  0.33847  Biso   1.000  C
  C76      1.0000 0.26377  0.05284  0.66153  Biso   1.000  C
  C77      1.0000 0.94716  0.21093  0.66153  Biso   1.000  C
  C78      1.0000 0.78907  0.73623  0.66153  Biso   1.000  C
  C79      1.0000 0.71951  0.59710  0.67180  Biso   1.000  C
  C80      1.0000 0.40290  0.12240  0.67180  Biso   1.000  C
  C81      1.0000 0.87760  0.28049  0.67180  Biso   1.000  C
  C82      1.0000 0.93044  0.38617  0.99486  Biso   1.000  C
  C83      1.0000 0.61383  0.54426  0.99486  Biso   1.000  C
  C84      1.0000 0.45574  0.06956  0.99486  Biso   1.000  C
  C85      1.0000 0.38617  0.93044  0.00514  Biso   1.000  C
  C86      1.0000 0.06956  0.45574  0.00514  Biso   1.000  C
  C87      1.0000 0.54426  0.61383  0.00514  Biso   1.000  C
  C88      1.0000 0.59710  0.71951  0.32820  Biso   1.000  C
  C89      1.0000 0.28049  0.87760  0.32820  Biso   1.000  C
  C90      1.0000 0.12240  0.40290  0.32820  Biso   1.000  C
  C91      1.0000 0.94716  0.73623  0.66153  Biso   1.000  C
  C92      1.0000 0.26377  0.21093  0.66153  Biso   1.000  C
  C93      1.0000 0.78907  0.05284  0.66153  Biso   1.000  C
  C94      1.0000 0.73623  0.94716  0.33847  Biso   1.000  C
  C95      1.0000 0.05284  0.78907  0.33847  Biso   1.000  C
  C96      1.0000 0.21093  0.26377  0.33847  Biso   1.000  C
  C97      1.0000 0.61383  0.06956  0.99486  Biso   1.000  C
  C98      1.0000 0.93044  0.54426  0.99486  Biso   1.000  C
  C99      1.0000 0.45574  0.38617  0.99486  Biso   1.000  C
  C100     1.0000 0.40290  0.28049  0.67180  Biso   1.000  C
  C101     1.0000 0.71951  0.12240  0.67180  Biso   1.000  C
  C102     1.0000 0.87760  0.59710  0.67180  Biso   1.000  C
  C103     1.0000 0.28049  0.40290  0.32820  Biso   1.000  C
  C104     1.0000 0.59710  0.87760  0.32820  Biso   1.000  C
  C105     1.0000 0.12240  0.71951  0.32820  Biso   1.000  C
  C106     1.0000 0.06956  0.61383  0.00514  Biso   1.000  C
  C107     1.0000 0.38617  0.45574  0.00514  Biso   1.000  C
  C108     1.0000 0.54426  0.93044  0.00514  Biso   1.000  C
  H1       1.0000 0.07430  0.28700  0.33990  Biso   1.000  H
  H2       1.0000 0.71300  0.78730  0.33990  Biso   1.000  H
  H3       1.0000 0.21270  0.92570  0.33990  Biso   1.000  H
  H4       1.0000 0.28700  0.07430  0.66010  Biso   1.000  H
  H5       1.0000 0.92570  0.21270  0.66010  Biso   1.000  H
  H6       1.0000 0.78730  0.71300  0.66010  Biso   1.000  H
  H7       1.0000 0.74097  0.62033  0.67323  Biso   1.000  H
  H8       1.0000 0.37967  0.12063  0.67323  Biso   1.000  H
  H9       1.0000 0.87937  0.25903  0.67323  Biso   1.000  H
  H10      1.0000 0.95367  0.40763  0.99343  Biso   1.000  H
  H11      1.0000 0.59237  0.54603  0.99343  Biso   1.000  H
  H12      1.0000 0.45397  0.04633  0.99343  Biso   1.000  H
  H13      1.0000 0.40763  0.95367  0.00657  Biso   1.000  H
  H14      1.0000 0.04633  0.45397  0.00657  Biso   1.000  H
  H15      1.0000 0.54603  0.59237  0.00657  Biso   1.000  H
  H16      1.0000 0.62033  0.74097  0.32677  Biso   1.000  H
  H17      1.0000 0.25903  0.87937  0.32677  Biso   1.000  H
  H18      1.0000 0.12063  0.37967  0.32677  Biso   1.000  H
  H19      1.0000 0.92570  0.71300  0.66010  Biso   1.000  H
  H20      1.0000 0.28700  0.21270  0.66010  Biso   1.000  H
  H21      1.0000 0.78730  0.07430  0.66010  Biso   1.000  H
  H22      1.0000 0.71300  0.92570  0.33990  Biso   1.000  H
  H23      1.0000 0.07430  0.78730  0.33990  Biso   1.000  H
  H24      1.0000 0.21270  0.28700  0.33990  Biso   1.000  H
  H25      1.0000 0.59237  0.04633  0.99343  Biso   1.000  H
  H26      1.0000 0.95367  0.54603  0.99343  Biso   1.000  H
  H27      1.0000 0.45397  0.40763  0.99343  Biso   1.000  H
  H28      1.0000 0.37967  0.25903  0.67323  Biso   1.000  H
  H29      1.0000 0.74097  0.12063  0.67323  Biso   1.000  H
  H30      1.0000 0.87937  0.62033  0.67323  Biso   1.000  H
  H31      1.0000 0.25903  0.37967  0.32677  Biso   1.000  H
  H32      1.0000 0.62033  0.87937  0.32677  Biso   1.000  H
  H33      1.0000 0.12063  0.74097  0.32677  Biso   1.000  H
  H34      1.0000 0.04633  0.59237  0.00657  Biso   1.000  H
  H35      1.0000 0.40763  0.45397  0.00657  Biso   1.000  H
  H36      1.0000 0.54603  0.95367  0.00657  Biso   1.000  H
  C109     1.0000 0.02451  0.25877  0.31190  Biso   1.000  C
  C110     1.0000 0.74123  0.76574  0.31190  Biso   1.000  C
  C111     1.0000 0.23426  0.97549  0.31190  Biso   1.000  C
  C112     1.0000 0.25877  0.02451  0.68810  Biso   1.000  C
  C113     1.0000 0.97549  0.23426  0.68810  Biso   1.000  C
  C114     1.0000 0.76574  0.74123  0.68810  Biso   1.000  C
  C115     1.0000 0.69118  0.59210  0.64523  Biso   1.000  C
  C116     1.0000 0.40790  0.09907  0.64523  Biso   1.000  C
  C117     1.0000 0.90093  0.30882  0.64523  Biso   1.000  C
  C118     1.0000 0.92544  0.35784  0.02143  Biso   1.000  C
  C119     1.0000 0.64216  0.56759  0.02143  Biso   1.000  C
  C120     1.0000 0.43241  0.07456  0.02143  Biso   1.000  C
  C121     1.0000 0.35784  0.92544  0.97857  Biso   1.000  C
  C122     1.0000 0.07456  0.43241  0.97857  Biso   1.000  C
  C123     1.0000 0.56759  0.64216  0.97857  Biso   1.000  C
  C124     1.0000 0.59210  0.69118  0.35477  Biso   1.000  C
  C125     1.0000 0.30882  0.90093  0.35477  Biso   1.000  C
  C126     1.0000 0.09907  0.40790  0.35477  Biso   1.000  C
  C127     1.0000 0.97549  0.74123  0.68810  Biso   1.000  C
  C128     1.0000 0.25877  0.23426  0.68810  Biso   1.000  C
  C129     1.0000 0.76574  0.02451  0.68810  Biso   1.000  C
  C130     1.0000 0.74123  0.97549  0.31190  Biso   1.000  C
  C131     1.0000 0.02451  0.76574  0.31190  Biso   1.000  C
  C132     1.0000 0.23426  0.25877  0.31190  Biso   1.000  C
  C133     1.0000 0.64216  0.07456  0.02143  Biso   1.000  C
  C134     1.0000 0.92544  0.56759  0.02143  Biso   1.000  C
  C135     1.0000 0.43241  0.35784  0.02143  Biso   1.000  C
  C136     1.0000 0.40790  0.30882  0.64523  Biso   1.000  C
  C137     1.0000 0.69118  0.09907  0.64523  Biso   1.000  C
  C138     1.0000 0.90093  0.59210  0.64523  Biso   1.000  C
  C139     1.0000 0.30882  0.40790  0.35477  Biso   1.000  C
  C140     1.0000 0.59210  0.90093  0.35477  Biso   1.000  C
  C141     1.0000 0.09907  0.69118  0.35477  Biso   1.000  C
  C142     1.0000 0.07456  0.64216  0.97857  Biso   1.000  C
  C143     1.0000 0.35784  0.43241  0.97857  Biso   1.000  C
  C144     1.0000 0.56759  0.92544  0.97857  Biso   1.000  C
  C145     1.0000 0.99385  0.22482  0.30990  Biso   1.000  C
  C146     1.0000 0.77518  0.76903  0.30990  Biso   1.000  C
  C147     1.0000 0.23097  0.00615  0.30990  Biso   1.000  C
  C148     1.0000 0.22482  0.99385  0.69010  Biso   1.000  C
  C149     1.0000 0.00615  0.23097  0.69010  Biso   1.000  C
  C150     1.0000 0.76903  0.77518  0.69010  Biso   1.000  C
  C151     1.0000 0.66052  0.55815  0.64323  Biso   1.000  C
  C152     1.0000 0.44185  0.10236  0.64323  Biso   1.000  C
  C153     1.0000 0.89764  0.33948  0.64323  Biso   1.000  C
  C154     1.0000 0.89149  0.32718  0.02343  Biso   1.000  C
  C155     1.0000 0.67282  0.56430  0.02343  Biso   1.000  C
  C156     1.0000 0.43570  0.10851  0.02343  Biso   1.000  C
  C157     1.0000 0.32718  0.89149  0.97657  Biso   1.000  C
  C158     1.0000 0.10851  0.43570  0.97657  Biso   1.000  C
  C159     1.0000 0.56430  0.67282  0.97657  Biso   1.000  C
  C160     1.0000 0.55815  0.66052  0.35677  Biso   1.000  C
  C161     1.0000 0.33948  0.89764  0.35677  Biso   1.000  C
  C162     1.0000 0.10236  0.44185  0.35677  Biso   1.000  C
  C163     1.0000 0.00615  0.77518  0.69010  Biso   1.000  C
  C164     1.0000 0.22482  0.23097  0.69010  Biso   1.000  C
  C165     1.0000 0.76903  0.99385  0.69010  Biso   1.000  C
  C166     1.0000 0.77518  0.00615  0.30990  Biso   1.000  C
  C167     1.0000 0.99385  0.76903  0.30990  Biso   1.000  C
  C168     1.0000 0.23097  0.22482  0.30990  Biso   1.000  C
  C169     1.0000 0.67282  0.10851  0.02343  Biso   1.000  C
  C170     1.0000 0.89149  0.56430  0.02343  Biso   1.000  C
  C171     1.0000 0.43570  0.32718  0.02343  Biso   1.000  C
  C172     1.0000 0.44185  0.33948  0.64323  Biso   1.000  C
  C173     1.0000 0.66052  0.10236  0.64323  Biso   1.000  C
  C174     1.0000 0.89764  0.55815  0.64323  Biso   1.000  C
  C175     1.0000 0.33948  0.44185  0.35677  Biso   1.000  C
  C176     1.0000 0.55815  0.89764  0.35677  Biso   1.000  C
  C177     1.0000 0.10236  0.66052  0.35677  Biso   1.000  C
  C178     1.0000 0.10851  0.67282  0.97657  Biso   1.000  C
  C179     1.0000 0.32718  0.43570  0.97657  Biso   1.000  C
  C180     1.0000 0.56430  0.89149  0.97657  Biso   1.000  C
  H37      1.0000 0.97370  0.22140  0.29280  Biso   1.000  H
  H38      1.0000 0.77860  0.75230  0.29280  Biso   1.000  H
  H39      1.0000 0.24770  0.02630  0.29280  Biso   1.000  H
  H40      1.0000 0.22140  0.97370  0.70720  Biso   1.000  H
  H41      1.0000 0.02630  0.24770  0.70720  Biso   1.000  H
  H42      1.0000 0.75230  0.77860  0.70720  Biso   1.000  H
  H43      1.0000 0.64037  0.55473  0.62613  Biso   1.000  H
  H44      1.0000 0.44527  0.08563  0.62613  Biso   1.000  H
  H45      1.0000 0.91437  0.35963  0.62613  Biso   1.000  H
  H46      1.0000 0.88807  0.30703  0.04053  Biso   1.000  H
  H47      1.0000 0.69297  0.58103  0.04053  Biso   1.000  H
  H48      1.0000 0.41897  0.11193  0.04053  Biso   1.000  H
  H49      1.0000 0.30703  0.88807  0.95947  Biso   1.000  H
  H50      1.0000 0.11193  0.41897  0.95947  Biso   1.000  H
  H51      1.0000 0.58103  0.69297  0.95947  Biso   1.000  H
  H52      1.0000 0.55473  0.64037  0.37387  Biso   1.000  H
  H53      1.0000 0.35963  0.91437  0.37387  Biso   1.000  H
  H54      1.0000 0.08563  0.44527  0.37387  Biso   1.000  H
  H55      1.0000 0.02630  0.77860  0.70720  Biso   1.000  H
  H56      1.0000 0.22140  0.24770  0.70720  Biso   1.000  H
  H57      1.0000 0.75230  0.97370  0.70720  Biso   1.000  H
  H58      1.0000 0.77860  0.02630  0.29280  Biso   1.000  H
  H59      1.0000 0.97370  0.75230  0.29280  Biso   1.000  H
  H60      1.0000 0.24770  0.22140  0.29280  Biso   1.000  H
  H61      1.0000 0.69297  0.11193  0.04053  Biso   1.000  H
  H62      1.0000 0.88807  0.58103  0.04053  Biso   1.000  H
  H63      1.0000 0.41897  0.30703  0.04053  Biso   1.000  H
  H64      1.0000 0.44527  0.35963  0.62613  Biso   1.000  H
  H65      1.0000 0.64037  0.08563  0.62613  Biso   1.000  H
  H66      1.0000 0.91437  0.55473  0.62613  Biso   1.000  H
  H67      1.0000 0.35963  0.44527  0.37387  Biso   1.000  H
  H68      1.0000 0.55473  0.91437  0.37387  Biso   1.000  H
  H69      1.0000 0.08563  0.64037  0.37387  Biso   1.000  H
  H70      1.0000 0.11193  0.69297  0.95947  Biso   1.000  H
  H71      1.0000 0.30703  0.41897  0.95947  Biso   1.000  H
  H72      1.0000 0.58103  0.88807  0.95947  Biso   1.000  H
  C181     1.0000 0.99180  0.19550  0.33230  Biso   1.000  C
  C182     1.0000 0.80450  0.79630  0.33230  Biso   1.000  C
  C183     1.0000 0.20370  0.00820  0.33230  Biso   1.000  C
  C184     1.0000 0.19550  0.99180  0.66770  Biso   1.000  C
  C185     1.0000 0.00820  0.20370  0.66770  Biso   1.000  C
  C186     1.0000 0.79630  0.80450  0.66770  Biso   1.000  C
  C187     1.0000 0.65847  0.52883  0.66563  Biso   1.000  C
  C188     1.0000 0.47117  0.12963  0.66563  Biso   1.000  C
  C189     1.0000 0.87037  0.34153  0.66563  Biso   1.000  C
  C190     1.0000 0.86217  0.32513  0.00103  Biso   1.000  C
  C191     1.0000 0.67487  0.53703  0.00103  Biso   1.000  C
  C192     1.0000 0.46297  0.13783  0.00103  Biso   1.000  C
  C193     1.0000 0.32513  0.86217  0.99897  Biso   1.000  C
  C194     1.0000 0.13783  0.46297  0.99897  Biso   1.000  C
  C195     1.0000 0.53703  0.67487  0.99897  Biso   1.000  C
  C196     1.0000 0.52883  0.65847  0.33437  Biso   1.000  C
  C197     1.0000 0.34153  0.87037  0.33437  Biso   1.000  C
  C198     1.0000 0.12963  0.47117  0.33437  Biso   1.000  C
  C199     1.0000 0.00820  0.80450  0.66770  Biso   1.000  C
  C200     1.0000 0.19550  0.20370  0.66770  Biso   1.000  C
  C201     1.0000 0.79630  0.99180  0.66770  Biso   1.000  C
  C202     1.0000 0.80450  0.00820  0.33230  Biso   1.000  C
  C203     1.0000 0.99180  0.79630  0.33230  Biso   1.000  C
  C204     1.0000 0.20370  0.19550  0.33230  Biso   1.000  C
  C205     1.0000 0.67487  0.13783  0.00103  Biso   1.000  C
  C206     1.0000 0.86217  0.53703  0.00103  Biso   1.000  C
  C207     1.0000 0.46297  0.32513  0.00103  Biso   1.000  C
  C208     1.0000 0.47117  0.34153  0.66563  Biso   1.000  C
  C209     1.0000 0.65847  0.12963  0.66563  Biso   1.000  C
  C210     1.0000 0.87037  0.52883  0.66563  Biso   1.000  C
  C211     1.0000 0.34153  0.47117  0.33437  Biso   1.000  C
  C212     1.0000 0.52883  0.87037  0.33437  Biso   1.000  C
  C213     1.0000 0.12963  0.65847  0.33437  Biso   1.000  C
  C214     1.0000 0.13783  0.67487  0.99897  Biso   1.000  C
  C215     1.0000 0.32513  0.46297  0.99897  Biso   1.000  C
  C216     1.0000 0.53703  0.86217  0.99897  Biso   1.000  C
  C217     1.0000 0.02014  0.20072  0.35960  Biso   1.000  C
  C218     1.0000 0.79928  0.81942  0.35960  Biso   1.000  C
  C219     1.0000 0.18058  0.97986  0.35960  Biso   1.000  C
  C220     1.0000 0.20072  0.02014  0.64040  Biso   1.000  C
  C221     1.0000 0.97986  0.18058  0.64040  Biso   1.000  C
  C222     1.0000 0.81942  0.79928  0.64040  Biso   1.000  C
  C223     1.0000 0.68681  0.53405  0.69293  Biso   1.000  C
  C224     1.0000 0.46595  0.15275  0.69293  Biso   1.000  C
  C225     1.0000 0.84725  0.31319  0.69293  Biso   1.000  C
  C226     1.0000 0.86739  0.35347  0.97373  Biso   1.000  C
  C227     1.0000 0.64653  0.51391  0.97373  Biso   1.000  C
  C228     1.0000 0.48609  0.13261  0.97373  Biso   1.000  C
  C229     1.0000 0.35347  0.86739  0.02627  Biso   1.000  C
  C230     1.0000 0.13261  0.48609  0.02627  Biso   1.000  C
  C231     1.0000 0.51391  0.64653  0.02627  Biso   1.000  C
  C232     1.0000 0.53405  0.68681  0.30707  Biso   1.000  C
  C233     1.0000 0.31319  0.84725  0.30707  Biso   1.000  C
  C234     1.0000 0.15275  0.46595  0.30707  Biso   1.000  C
  C235     1.0000 0.97986  0.79928  0.64040  Biso   1.000  C
  C236     1.0000 0.20072  0.18058  0.64040  Biso   1.000  C
  C237     1.0000 0.81942  0.02014  0.64040  Biso   1.000  C
  C238     1.0000 0.79928  0.97986  0.35960  Biso   1.000  C
  C239     1.0000 0.02014  0.81942  0.35960  Biso   1.000  C
  C240     1.0000 0.18058  0.20072  0.35960  Biso   1.000  C
  C241     1.0000 0.64653  0.13261  0.97373  Biso   1.000  C
  C242     1.0000 0.86739  0.51391  0.97373  Biso   1.000  C
  C243     1.0000 0.48609  0.35347  0.97373  Biso   1.000  C
  C244     1.0000 0.46595  0.31319  0.69293  Biso   1.000  C
  C245     1.0000 0.68681  0.15275  0.69293  Biso   1.000  C
  C246     1.0000 0.84725  0.53405  0.69293  Biso   1.000  C
  C247     1.0000 0.31319  0.46595  0.30707  Biso   1.000  C
  C248     1.0000 0.53405  0.84725  0.30707  Biso   1.000  C
  C249     1.0000 0.15275  0.68681  0.30707  Biso   1.000  C
  C250     1.0000 0.13261  0.64653  0.02627  Biso   1.000  C
  C251     1.0000 0.35347  0.48609  0.02627  Biso   1.000  C
  C252     1.0000 0.51391  0.86739  0.02627  Biso   1.000  C
  H73      1.0000 0.01870  0.18090  0.37560  Biso   1.000  H
  H74      1.0000 0.81910  0.83780  0.37560  Biso   1.000  H
  H75      1.0000 0.16220  0.98130  0.37560  Biso   1.000  H
  H76      1.0000 0.18090  0.01870  0.62440  Biso   1.000  H
  H77      1.0000 0.98130  0.16220  0.62440  Biso   1.000  H
  H78      1.0000 0.83780  0.81910  0.62440  Biso   1.000  H
  H79      1.0000 0.68537  0.51423  0.70893  Biso   1.000  H
  H80      1.0000 0.48577  0.17113  0.70893  Biso   1.000  H
  H81      1.0000 0.82887  0.31463  0.70893  Biso   1.000  H
  H82      1.0000 0.84757  0.35203  0.95773  Biso   1.000  H
  H83      1.0000 0.64797  0.49553  0.95773  Biso   1.000  H
  H84      1.0000 0.50447  0.15243  0.95773  Biso   1.000  H
  H85      1.0000 0.35203  0.84757  0.04227  Biso   1.000  H
  H86      1.0000 0.15243  0.50447  0.04227  Biso   1.000  H
  H87      1.0000 0.49553  0.64797  0.04227  Biso   1.000  H
  H88      1.0000 0.51423  0.68537  0.29107  Biso   1.000  H
  H89      1.0000 0.31463  0.82887  0.29107  Biso   1.000  H
  H90      1.0000 0.17113  0.48577  0.29107  Biso   1.000  H
  H91      1.0000 0.98130  0.81910  0.62440  Biso   1.000  H
  H92      1.0000 0.18090  0.16220  0.62440  Biso   1.000  H
  H93      1.0000 0.83780  0.01870  0.62440  Biso   1.000  H
  H94      1.0000 0.81910  0.98130  0.37560  Biso   1.000  H
  H95      1.0000 0.01870  0.83780  0.37560  Biso   1.000  H
  H96      1.0000 0.16220  0.18090  0.37560  Biso   1.000  H
  H97      1.0000 0.64797  0.15243  0.95773  Biso   1.000  H
  H98      1.0000 0.84757  0.49553  0.95773  Biso   1.000  H
  H99      1.0000 0.50447  0.35203  0.95773  Biso   1.000  H
  H100     1.0000 0.48577  0.31463  0.70893  Biso   1.000  H
  H101     1.0000 0.68537  0.17113  0.70893  Biso   1.000  H
  H102     1.0000 0.82887  0.51423  0.70893  Biso   1.000  H
  H103     1.0000 0.31463  0.48577  0.29107  Biso   1.000  H
  H104     1.0000 0.51423  0.82887  0.29107  Biso   1.000  H
  H105     1.0000 0.17113  0.68537  0.29107  Biso   1.000  H
  H106     1.0000 0.15243  0.64797  0.04227  Biso   1.000  H
  H107     1.0000 0.35203  0.50447  0.04227  Biso   1.000  H
  H108     1.0000 0.49553  0.84757  0.04227  Biso   1.000  H
  C253     1.0000 0.95845  0.15862  0.32830  Biso   1.000  C
  C254     1.0000 0.84138  0.79983  0.32830  Biso   1.000  C
  C255     1.0000 0.20017  0.04155  0.32830  Biso   1.000  C
  C256     1.0000 0.15862  0.95845  0.67170  Biso   1.000  C
  C257     1.0000 0.04155  0.20017  0.67170  Biso   1.000  C
  C258     1.0000 0.79983  0.84138  0.67170  Biso   1.000  C
  C259     1.0000 0.62512  0.49195  0.66163  Biso   1.000  C
  C260     1.0000 0.50805  0.13316  0.66163  Biso   1.000  C
  C261     1.0000 0.86684  0.37488  0.66163  Biso   1.000  C
  C262     1.0000 0.82529  0.29178  0.00503  Biso   1.000  C
  C263     1.0000 0.70822  0.53350  0.00503  Biso   1.000  C
  C264     1.0000 0.46650  0.17471  0.00503  Biso   1.000  C
  C265     1.0000 0.29178  0.82529  0.99497  Biso   1.000  C
  C266     1.0000 0.17471  0.46650  0.99497  Biso   1.000  C
  C267     1.0000 0.53350  0.70822  0.99497  Biso   1.000  C
  C268     1.0000 0.49195  0.62512  0.33837  Biso   1.000  C
  C269     1.0000 0.37488  0.86684  0.33837  Biso   1.000  C
  C270     1.0000 0.13316  0.50805  0.33837  Biso   1.000  C
  C271     1.0000 0.04155  0.84138  0.67170  Biso   1.000  C
  C272     1.0000 0.15862  0.20017  0.67170  Biso   1.000  C
  C273     1.0000 0.79983  0.95845  0.67170  Biso   1.000  C
  C274     1.0000 0.84138  0.04155  0.32830  Biso   1.000  C
  C275     1.0000 0.95845  0.79983  0.32830  Biso   1.000  C
  C276     1.0000 0.20017  0.15862  0.32830  Biso   1.000  C
  C277     1.0000 0.70822  0.17471  0.00503  Biso   1.000  C
  C278     1.0000 0.82529  0.53350  0.00503  Biso   1.000  C
  C279     1.0000 0.46650  0.29178  0.00503  Biso   1.000  C
  C280     1.0000 0.50805  0.37488  0.66163  Biso   1.000  C
  C281     1.0000 0.62512  0.13316  0.66163  Biso   1.000  C
  C282     1.0000 0.86684  0.49195  0.66163  Biso   1.000  C
  C283     1.0000 0.37488  0.50805  0.33837  Biso   1.000  C
  C284     1.0000 0.49195  0.86684  0.33837  Biso   1.000  C
  C285     1.0000 0.13316  0.62512  0.33837  Biso   1.000  C
  C286     1.0000 0.17471  0.70822  0.99497  Biso   1.000  C
  C287     1.0000 0.29178  0.46650  0.99497  Biso   1.000  C
  C288     1.0000 0.53350  0.82529  0.99497  Biso   1.000  C
  C289     1.0000 0.02727  0.29107  0.28900  Biso   1.000  C
  C290     1.0000 0.70893  0.73620  0.28900  Biso   1.000  C
  C291     1.0000 0.26380  0.97273  0.28900  Biso   1.000  C
  C292     1.0000 0.29107  0.02727  0.71100  Biso   1.000  C
  C293     1.0000 0.97273  0.26380  0.71100  Biso   1.000  C
  C294     1.0000 0.73620  0.70893  0.71100  Biso   1.000  C
  C295     1.0000 0.69394  0.62440  0.62233  Biso   1.000  C
  C296     1.0000 0.37560  0.06953  0.62233  Biso   1.000  C
  C297     1.0000 0.93047  0.30606  0.62233  Biso   1.000  C
  C298     1.0000 0.95774  0.36060  0.04433  Biso   1.000  C
  C299     1.0000 0.63940  0.59713  0.04433  Biso   1.000  C
  C300     1.0000 0.40287  0.04226  0.04433  Biso   1.000  C
  C301     1.0000 0.36060  0.95774  0.95567  Biso   1.000  C
  C302     1.0000 0.04226  0.40287  0.95567  Biso   1.000  C
  C303     1.0000 0.59713  0.63940  0.95567  Biso   1.000  C
  C304     1.0000 0.62440  0.69394  0.37767  Biso   1.000  C
  C305     1.0000 0.30606  0.93047  0.37767  Biso   1.000  C
  C306     1.0000 0.06953  0.37560  0.37767  Biso   1.000  C
  C307     1.0000 0.97273  0.70893  0.71100  Biso   1.000  C
  C308     1.0000 0.29107  0.26380  0.71100  Biso   1.000  C
  C309     1.0000 0.73620  0.02727  0.71100  Biso   1.000  C
  C310     1.0000 0.70893  0.97273  0.28900  Biso   1.000  C
  C311     1.0000 0.02727  0.73620  0.28900  Biso   1.000  C
  C312     1.0000 0.26380  0.29107  0.28900  Biso   1.000  C
  C313     1.0000 0.63940  0.04226  0.04433  Biso   1.000  C
  C314     1.0000 0.95774  0.59713  0.04433  Biso   1.000  C
  C315     1.0000 0.40287  0.36060  0.04433  Biso   1.000  C
  C316     1.0000 0.37560  0.30606  0.62233  Biso   1.000  C
  C317     1.0000 0.69394  0.06953  0.62233  Biso   1.000  C
  C318     1.0000 0.93047  0.62440  0.62233  Biso   1.000  C
  C319     1.0000 0.30606  0.37560  0.37767  Biso   1.000  C
  C320     1.0000 0.62440  0.93047  0.37767  Biso   1.000  C
  C321     1.0000 0.06953  0.69394  0.37767  Biso   1.000  C
  C322     1.0000 0.04226  0.63940  0.95567  Biso   1.000  C
  C323     1.0000 0.36060  0.40287  0.95567  Biso   1.000  C
  C324     1.0000 0.59713  0.95774  0.95567  Biso   1.000  C
  C325     1.0000 0.06054  0.31770  0.27240  Biso   1.000  C
  C326     1.0000 0.68230  0.74284  0.27240  Biso   1.000  C
  C327     1.0000 0.25716  0.93946  0.27240  Biso   1.000  C
  C328     1.0000 0.31770  0.06054  0.72760  Biso   1.000  C
  C329     1.0000 0.93946  0.25716  0.72760  Biso   1.000  C
  C330     1.0000 0.74284  0.68230  0.72760  Biso   1.000  C
  C331     1.0000 0.72721  0.65103  0.60573  Biso   1.000  C
  C332     1.0000 0.34897  0.07617  0.60573  Biso   1.000  C
  C333     1.0000 0.92383  0.27279  0.60573  Biso   1.000  C
  C334     1.0000 0.98437  0.39387  0.06093  Biso   1.000  C
  C335     1.0000 0.60613  0.59049  0.06093  Biso   1.000  C
  C336     1.0000 0.40951  0.01563  0.06093  Biso   1.000  C
  C337     1.0000 0.39387  0.98437  0.93907  Biso   1.000  C
  C338     1.0000 0.01563  0.40951  0.93907  Biso   1.000  C
  C339     1.0000 0.59049  0.60613  0.93907  Biso   1.000  C
  C340     1.0000 0.65103  0.72721  0.39427  Biso   1.000  C
  C341     1.0000 0.27279  0.92383  0.39427  Biso   1.000  C
  C342     1.0000 0.07617  0.34897  0.39427  Biso   1.000  C
  C343     1.0000 0.93946  0.68230  0.72760  Biso   1.000  C
  C344     1.0000 0.31770  0.25716  0.72760  Biso   1.000  C
  C345     1.0000 0.74284  0.06054  0.72760  Biso   1.000  C
  C346     1.0000 0.68230  0.93946  0.27240  Biso   1.000  C
  C347     1.0000 0.06054  0.74284  0.27240  Biso   1.000  C
  C348     1.0000 0.25716  0.31770  0.27240  Biso   1.000  C
  C349     1.0000 0.60613  0.01563  0.06093  Biso   1.000  C
  C350     1.0000 0.98437  0.59049  0.06093  Biso   1.000  C
  C351     1.0000 0.40951  0.39387  0.06093  Biso   1.000  C
  C352     1.0000 0.34897  0.27279  0.60573  Biso   1.000  C
  C353     1.0000 0.72721  0.07617  0.60573  Biso   1.000  C
  C354     1.0000 0.92383  0.65103  0.60573  Biso   1.000  C
  C355     1.0000 0.27279  0.34897  0.39427  Biso   1.000  C
  C356     1.0000 0.65103  0.92383  0.39427  Biso   1.000  C
  C357     1.0000 0.07617  0.72721  0.39427  Biso   1.000  C
  C358     1.0000 0.01563  0.60613  0.93907  Biso   1.000  C
  C359     1.0000 0.39387  0.40951  0.93907  Biso   1.000  C
  C360     1.0000 0.59049  0.98437  0.93907  Biso   1.000  C
  H109     1.0000 0.08130  0.31470  0.27480  Biso   1.000  H
  H110     1.0000 0.68530  0.76660  0.27480  Biso   1.000  H
  H111     1.0000 0.23340  0.91870  0.27480  Biso   1.000  H
  H112     1.0000 0.31470  0.08130  0.72520  Biso   1.000  H
  H113     1.0000 0.91870  0.23340  0.72520  Biso   1.000  H
  H114     1.0000 0.76660  0.68530  0.72520  Biso   1.000  H
  H115     1.0000 0.74797  0.64803  0.60813  Biso   1.000  H
  H116     1.0000 0.35197  0.09993  0.60813  Biso   1.000  H
  H117     1.0000 0.90007  0.25203  0.60813  Biso   1.000  H
  H118     1.0000 0.98137  0.41463  0.05853  Biso   1.000  H
  H119     1.0000 0.58537  0.56673  0.05853  Biso   1.000  H
  H120     1.0000 0.43327  0.01863  0.05853  Biso   1.000  H
  H121     1.0000 0.41463  0.98137  0.94147  Biso   1.000  H
  H122     1.0000 0.01863  0.43327  0.94147  Biso   1.000  H
  H123     1.0000 0.56673  0.58537  0.94147  Biso   1.000  H
  H124     1.0000 0.64803  0.74797  0.39187  Biso   1.000  H
  H125     1.0000 0.25203  0.90007  0.39187  Biso   1.000  H
  H126     1.0000 0.09993  0.35197  0.39187  Biso   1.000  H
  H127     1.0000 0.91870  0.68530  0.72520  Biso   1.000  H
  H128     1.0000 0.31470  0.23340  0.72520  Biso   1.000  H
  H129     1.0000 0.76660  0.08130  0.72520  Biso   1.000  H
  H130     1.0000 0.68530  0.91870  0.27480  Biso   1.000  H
  H131     1.0000 0.08130  0.76660  0.27480  Biso   1.000  H
  H132     1.0000 0.23340  0.31470  0.27480  Biso   1.000  H
  H133     1.0000 0.58537  0.01863  0.05853  Biso   1.000  H
  H134     1.0000 0.98137  0.56673  0.05853  Biso   1.000  H
  H135     1.0000 0.43327  0.41463  0.05853  Biso   1.000  H
  H136     1.0000 0.35197  0.25203  0.60813  Biso   1.000  H
  H137     1.0000 0.74797  0.09993  0.60813  Biso   1.000  H
  H138     1.0000 0.90007  0.64803  0.60813  Biso   1.000  H
  H139     1.0000 0.25203  0.35197  0.39187  Biso   1.000  H
  H140     1.0000 0.64803  0.90007  0.39187  Biso   1.000  H
  H141     1.0000 0.09993  0.74797  0.39187  Biso   1.000  H
  H142     1.0000 0.01863  0.58537  0.94147  Biso   1.000  H
  H143     1.0000 0.41463  0.43327  0.94147  Biso   1.000  H
  H144     1.0000 0.56673  0.98137  0.94147  Biso   1.000  H
  C361     1.0000 0.06401  0.34828  0.25250  Biso   1.000  C
  C362     1.0000 0.65172  0.71573  0.25250  Biso   1.000  C
  C363     1.0000 0.28427  0.93599  0.25250  Biso   1.000  C
  C364     1.0000 0.34828  0.06401  0.74750  Biso   1.000  C
  C365     1.0000 0.93599  0.28427  0.74750  Biso   1.000  C
  C366     1.0000 0.71573  0.65172  0.74750  Biso   1.000  C
  C367     1.0000 0.73068  0.68161  0.58583  Biso   1.000  C
  C368     1.0000 0.31839  0.04906  0.58583  Biso   1.000  C
  C369     1.0000 0.95094  0.26932  0.58583  Biso   1.000  C
  C370     1.0000 0.01495  0.39734  0.08083  Biso   1.000  C
  C371     1.0000 0.60266  0.61760  0.08083  Biso   1.000  C
  C372     1.0000 0.38240  0.98505  0.08083  Biso   1.000  C
  C373     1.0000 0.39734  0.01495  0.91917  Biso   1.000  C
  C374     1.0000 0.98505  0.38240  0.91917  Biso   1.000  C
  C375     1.0000 0.61760  0.60266  0.91917  Biso   1.000  C
  C376     1.0000 0.68161  0.73068  0.41417  Biso   1.000  C
  C377     1.0000 0.26932  0.95094  0.41417  Biso   1.000  C
  C378     1.0000 0.04906  0.31839  0.41417  Biso   1.000  C
  C379     1.0000 0.93599  0.65172  0.74750  Biso   1.000  C
  C380     1.0000 0.34828  0.28427  0.74750  Biso   1.000  C
  C381     1.0000 0.71573  0.06401  0.74750  Biso   1.000  C
  C382     1.0000 0.65172  0.93599  0.25250  Biso   1.000  C
  C383     1.0000 0.06401  0.71573  0.25250  Biso   1.000  C
  C384     1.0000 0.28427  0.34828  0.25250  Biso   1.000  C
  C385     1.0000 0.60266  0.98505  0.08083  Biso   1.000  C
  C386     1.0000 0.01495  0.61760  0.08083  Biso   1.000  C
  C387     1.0000 0.38240  0.39734  0.08083  Biso   1.000  C
  C388     1.0000 0.31839  0.26932  0.58583  Biso   1.000  C
  C389     1.0000 0.73068  0.04906  0.58583  Biso   1.000  C
  C390     1.0000 0.95094  0.68161  0.58583  Biso   1.000  C
  C391     1.0000 0.26932  0.31839  0.41417  Biso   1.000  C
  C392     1.0000 0.68161  0.95094  0.41417  Biso   1.000  C
  C393     1.0000 0.04906  0.73068  0.41417  Biso   1.000  C
  C394     1.0000 0.98505  0.60266  0.91917  Biso   1.000  C
  C395     1.0000 0.39734  0.38240  0.91917  Biso   1.000  C
  C396     1.0000 0.61760  0.01495  0.91917  Biso   1.000  C
  H145     1.0000 0.08690  0.36610  0.24090  Biso   1.000  H
  H146     1.0000 0.63390  0.72080  0.24090  Biso   1.000  H
  H147     1.0000 0.27920  0.91310  0.24090  Biso   1.000  H
  H148     1.0000 0.36610  0.08690  0.75910  Biso   1.000  H
  H149     1.0000 0.91310  0.27920  0.75910  Biso   1.000  H
  H150     1.0000 0.72080  0.63390  0.75910  Biso   1.000  H
  H151     1.0000 0.75357  0.69943  0.57423  Biso   1.000  H
  H152     1.0000 0.30057  0.05413  0.57423  Biso   1.000  H
  H153     1.0000 0.94587  0.24643  0.57423  Biso   1.000  H
  H154     1.0000 0.03277  0.42023  0.09243  Biso   1.000  H
  H155     1.0000 0.57977  0.61253  0.09243  Biso   1.000  H
  H156     1.0000 0.38747  0.96723  0.09243  Biso   1.000  H
  H157     1.0000 0.42023  0.03277  0.90757  Biso   1.000  H
  H158     1.0000 0.96723  0.38747  0.90757  Biso   1.000  H
  H159     1.0000 0.61253  0.57977  0.90757  Biso   1.000  H
  H160     1.0000 0.69943  0.75357  0.42577  Biso   1.000  H
  H161     1.0000 0.24643  0.94587  0.42577  Biso   1.000  H
  H162     1.0000 0.05413  0.30057  0.42577  Biso   1.000  H
  H163     1.0000 0.91310  0.63390  0.75910  Biso   1.000  H
  H164     1.0000 0.36610  0.27920  0.75910  Biso   1.000  H
  H165     1.0000 0.72080  0.08690  0.75910  Biso   1.000  H
  H166     1.0000 0.63390  0.91310  0.24090  Biso   1.000  H
  H167     1.0000 0.08690  0.72080  0.24090  Biso   1.000  H
  H168     1.0000 0.27920  0.36610  0.24090  Biso   1.000  H
  H169     1.0000 0.57977  0.96723  0.09243  Biso   1.000  H
  H170     1.0000 0.03277  0.61253  0.09243  Biso   1.000  H
  H171     1.0000 0.38747  0.42023  0.09243  Biso   1.000  H
  H172     1.0000 0.30057  0.24643  0.57423  Biso   1.000  H
  H173     1.0000 0.75357  0.05413  0.57423  Biso   1.000  H
  H174     1.0000 0.94587  0.69943  0.57423  Biso   1.000  H
  H175     1.0000 0.24643  0.30057  0.42577  Biso   1.000  H
  H176     1.0000 0.69943  0.94587  0.42577  Biso   1.000  H
  H177     1.0000 0.05413  0.75357  0.42577  Biso   1.000  H
  H178     1.0000 0.96723  0.57977  0.90757  Biso   1.000  H
  H179     1.0000 0.42023  0.38747  0.90757  Biso   1.000  H
  H180     1.0000 0.61253  0.03277  0.90757  Biso   1.000  H
  C397     1.0000 0.03398  0.35313  0.24950  Biso   1.000  C
  C398     1.0000 0.64687  0.68085  0.24950  Biso   1.000  C
  C399     1.0000 0.31915  0.96602  0.24950  Biso   1.000  C
  C400     1.0000 0.35313  0.03398  0.75050  Biso   1.000  C
  C401     1.0000 0.96602  0.31915  0.75050  Biso   1.000  C
  C402     1.0000 0.68085  0.64687  0.75050  Biso   1.000  C
  C403     1.0000 0.70065  0.68646  0.58283  Biso   1.000  C
  C404     1.0000 0.31354  0.01418  0.58283  Biso   1.000  C
  C405     1.0000 0.98582  0.29935  0.58283  Biso   1.000  C
  C406     1.0000 0.01980  0.36731  0.08383  Biso   1.000  C
  C407     1.0000 0.63269  0.65248  0.08383  Biso   1.000  C
  C408     1.0000 0.34752  0.98020  0.08383  Biso   1.000  C
  C409     1.0000 0.36731  0.01980  0.91617  Biso   1.000  C
  C410     1.0000 0.98020  0.34752  0.91617  Biso   1.000  C
  C411     1.0000 0.65248  0.63269  0.91617  Biso   1.000  C
  C412     1.0000 0.68646  0.70065  0.41717  Biso   1.000  C
  C413     1.0000 0.29935  0.98582  0.41717  Biso   1.000  C
  C414     1.0000 0.01418  0.31354  0.41717  Biso   1.000  C
  C415     1.0000 0.96602  0.64687  0.75050  Biso   1.000  C
  C416     1.0000 0.35313  0.31915  0.75050  Biso   1.000  C
  C417     1.0000 0.68085  0.03398  0.75050  Biso   1.000  C
  C418     1.0000 0.64687  0.96602  0.24950  Biso   1.000  C
  C419     1.0000 0.03398  0.68085  0.24950  Biso   1.000  C
  C420     1.0000 0.31915  0.35313  0.24950  Biso   1.000  C
  C421     1.0000 0.63269  0.98020  0.08383  Biso   1.000  C
  C422     1.0000 0.01980  0.65248  0.08383  Biso   1.000  C
  C423     1.0000 0.34752  0.36731  0.08383  Biso   1.000  C
  C424     1.0000 0.31354  0.29935  0.58283  Biso   1.000  C
  C425     1.0000 0.70065  0.01418  0.58283  Biso   1.000  C
  C426     1.0000 0.98582  0.68646  0.58283  Biso   1.000  C
  C427     1.0000 0.29935  0.31354  0.41717  Biso   1.000  C
  C428     1.0000 0.68646  0.98582  0.41717  Biso   1.000  C
  C429     1.0000 0.01418  0.70065  0.41717  Biso   1.000  C
  C430     1.0000 0.98020  0.63269  0.91617  Biso   1.000  C
  C431     1.0000 0.36731  0.34752  0.91617  Biso   1.000  C
  C432     1.0000 0.65248  0.01980  0.91617  Biso   1.000  C
  C433     1.0000 0.00101  0.32699  0.26560  Biso   1.000  C
  C434     1.0000 0.67301  0.67402  0.26560  Biso   1.000  C
  C435     1.0000 0.32598  0.99899  0.26560  Biso   1.000  C
  C436     1.0000 0.32699  0.00101  0.73440  Biso   1.000  C
  C437     1.0000 0.99899  0.32598  0.73440  Biso   1.000  C
  C438     1.0000 0.67402  0.67301  0.73440  Biso   1.000  C
  C439     1.0000 0.66768  0.66032  0.59893  Biso   1.000  C
  C440     1.0000 0.33968  0.00735  0.59893  Biso   1.000  C
  C441     1.0000 0.99265  0.33232  0.59893  Biso   1.000  C
  C442     1.0000 0.99366  0.33434  0.06773  Biso   1.000  C
  C443     1.0000 0.66566  0.65931  0.06773  Biso   1.000  C
  C444     1.0000 0.34069  0.00634  0.06773  Biso   1.000  C
  C445     1.0000 0.33434  0.99366  0.93227  Biso   1.000  C
  C446     1.0000 0.00634  0.34069  0.93227  Biso   1.000  C
  C447     1.0000 0.65931  0.66566  0.93227  Biso   1.000  C
  C448     1.0000 0.66032  0.66768  0.40107  Biso   1.000  C
  C449     1.0000 0.33232  0.99265  0.40107  Biso   1.000  C
  C450     1.0000 0.00735  0.33968  0.40107  Biso   1.000  C
  C451     1.0000 0.99899  0.67301  0.73440  Biso   1.000  C
  C452     1.0000 0.32699  0.32598  0.73440  Biso   1.000  C
  C453     1.0000 0.67402  0.00101  0.73440  Biso   1.000  C
  C454     1.0000 0.67301  0.99899  0.26560  Biso   1.000  C
  C455     1.0000 0.00101  0.67402  0.26560  Biso   1.000  C
  C456     1.0000 0.32598  0.32699  0.26560  Biso   1.000  C
  C457     1.0000 0.66566  0.00634  0.06773  Biso   1.000  C
  C458     1.0000 0.99366  0.65931  0.06773  Biso   1.000  C
  C459     1.0000 0.34069  0.33434  0.06773  Biso   1.000  C
  C460     1.0000 0.33968  0.33232  0.59893  Biso   1.000  C
  C461     1.0000 0.66768  0.00735  0.59893  Biso   1.000  C
  C462     1.0000 0.99265  0.66032  0.59893  Biso   1.000  C
  C463     1.0000 0.33232  0.33968  0.40107  Biso   1.000  C
  C464     1.0000 0.66032  0.99265  0.40107  Biso   1.000  C
  C465     1.0000 0.00735  0.66768  0.40107  Biso   1.000  C
  C466     1.0000 0.00634  0.66566  0.93227  Biso   1.000  C
  C467     1.0000 0.33434  0.34069  0.93227  Biso   1.000  C
  C468     1.0000 0.65931  0.99366  0.93227  Biso   1.000  C
  H181     1.0000 0.98040  0.33020  0.26360  Biso   1.000  H
  H182     1.0000 0.66980  0.65020  0.26360  Biso   1.000  H
  H183     1.0000 0.34980  0.01960  0.26360  Biso   1.000  H
  H184     1.0000 0.33020  0.98040  0.73640  Biso   1.000  H
  H185     1.0000 0.01960  0.34980  0.73640  Biso   1.000  H
  H186     1.0000 0.65020  0.66980  0.73640  Biso   1.000  H
  H187     1.0000 0.64707  0.66353  0.59693  Biso   1.000  H
  H188     1.0000 0.33647  0.98353  0.59693  Biso   1.000  H
  H189     1.0000 0.01647  0.35293  0.59693  Biso   1.000  H
  H190     1.0000 0.99687  0.31373  0.06973  Biso   1.000  H
  H191     1.0000 0.68627  0.68313  0.06973  Biso   1.000  H
  H192     1.0000 0.31687  0.00313  0.06973  Biso   1.000  H
  H193     1.0000 0.31373  0.99687  0.93027  Biso   1.000  H
  H194     1.0000 0.00313  0.31687  0.93027  Biso   1.000  H
  H195     1.0000 0.68313  0.68627  0.93027  Biso   1.000  H
  H196     1.0000 0.66353  0.64707  0.40307  Biso   1.000  H
  H197     1.0000 0.35293  0.01647  0.40307  Biso   1.000  H
  H198     1.0000 0.98353  0.33647  0.40307  Biso   1.000  H
  H199     1.0000 0.01960  0.66980  0.73640  Biso   1.000  H
  H200     1.0000 0.33020  0.34980  0.73640  Biso   1.000  H
  H201     1.0000 0.65020  0.98040  0.73640  Biso   1.000  H
  H202     1.0000 0.66980  0.01960  0.26360  Biso   1.000  H
  H203     1.0000 0.98040  0.65020  0.26360  Biso   1.000  H
  H204     1.0000 0.34980  0.33020  0.26360  Biso   1.000  H
  H205     1.0000 0.68627  0.00313  0.06973  Biso   1.000  H
  H206     1.0000 0.99687  0.68313  0.06973  Biso   1.000  H
  H207     1.0000 0.31687  0.31373  0.06973  Biso   1.000  H
  H208     1.0000 0.33647  0.35293  0.59693  Biso   1.000  H
  H209     1.0000 0.64707  0.98353  0.59693  Biso   1.000  H
  H210     1.0000 0.01647  0.66353  0.59693  Biso   1.000  H
  H211     1.0000 0.35293  0.33647  0.40307  Biso   1.000  H
  H212     1.0000 0.66353  0.01647  0.40307  Biso   1.000  H
  H213     1.0000 0.98353  0.64707  0.40307  Biso   1.000  H
  H214     1.0000 0.00313  0.68627  0.93027  Biso   1.000  H
  H215     1.0000 0.31373  0.31687  0.93027  Biso   1.000  H
  H216     1.0000 0.68313  0.99687  0.93027  Biso   1.000  H
  C469     1.0000 0.99752  0.29560  0.28490  Biso   1.000  C
  C470     1.0000 0.70440  0.70192  0.28490  Biso   1.000  C
  C471     1.0000 0.29808  0.00248  0.28490  Biso   1.000  C
  C472     1.0000 0.29560  0.99752  0.71510  Biso   1.000  C
  C473     1.0000 0.00248  0.29808  0.71510  Biso   1.000  C
  C474     1.0000 0.70192  0.70440  0.71510  Biso   1.000  C
  C475     1.0000 0.66419  0.62893  0.61823  Biso   1.000  C
  C476     1.0000 0.37107  0.03525  0.61823  Biso   1.000  C
  C477     1.0000 0.96475  0.33581  0.61823  Biso   1.000  C
  C478     1.0000 0.96227  0.33085  0.04843  Biso   1.000  C
  C479     1.0000 0.66915  0.63141  0.04843  Biso   1.000  C
  C480     1.0000 0.36859  0.03773  0.04843  Biso   1.000  C
  C481     1.0000 0.33085  0.96227  0.95157  Biso   1.000  C
  C482     1.0000 0.03773  0.36859  0.95157  Biso   1.000  C
  C483     1.0000 0.63141  0.66915  0.95157  Biso   1.000  C
  C484     1.0000 0.62893  0.66419  0.38177  Biso   1.000  C
  C485     1.0000 0.33581  0.96475  0.38177  Biso   1.000  C
  C486     1.0000 0.03525  0.37107  0.38177  Biso   1.000  C
  C487     1.0000 0.00248  0.70440  0.71510  Biso   1.000  C
  C488     1.0000 0.29560  0.29808  0.71510  Biso   1.000  C
  C489     1.0000 0.70192  0.99752  0.71510  Biso   1.000  C
  C490     1.0000 0.70440  0.00248  0.28490  Biso   1.000  C
  C491     1.0000 0.99752  0.70192  0.28490  Biso   1.000  C
  C492     1.0000 0.29808  0.29560  0.28490  Biso   1.000  C
  C493     1.0000 0.66915  0.03773  0.04843  Biso   1.000  C
  C494     1.0000 0.96227  0.63141  0.04843  Biso   1.000  C
  C495     1.0000 0.36859  0.33085  0.04843  Biso   1.000  C
  C496     1.0000 0.37107  0.33581  0.61823  Biso   1.000  C
  C497     1.0000 0.66419  0.03525  0.61823  Biso   1.000  C
  C498     1.0000 0.96475  0.62893  0.61823  Biso   1.000  C
  C499     1.0000 0.33581  0.37107  0.38177  Biso   1.000  C
  C500     1.0000 0.62893  0.96475  0.38177  Biso   1.000  C
  C501     1.0000 0.03525  0.66419  0.38177  Biso   1.000  C
  C502     1.0000 0.03773  0.66915  0.95157  Biso   1.000  C
  C503     1.0000 0.33085  0.36859  0.95157  Biso   1.000  C
  C504     1.0000 0.63141  0.96227  0.95157  Biso   1.000  C
  H217     1.0000 0.97440  0.27730  0.29530  Biso   1.000  H
  H218     1.0000 0.72270  0.69710  0.29530  Biso   1.000  H
  H219     1.0000 0.30290  0.02560  0.29530  Biso   1.000  H
  H220     1.0000 0.27730  0.97440  0.70470  Biso   1.000  H
  H221     1.0000 0.02560  0.30290  0.70470  Biso   1.000  H
  H222     1.0000 0.69710  0.72270  0.70470  Biso   1.000  H
  H223     1.0000 0.64107  0.61063  0.62863  Biso   1.000  H
  H224     1.0000 0.38937  0.03043  0.62863  Biso   1.000  H
  H225     1.0000 0.96957  0.35893  0.62863  Biso   1.000  H
  H226     1.0000 0.94397  0.30773  0.03803  Biso   1.000  H
  H227     1.0000 0.69227  0.63623  0.03803  Biso   1.000  H
  H228     1.0000 0.36377  0.05603  0.03803  Biso   1.000  H
  H229     1.0000 0.30773  0.94397  0.96197  Biso   1.000  H
  H230     1.0000 0.05603  0.36377  0.96197  Biso   1.000  H
  H231     1.0000 0.63623  0.69227  0.96197  Biso   1.000  H
  H232     1.0000 0.61063  0.64107  0.37137  Biso   1.000  H
  H233     1.0000 0.35893  0.96957  0.37137  Biso   1.000  H
  H234     1.0000 0.03043  0.38937  0.37137  Biso   1.000  H
  H235     1.0000 0.02560  0.72270  0.70470  Biso   1.000  H
  H236     1.0000 0.27730  0.30290  0.70470  Biso   1.000  H
  H237     1.0000 0.69710  0.97440  0.70470  Biso   1.000  H
  H238     1.0000 0.72270  0.02560  0.29530  Biso   1.000  H
  H239     1.0000 0.97440  0.69710  0.29530  Biso   1.000  H
  H240     1.0000 0.30290  0.27730  0.29530  Biso   1.000  H
  H241     1.0000 0.69227  0.05603  0.03803  Biso   1.000  H
  H242     1.0000 0.94397  0.63623  0.03803  Biso   1.000  H
  H243     1.0000 0.36377  0.30773  0.03803  Biso   1.000  H
  H244     1.0000 0.38937  0.35893  0.62863  Biso   1.000  H
  H245     1.0000 0.64107  0.03043  0.62863  Biso   1.000  H
  H246     1.0000 0.96957  0.61063  0.62863  Biso   1.000  H
  H247     1.0000 0.35893  0.38937  0.37137  Biso   1.000  H
  H248     1.0000 0.61063  0.96957  0.37137  Biso   1.000  H
  H249     1.0000 0.03043  0.64107  0.37137  Biso   1.000  H
  H250     1.0000 0.05603  0.69227  0.96197  Biso   1.000  H
  H251     1.0000 0.30773  0.36377  0.96197  Biso   1.000  H
  H252     1.0000 0.63623  0.94397  0.96197  Biso   1.000  H
  C505     1.0000 0.03882  0.38734  0.23040  Biso   1.000  C
  C506     1.0000 0.61266  0.65148  0.23040  Biso   1.000  C
  C507     1.0000 0.34852  0.96118  0.23040  Biso   1.000  C
  C508     1.0000 0.38734  0.03882  0.76960  Biso   1.000  C
  C509     1.0000 0.96118  0.34852  0.76960  Biso   1.000  C
  C510     1.0000 0.65148  0.61266  0.76960  Biso   1.000  C
  C511     1.0000 0.70549  0.72067  0.56373  Biso   1.000  C
  C512     1.0000 0.27933  0.98481  0.56373  Biso   1.000  C
  C513     1.0000 0.01519  0.29451  0.56373  Biso   1.000  C
  C514     1.0000 0.05401  0.37215  0.10293  Biso   1.000  C
  C515     1.0000 0.62785  0.68185  0.10293  Biso   1.000  C
  C516     1.0000 0.31815  0.94599  0.10293  Biso   1.000  C
  C517     1.0000 0.37215  0.05401  0.89707  Biso   1.000  C
  C518     1.0000 0.94599  0.31815  0.89707  Biso   1.000  C
  C519     1.0000 0.68185  0.62785  0.89707  Biso   1.000  C
  C520     1.0000 0.72067  0.70549  0.43627  Biso   1.000  C
  C521     1.0000 0.29451  0.01519  0.43627  Biso   1.000  C
  C522     1.0000 0.98481  0.27933  0.43627  Biso   1.000  C
  C523     1.0000 0.96118  0.61266  0.76960  Biso   1.000  C
  C524     1.0000 0.38734  0.34852  0.76960  Biso   1.000  C
  C525     1.0000 0.65148  0.03882  0.76960  Biso   1.000  C
  C526     1.0000 0.61266  0.96118  0.23040  Biso   1.000  C
  C527     1.0000 0.03882  0.65148  0.23040  Biso   1.000  C
  C528     1.0000 0.34852  0.38734  0.23040  Biso   1.000  C
  C529     1.0000 0.62785  0.94599  0.10293  Biso   1.000  C
  C530     1.0000 0.05401  0.68185  0.10293  Biso   1.000  C
  C531     1.0000 0.31815  0.37215  0.10293  Biso   1.000  C
  C532     1.0000 0.27933  0.29451  0.56373  Biso   1.000  C
  C533     1.0000 0.70549  0.98481  0.56373  Biso   1.000  C
  C534     1.0000 0.01519  0.72067  0.56373  Biso   1.000  C
  C535     1.0000 0.29451  0.27933  0.43627  Biso   1.000  C
  C536     1.0000 0.72067  0.01519  0.43627  Biso   1.000  C
  C537     1.0000 0.98481  0.70549  0.43627  Biso   1.000  C
  C538     1.0000 0.94599  0.62785  0.89707  Biso   1.000  C
  C539     1.0000 0.37215  0.31815  0.89707  Biso   1.000  C
  C540     1.0000 0.68185  0.05401  0.89707  Biso   1.000  C
  C541     1.0000 0.07120  0.41964  0.23490  Biso   1.000  C
  C542     1.0000 0.58036  0.65156  0.23490  Biso   1.000  C
  C543     1.0000 0.34844  0.92880  0.23490  Biso   1.000  C
  C544     1.0000 0.41964  0.07120  0.76510  Biso   1.000  C
  C545     1.0000 0.92880  0.34844  0.76510  Biso   1.000  C
  C546     1.0000 0.65156  0.58036  0.76510  Biso   1.000  C
  C547     1.0000 0.73787  0.75297  0.56823  Biso   1.000  C
  C548     1.0000 0.24703  0.98489  0.56823  Biso   1.000  C
  C549     1.0000 0.01511  0.26213  0.56823  Biso   1.000  C
  C550     1.0000 0.08631  0.40453  0.09843  Biso   1.000  C
  C551     1.0000 0.59547  0.68177  0.09843  Biso   1.000  C
  C552     1.0000 0.31823  0.91369  0.09843  Biso   1.000  C
  C553     1.0000 0.40453  0.08631  0.90157  Biso   1.000  C
  C554     1.0000 0.91369  0.31823  0.90157  Biso   1.000  C
  C555     1.0000 0.68177  0.59547  0.90157  Biso   1.000  C
  C556     1.0000 0.75297  0.73787  0.43177  Biso   1.000  C
  C557     1.0000 0.26213  0.01511  0.43177  Biso   1.000  C
  C558     1.0000 0.98489  0.24703  0.43177  Biso   1.000  C
  C559     1.0000 0.92880  0.58036  0.76510  Biso   1.000  C
  C560     1.0000 0.41964  0.34844  0.76510  Biso   1.000  C
  C561     1.0000 0.65156  0.07120  0.76510  Biso   1.000  C
  C562     1.0000 0.58036  0.92880  0.23490  Biso   1.000  C
  C563     1.0000 0.07120  0.65156  0.23490  Biso   1.000  C
  C564     1.0000 0.34844  0.41964  0.23490  Biso   1.000  C
  C565     1.0000 0.59547  0.91369  0.09843  Biso   1.000  C
  C566     1.0000 0.08631  0.68177  0.09843  Biso   1.000  C
  C567     1.0000 0.31823  0.40453  0.09843  Biso   1.000  C
  C568     1.0000 0.24703  0.26213  0.56823  Biso   1.000  C
  C569     1.0000 0.73787  0.98489  0.56823  Biso   1.000  C
  C570     1.0000 0.01511  0.75297  0.56823  Biso   1.000  C
  C571     1.0000 0.26213  0.24703  0.43177  Biso   1.000  C
  C572     1.0000 0.75297  0.01511  0.43177  Biso   1.000  C
  C573     1.0000 0.98489  0.73787  0.43177  Biso   1.000  C
  C574     1.0000 0.91369  0.59547  0.90157  Biso   1.000  C
  C575     1.0000 0.40453  0.31823  0.90157  Biso   1.000  C
  C576     1.0000 0.68177  0.08631  0.90157  Biso   1.000  C
  H253     1.0000 0.09030  0.42010  0.25160  Biso   1.000  H
  H254     1.0000 0.57990  0.67020  0.25160  Biso   1.000  H
  H255     1.0000 0.32980  0.90970  0.25160  Biso   1.000  H
  H256     1.0000 0.42010  0.09030  0.74840  Biso   1.000  H
  H257     1.0000 0.90970  0.32980  0.74840  Biso   1.000  H
  H258     1.0000 0.67020  0.57990  0.74840  Biso   1.000  H
  H259     1.0000 0.75697  0.75343  0.58493  Biso   1.000  H
  H260     1.0000 0.24657  0.00353  0.58493  Biso   1.000  H
  H261     1.0000 0.99647  0.24303  0.58493  Biso   1.000  H
  H262     1.0000 0.08677  0.42363  0.08173  Biso   1.000  H
  H263     1.0000 0.57637  0.66313  0.08173  Biso   1.000  H
  H264     1.0000 0.33687  0.91323  0.08173  Biso   1.000  H
  H265     1.0000 0.42363  0.08677  0.91827  Biso   1.000  H
  H266     1.0000 0.91323  0.33687  0.91827  Biso   1.000  H
  H267     1.0000 0.66313  0.57637  0.91827  Biso   1.000  H
  H268     1.0000 0.75343  0.75697  0.41507  Biso   1.000  H
  H269     1.0000 0.24303  0.99647  0.41507  Biso   1.000  H
  H270     1.0000 0.00353  0.24657  0.41507  Biso   1.000  H
  H271     1.0000 0.90970  0.57990  0.74840  Biso   1.000  H
  H272     1.0000 0.42010  0.32980  0.74840  Biso   1.000  H
  H273     1.0000 0.67020  0.09030  0.74840  Biso   1.000  H
  H274     1.0000 0.57990  0.90970  0.25160  Biso   1.000  H
  H275     1.0000 0.09030  0.67020  0.25160  Biso   1.000  H
  H276     1.0000 0.32980  0.42010  0.25160  Biso   1.000  H
  H277     1.0000 0.57637  0.91323  0.08173  Biso   1.000  H
  H278     1.0000 0.08677  0.66313  0.08173  Biso   1.000  H
  H279     1.0000 0.33687  0.42363  0.08173  Biso   1.000  H
  H280     1.0000 0.24657  0.24303  0.58493  Biso   1.000  H
  H281     1.0000 0.75697  0.00353  0.58493  Biso   1.000  H
  H282     1.0000 0.99647  0.75343  0.58493  Biso   1.000  H
  H283     1.0000 0.24303  0.24657  0.41507  Biso   1.000  H
  H284     1.0000 0.75343  0.99647  0.41507  Biso   1.000  H
  H285     1.0000 0.00353  0.75697  0.41507  Biso   1.000  H
  H286     1.0000 0.91323  0.57637  0.91827  Biso   1.000  H
  H287     1.0000 0.42363  0.33687  0.91827  Biso   1.000  H
  H288     1.0000 0.66313  0.08677  0.91827  Biso   1.000  H
  C577     1.0000 0.07660  0.45141  0.21560  Biso   1.000  C
  C578     1.0000 0.54859  0.62519  0.21560  Biso   1.000  C
  C579     1.0000 0.37481  0.92340  0.21560  Biso   1.000  C
  C580     1.0000 0.45141  0.07660  0.78440  Biso   1.000  C
  C581     1.0000 0.92340  0.37481  0.78440  Biso   1.000  C
  C582     1.0000 0.62519  0.54859  0.78440  Biso   1.000  C
  C583     1.0000 0.74327  0.78474  0.54893  Biso   1.000  C
  C584     1.0000 0.21526  0.95852  0.54893  Biso   1.000  C
  C585     1.0000 0.04148  0.25673  0.54893  Biso   1.000  C
  C586     1.0000 0.11808  0.40993  0.11773  Biso   1.000  C
  C587     1.0000 0.59007  0.70814  0.11773  Biso   1.000  C
  C588     1.0000 0.29186  0.88192  0.11773  Biso   1.000  C
  C589     1.0000 0.40993  0.11808  0.88227  Biso   1.000  C
  C590     1.0000 0.88192  0.29186  0.88227  Biso   1.000  C
  C591     1.0000 0.70814  0.59007  0.88227  Biso   1.000  C
  C592     1.0000 0.78474  0.74327  0.45107  Biso   1.000  C
  C593     1.0000 0.25673  0.04148  0.45107  Biso   1.000  C
  C594     1.0000 0.95852  0.21526  0.45107  Biso   1.000  C
  C595     1.0000 0.92340  0.54859  0.78440  Biso   1.000  C
  C596     1.0000 0.45141  0.37481  0.78440  Biso   1.000  C
  C597     1.0000 0.62519  0.07660  0.78440  Biso   1.000  C
  C598     1.0000 0.54859  0.92340  0.21560  Biso   1.000  C
  C599     1.0000 0.07660  0.62519  0.21560  Biso   1.000  C
  C600     1.0000 0.37481  0.45141  0.21560  Biso   1.000  C
  C601     1.0000 0.59007  0.88192  0.11773  Biso   1.000  C
  C602     1.0000 0.11808  0.70814  0.11773  Biso   1.000  C
  C603     1.0000 0.29186  0.40993  0.11773  Biso   1.000  C
  C604     1.0000 0.21526  0.25673  0.54893  Biso   1.000  C
  C605     1.0000 0.74327  0.95852  0.54893  Biso   1.000  C
  C606     1.0000 0.04148  0.78474  0.54893  Biso   1.000  C
  C607     1.0000 0.25673  0.21526  0.45107  Biso   1.000  C
  C608     1.0000 0.78474  0.04148  0.45107  Biso   1.000  C
  C609     1.0000 0.95852  0.74327  0.45107  Biso   1.000  C
  C610     1.0000 0.88192  0.59007  0.88227  Biso   1.000  C
  C611     1.0000 0.40993  0.29186  0.88227  Biso   1.000  C
  C612     1.0000 0.70814  0.11808  0.88227  Biso   1.000  C
  H289     1.0000 0.09910  0.47350  0.21960  Biso   1.000  H
  H290     1.0000 0.52650  0.62560  0.21960  Biso   1.000  H
  H291     1.0000 0.37440  0.90090  0.21960  Biso   1.000  H
  H292     1.0000 0.47350  0.09910  0.78040  Biso   1.000  H
  H293     1.0000 0.90090  0.37440  0.78040  Biso   1.000  H
  H294     1.0000 0.62560  0.52650  0.78040  Biso   1.000  H
  H295     1.0000 0.76577  0.80683  0.55293  Biso   1.000  H
  H296     1.0000 0.19317  0.95893  0.55293  Biso   1.000  H
  H297     1.0000 0.04107  0.23423  0.55293  Biso   1.000  H
  H298     1.0000 0.14017  0.43243  0.11373  Biso   1.000  H
  H299     1.0000 0.56757  0.70773  0.11373  Biso   1.000  H
  H300     1.0000 0.29227  0.85983  0.11373  Biso   1.000  H
  H301     1.0000 0.43243  0.14017  0.88627  Biso   1.000  H
  H302     1.0000 0.85983  0.29227  0.88627  Biso   1.000  H
  H303     1.0000 0.70773  0.56757  0.88627  Biso   1.000  H
  H304     1.0000 0.80683  0.76577  0.44707  Biso   1.000  H
  H305     1.0000 0.23423  0.04107  0.44707  Biso   1.000  H
  H306     1.0000 0.95893  0.19317  0.44707  Biso   1.000  H
  H307     1.0000 0.90090  0.52650  0.78040  Biso   1.000  H
  H308     1.0000 0.47350  0.37440  0.78040  Biso   1.000  H
  H309     1.0000 0.62560  0.09910  0.78040  Biso   1.000  H
  H310     1.0000 0.52650  0.90090  0.21960  Biso   1.000  H
  H311     1.0000 0.09910  0.62560  0.21960  Biso   1.000  H
  H312     1.0000 0.37440  0.47350  0.21960  Biso   1.000  H
  H313     1.0000 0.56757  0.85983  0.11373  Biso   1.000  H
  H314     1.0000 0.14017  0.70773  0.11373  Biso   1.000  H
  H315     1.0000 0.29227  0.43243  0.11373  Biso   1.000  H
  H316     1.0000 0.19317  0.23423  0.55293  Biso   1.000  H
  H317     1.0000 0.76577  0.95893  0.55293  Biso   1.000  H
  H318     1.0000 0.04107  0.80683  0.55293  Biso   1.000  H
  H319     1.0000 0.23423  0.19317  0.44707  Biso   1.000  H
  H320     1.0000 0.80683  0.04107  0.44707  Biso   1.000  H
  H321     1.0000 0.95893  0.76577  0.44707  Biso   1.000  H
  H322     1.0000 0.85983  0.56757  0.88627  Biso   1.000  H
  H323     1.0000 0.43243  0.29227  0.88627  Biso   1.000  H
  H324     1.0000 0.70773  0.14017  0.88627  Biso   1.000  H
  C613     1.0000 0.04958  0.45116  0.19080  Biso   1.000  C
  C614     1.0000 0.54884  0.59842  0.19080  Biso   1.000  C
  C615     1.0000 0.40158  0.95042  0.19080  Biso   1.000  C
  C616     1.0000 0.45116  0.04958  0.80920  Biso   1.000  C
  C617     1.0000 0.95042  0.40158  0.80920  Biso   1.000  C
  C618     1.0000 0.59842  0.54884  0.80920  Biso   1.000  C
  C619     1.0000 0.71625  0.78449  0.52413  Biso   1.000  C
  C620     1.0000 0.21551  0.93175  0.52413  Biso   1.000  C
  C621     1.0000 0.06825  0.28375  0.52413  Biso   1.000  C
  C622     1.0000 0.11783  0.38291  0.14253  Biso   1.000  C
  C623     1.0000 0.61709  0.73491  0.14253  Biso   1.000  C
  C624     1.0000 0.26509  0.88217  0.14253  Biso   1.000  C
  C625     1.0000 0.38291  0.11783  0.85747  Biso   1.000  C
  C626     1.0000 0.88217  0.26509  0.85747  Biso   1.000  C
  C627     1.0000 0.73491  0.61709  0.85747  Biso   1.000  C
  C628     1.0000 0.78449  0.71625  0.47587  Biso   1.000  C
  C629     1.0000 0.28375  0.06825  0.47587  Biso   1.000  C
  C630     1.0000 0.93175  0.21551  0.47587  Biso   1.000  C
  C631     1.0000 0.95042  0.54884  0.80920  Biso   1.000  C
  C632     1.0000 0.45116  0.40158  0.80920  Biso   1.000  C
  C633     1.0000 0.59842  0.04958  0.80920  Biso   1.000  C
  C634     1.0000 0.54884  0.95042  0.19080  Biso   1.000  C
  C635     1.0000 0.04958  0.59842  0.19080  Biso   1.000  C
  C636     1.0000 0.40158  0.45116  0.19080  Biso   1.000  C
  C637     1.0000 0.61709  0.88217  0.14253  Biso   1.000  C
  C638     1.0000 0.11783  0.73491  0.14253  Biso   1.000  C
  C639     1.0000 0.26509  0.38291  0.14253  Biso   1.000  C
  C640     1.0000 0.21551  0.28375  0.52413  Biso   1.000  C
  C641     1.0000 0.71625  0.93175  0.52413  Biso   1.000  C
  C642     1.0000 0.06825  0.78449  0.52413  Biso   1.000  C
  C643     1.0000 0.28375  0.21551  0.47587  Biso   1.000  C
  C644     1.0000 0.78449  0.06825  0.47587  Biso   1.000  C
  C645     1.0000 0.93175  0.71625  0.47587  Biso   1.000  C
  C646     1.0000 0.88217  0.61709  0.85747  Biso   1.000  C
  C647     1.0000 0.38291  0.26509  0.85747  Biso   1.000  C
  C648     1.0000 0.73491  0.11783  0.85747  Biso   1.000  C
  C649     1.0000 0.01560  0.41896  0.18690  Biso   1.000  C
  C650     1.0000 0.58104  0.59664  0.18690  Biso   1.000  C
  C651     1.0000 0.40336  0.98440  0.18690  Biso   1.000  C
  C652     1.0000 0.41896  0.01560  0.81310  Biso   1.000  C
  C653     1.0000 0.98440  0.40336  0.81310  Biso   1.000  C
  C654     1.0000 0.59664  0.58104  0.81310  Biso   1.000  C
  C655     1.0000 0.68227  0.75229  0.52023  Biso   1.000  C
  C656     1.0000 0.24771  0.92997  0.52023  Biso   1.000  C
  C657     1.0000 0.07003  0.31773  0.52023  Biso   1.000  C
  C658     1.0000 0.08563  0.34893  0.14643  Biso   1.000  C
  C659     1.0000 0.65107  0.73669  0.14643  Biso   1.000  C
  C660     1.0000 0.26331  0.91437  0.14643  Biso   1.000  C
  C661     1.0000 0.34893  0.08563  0.85357  Biso   1.000  C
  C662     1.0000 0.91437  0.26331  0.85357  Biso   1.000  C
  C663     1.0000 0.73669  0.65107  0.85357  Biso   1.000  C
  C664     1.0000 0.75229  0.68227  0.47977  Biso   1.000  C
  C665     1.0000 0.31773  0.07003  0.47977  Biso   1.000  C
  C666     1.0000 0.92997  0.24771  0.47977  Biso   1.000  C
  C667     1.0000 0.98440  0.58104  0.81310  Biso   1.000  C
  C668     1.0000 0.41896  0.40336  0.81310  Biso   1.000  C
  C669     1.0000 0.59664  0.01560  0.81310  Biso   1.000  C
  C670     1.0000 0.58104  0.98440  0.18690  Biso   1.000  C
  C671     1.0000 0.01560  0.59664  0.18690  Biso   1.000  C
  C672     1.0000 0.40336  0.41896  0.18690  Biso   1.000  C
  C673     1.0000 0.65107  0.91437  0.14643  Biso   1.000  C
  C674     1.0000 0.08563  0.73669  0.14643  Biso   1.000  C
  C675     1.0000 0.26331  0.34893  0.14643  Biso   1.000  C
  C676     1.0000 0.24771  0.31773  0.52023  Biso   1.000  C
  C677     1.0000 0.68227  0.92997  0.52023  Biso   1.000  C
  C678     1.0000 0.07003  0.75229  0.52023  Biso   1.000  C
  C679     1.0000 0.31773  0.24771  0.47977  Biso   1.000  C
  C680     1.0000 0.75229  0.07003  0.47977  Biso   1.000  C
  C681     1.0000 0.92997  0.68227  0.47977  Biso   1.000  C
  C682     1.0000 0.91437  0.65107  0.85357  Biso   1.000  C
  C683     1.0000 0.34893  0.26331  0.85357  Biso   1.000  C
  C684     1.0000 0.73669  0.08563  0.85357  Biso   1.000  C
  H325     1.0000 0.99660  0.41860  0.17010  Biso   1.000  H
  H326     1.0000 0.58140  0.57800  0.17010  Biso   1.000  H
  H327     1.0000 0.42200  0.00340  0.17010  Biso   1.000  H
  H328     1.0000 0.41860  0.99660  0.82990  Biso   1.000  H
  H329     1.0000 0.00340  0.42200  0.82990  Biso   1.000  H
  H330     1.0000 0.57800  0.58140  0.82990  Biso   1.000  H
  H331     1.0000 0.66327  0.75193  0.50343  Biso   1.000  H
  H332     1.0000 0.24807  0.91133  0.50343  Biso   1.000  H
  H333     1.0000 0.08867  0.33673  0.50343  Biso   1.000  H
  H334     1.0000 0.08527  0.32993  0.16323  Biso   1.000  H
  H335     1.0000 0.67007  0.75533  0.16323  Biso   1.000  H
  H336     1.0000 0.24467  0.91473  0.16323  Biso   1.000  H
  H337     1.0000 0.32993  0.08527  0.83677  Biso   1.000  H
  H338     1.0000 0.91473  0.24467  0.83677  Biso   1.000  H
  H339     1.0000 0.75533  0.67007  0.83677  Biso   1.000  H
  H340     1.0000 0.75193  0.66327  0.49657  Biso   1.000  H
  H341     1.0000 0.33673  0.08867  0.49657  Biso   1.000  H
  H342     1.0000 0.91133  0.24807  0.49657  Biso   1.000  H
  H343     1.0000 0.00340  0.58140  0.82990  Biso   1.000  H
  H344     1.0000 0.41860  0.42200  0.82990  Biso   1.000  H
  H345     1.0000 0.57800  0.99660  0.82990  Biso   1.000  H
  H346     1.0000 0.58140  0.00340  0.17010  Biso   1.000  H
  H347     1.0000 0.99660  0.57800  0.17010  Biso   1.000  H
  H348     1.0000 0.42200  0.41860  0.17010  Biso   1.000  H
  H349     1.0000 0.67007  0.91473  0.16323  Biso   1.000  H
  H350     1.0000 0.08527  0.75533  0.16323  Biso   1.000  H
  H351     1.0000 0.24467  0.32993  0.16323  Biso   1.000  H
  H352     1.0000 0.24807  0.33673  0.50343  Biso   1.000  H
  H353     1.0000 0.66327  0.91133  0.50343  Biso   1.000  H
  H354     1.0000 0.08867  0.75193  0.50343  Biso   1.000  H
  H355     1.0000 0.33673  0.24807  0.49657  Biso   1.000  H
  H356     1.0000 0.75193  0.08867  0.49657  Biso   1.000  H
  H357     1.0000 0.91133  0.66327  0.49657  Biso   1.000  H
  H358     1.0000 0.91473  0.67007  0.83677  Biso   1.000  H
  H359     1.0000 0.32993  0.24467  0.83677  Biso   1.000  H
  H360     1.0000 0.75533  0.08527  0.83677  Biso   1.000  H
  C685     1.0000 0.01032  0.38762  0.20800  Biso   1.000  C
  C686     1.0000 0.61238  0.62270  0.20800  Biso   1.000  C
  C687     1.0000 0.37730  0.98968  0.20800  Biso   1.000  C
  C688     1.0000 0.38762  0.01032  0.79200  Biso   1.000  C
  C689     1.0000 0.98968  0.37730  0.79200  Biso   1.000  C
  C690     1.0000 0.62270  0.61238  0.79200  Biso   1.000  C
  C691     1.0000 0.67699  0.72095  0.54133  Biso   1.000  C
  C692     1.0000 0.27905  0.95603  0.54133  Biso   1.000  C
  C693     1.0000 0.04397  0.32301  0.54133  Biso   1.000  C
  C694     1.0000 0.05429  0.34365  0.12533  Biso   1.000  C
  C695     1.0000 0.65635  0.71063  0.12533  Biso   1.000  C
  C696     1.0000 0.28937  0.94571  0.12533  Biso   1.000  C
  C697     1.0000 0.34365  0.05429  0.87467  Biso   1.000  C
  C698     1.0000 0.94571  0.28937  0.87467  Biso   1.000  C
  C699     1.0000 0.71063  0.65635  0.87467  Biso   1.000  C
  C700     1.0000 0.72095  0.67699  0.45867  Biso   1.000  C
  C701     1.0000 0.32301  0.04397  0.45867  Biso   1.000  C
  C702     1.0000 0.95603  0.27905  0.45867  Biso   1.000  C
  C703     1.0000 0.98968  0.61238  0.79200  Biso   1.000  C
  C704     1.0000 0.38762  0.37730  0.79200  Biso   1.000  C
  C705     1.0000 0.62270  0.01032  0.79200  Biso   1.000  C
  C706     1.0000 0.61238  0.98968  0.20800  Biso   1.000  C
  C707     1.0000 0.01032  0.62270  0.20800  Biso   1.000  C
  C708     1.0000 0.37730  0.38762  0.20800  Biso   1.000  C
  C709     1.0000 0.65635  0.94571  0.12533  Biso   1.000  C
  C710     1.0000 0.05429  0.71063  0.12533  Biso   1.000  C
  C711     1.0000 0.28937  0.34365  0.12533  Biso   1.000  C
  C712     1.0000 0.27905  0.32301  0.54133  Biso   1.000  C
  C713     1.0000 0.67699  0.95603  0.54133  Biso   1.000  C
  C714     1.0000 0.04397  0.72095  0.54133  Biso   1.000  C
  C715     1.0000 0.32301  0.27905  0.45867  Biso   1.000  C
  C716     1.0000 0.72095  0.04397  0.45867  Biso   1.000  C
  C717     1.0000 0.95603  0.67699  0.45867  Biso   1.000  C
  C718     1.0000 0.94571  0.65635  0.87467  Biso   1.000  C
  C719     1.0000 0.34365  0.28937  0.87467  Biso   1.000  C
  C720     1.0000 0.71063  0.05429  0.87467  Biso   1.000  C
  H361     1.0000 0.98700  0.36610  0.20710  Biso   1.000  H
  H362     1.0000 0.63390  0.62090  0.20710  Biso   1.000  H
  H363     1.0000 0.37910  0.01300  0.20710  Biso   1.000  H
  H364     1.0000 0.36610  0.98700  0.79290  Biso   1.000  H
  H365     1.0000 0.01300  0.37910  0.79290  Biso   1.000  H
  H366     1.0000 0.62090  0.63390  0.79290  Biso   1.000  H
  H367     1.0000 0.65367  0.69943  0.54043  Biso   1.000  H
  H368     1.0000 0.30057  0.95423  0.54043  Biso   1.000  H
  H369     1.0000 0.04577  0.34633  0.54043  Biso   1.000  H
  H370     1.0000 0.03277  0.32033  0.12623  Biso   1.000  H
  H371     1.0000 0.67967  0.71243  0.12623  Biso   1.000  H
  H372     1.0000 0.28757  0.96723  0.12623  Biso   1.000  H
  H373     1.0000 0.32033  0.03277  0.87377  Biso   1.000  H
  H374     1.0000 0.96723  0.28757  0.87377  Biso   1.000  H
  H375     1.0000 0.71243  0.67967  0.87377  Biso   1.000  H
  H376     1.0000 0.69943  0.65367  0.45957  Biso   1.000  H
  H377     1.0000 0.34633  0.04577  0.45957  Biso   1.000  H
  H378     1.0000 0.95423  0.30057  0.45957  Biso   1.000  H
  H379     1.0000 0.01300  0.63390  0.79290  Biso   1.000  H
  H380     1.0000 0.36610  0.37910  0.79290  Biso   1.000  H
  H381     1.0000 0.62090  0.98700  0.79290  Biso   1.000  H
  H382     1.0000 0.63390  0.01300  0.20710  Biso   1.000  H
  H383     1.0000 0.98700  0.62090  0.20710  Biso   1.000  H
  H384     1.0000 0.37910  0.36610  0.20710  Biso   1.000  H
  H385     1.0000 0.67967  0.96723  0.12623  Biso   1.000  H
  H386     1.0000 0.03277  0.71243  0.12623  Biso   1.000  H
  H387     1.0000 0.28757  0.32033  0.12623  Biso   1.000  H
  H388     1.0000 0.30057  0.34633  0.54043  Biso   1.000  H
  H389     1.0000 0.65367  0.95423  0.54043  Biso   1.000  H
  H390     1.0000 0.04577  0.69943  0.54043  Biso   1.000  H
  H391     1.0000 0.34633  0.30057  0.45957  Biso   1.000  H
  H392     1.0000 0.69943  0.04577  0.45957  Biso   1.000  H
  H393     1.0000 0.95423  0.65367  0.45957  Biso   1.000  H
  H394     1.0000 0.96723  0.67967  0.87377  Biso   1.000  H
  H395     1.0000 0.32033  0.28757  0.87377  Biso   1.000  H
  H396     1.0000 0.71243  0.03277  0.87377  Biso   1.000  H
  C721     1.0000 0.05609  0.48410  0.16580  Biso   1.000  C
  C722     1.0000 0.51590  0.57199  0.16580  Biso   1.000  C
  C723     1.0000 0.42801  0.94391  0.16580  Biso   1.000  C
  C724     1.0000 0.48410  0.05609  0.83420  Biso   1.000  C
  C725     1.0000 0.94391  0.42801  0.83420  Biso   1.000  C
  C726     1.0000 0.57199  0.51590  0.83420  Biso   1.000  C
  C727     1.0000 0.72276  0.81743  0.49913  Biso   1.000  C
  C728     1.0000 0.18257  0.90532  0.49913  Biso   1.000  C
  C729     1.0000 0.09468  0.27724  0.49913  Biso   1.000  C
  C730     1.0000 0.15077  0.38942  0.16753  Biso   1.000  C
  C731     1.0000 0.61058  0.76134  0.16753  Biso   1.000  C
  C732     1.0000 0.23866  0.84923  0.16753  Biso   1.000  C
  C733     1.0000 0.38942  0.15077  0.83247  Biso   1.000  C
  C734     1.0000 0.84923  0.23866  0.83247  Biso   1.000  C
  C735     1.0000 0.76134  0.61058  0.83247  Biso   1.000  C
  C736     1.0000 0.81743  0.72276  0.50087  Biso   1.000  C
  C737     1.0000 0.27724  0.09468  0.50087  Biso   1.000  C
  C738     1.0000 0.90532  0.18257  0.50087  Biso   1.000  C
  C739     1.0000 0.94391  0.51590  0.83420  Biso   1.000  C
  C740     1.0000 0.48410  0.42801  0.83420  Biso   1.000  C
  C741     1.0000 0.57199  0.05609  0.83420  Biso   1.000  C
  C742     1.0000 0.51590  0.94391  0.16580  Biso   1.000  C
  C743     1.0000 0.05609  0.57199  0.16580  Biso   1.000  C
  C744     1.0000 0.42801  0.48410  0.16580  Biso   1.000  C
  C745     1.0000 0.61058  0.84923  0.16753  Biso   1.000  C
  C746     1.0000 0.15077  0.76134  0.16753  Biso   1.000  C
  C747     1.0000 0.23866  0.38942  0.16753  Biso   1.000  C
  C748     1.0000 0.18257  0.27724  0.49913  Biso   1.000  C
  C749     1.0000 0.72276  0.90532  0.49913  Biso   1.000  C
  C750     1.0000 0.09468  0.81743  0.49913  Biso   1.000  C
  C751     1.0000 0.27724  0.18257  0.50087  Biso   1.000  C
  C752     1.0000 0.81743  0.09468  0.50087  Biso   1.000  C
  C753     1.0000 0.90532  0.72276  0.50087  Biso   1.000  C
  C754     1.0000 0.84923  0.61058  0.83247  Biso   1.000  C
  C755     1.0000 0.38942  0.23866  0.83247  Biso   1.000  C
  C756     1.0000 0.76134  0.15077  0.83247  Biso   1.000  C
  C757     1.0000 0.88350  0.11650  0.39730  Biso   1.000  C
  C758     1.0000 0.88350  0.76700  0.39730  Biso   1.000  C
  C759     1.0000 0.23300  0.11650  0.39730  Biso   1.000  C
  C760     1.0000 0.11650  0.88350  0.60270  Biso   1.000  C
  C761     1.0000 0.11650  0.23300  0.60270  Biso   1.000  C
  C762     1.0000 0.76700  0.88350  0.60270  Biso   1.000  C
  C763     1.0000 0.55017  0.44983  0.73063  Biso   1.000  C
  C764     1.0000 0.55017  0.10033  0.73063  Biso   1.000  C
  C765     1.0000 0.89967  0.44983  0.73063  Biso   1.000  C
  C766     1.0000 0.78317  0.21683  0.93603  Biso   1.000  C
  C767     1.0000 0.78317  0.56633  0.93603  Biso   1.000  C
  C768     1.0000 0.43367  0.21683  0.93603  Biso   1.000  C
  C769     1.0000 0.21683  0.78317  0.06397  Biso   1.000  C
  C770     1.0000 0.21683  0.43367  0.06397  Biso   1.000  C
  C771     1.0000 0.56633  0.78317  0.06397  Biso   1.000  C
  C772     1.0000 0.44983  0.55017  0.26937  Biso   1.000  C
  C773     1.0000 0.44983  0.89967  0.26937  Biso   1.000  C
  C774     1.0000 0.10033  0.55017  0.26937  Biso   1.000  C
  H397     1.0000 0.87650  0.12350  0.42320  Biso   1.000  H
  H398     1.0000 0.87650  0.75300  0.42320  Biso   1.000  H
  H399     1.0000 0.24700  0.12350  0.42320  Biso   1.000  H
  H400     1.0000 0.12350  0.87650  0.57680  Biso   1.000  H
  H401     1.0000 0.12350  0.24700  0.57680  Biso   1.000  H
  H402     1.0000 0.75300  0.87650  0.57680  Biso   1.000  H
  H403     1.0000 0.54317  0.45683  0.75653  Biso   1.000  H
  H404     1.0000 0.54317  0.08633  0.75653  Biso   1.000  H
  H405     1.0000 0.91367  0.45683  0.75653  Biso   1.000  H
  H406     1.0000 0.79017  0.20983  0.91013  Biso   1.000  H
  H407     1.0000 0.79017  0.58033  0.91013  Biso   1.000  H
  H408     1.0000 0.41967  0.20983  0.91013  Biso   1.000  H
  H409     1.0000 0.20983  0.79017  0.08987  Biso   1.000  H
  H410     1.0000 0.20983  0.41967  0.08987  Biso   1.000  H
  H411     1.0000 0.58033  0.79017  0.08987  Biso   1.000  H
  H412     1.0000 0.45683  0.54317  0.24347  Biso   1.000  H
  H413     1.0000 0.45683  0.91367  0.24347  Biso   1.000  H
  H414     1.0000 0.08633  0.54317  0.24347  Biso   1.000  H
  C775     1.0000 0.92070  0.07930  0.26090  Biso   1.000  C
  C776     1.0000 0.92070  0.84140  0.26090  Biso   1.000  C
  C777     1.0000 0.15860  0.07930  0.26090  Biso   1.000  C
  C778     1.0000 0.07930  0.92070  0.73910  Biso   1.000  C
  C779     1.0000 0.07930  0.15860  0.73910  Biso   1.000  C
  C780     1.0000 0.84140  0.92070  0.73910  Biso   1.000  C
  C781     1.0000 0.58737  0.41263  0.59423  Biso   1.000  C
  C782     1.0000 0.58737  0.17473  0.59423  Biso   1.000  C
  C783     1.0000 0.82527  0.41263  0.59423  Biso   1.000  C
  C784     1.0000 0.74597  0.25403  0.07243  Biso   1.000  C
  C785     1.0000 0.74597  0.49193  0.07243  Biso   1.000  C
  C786     1.0000 0.50807  0.25403  0.07243  Biso   1.000  C
  C787     1.0000 0.25403  0.74597  0.92757  Biso   1.000  C
  C788     1.0000 0.25403  0.50807  0.92757  Biso   1.000  C
  C789     1.0000 0.49193  0.74597  0.92757  Biso   1.000  C
  C790     1.0000 0.41263  0.58737  0.40577  Biso   1.000  C
  C791     1.0000 0.41263  0.82527  0.40577  Biso   1.000  C
  C792     1.0000 0.17473  0.58737  0.40577  Biso   1.000  C
  H415     1.0000 0.92820  0.07180  0.23580  Biso   1.000  H
  H416     1.0000 0.92820  0.85640  0.23580  Biso   1.000  H
  H417     1.0000 0.14360  0.07180  0.23580  Biso   1.000  H
  H418     1.0000 0.07180  0.92820  0.76420  Biso   1.000  H
  H419     1.0000 0.07180  0.14360  0.76420  Biso   1.000  H
  H420     1.0000 0.85640  0.92820  0.76420  Biso   1.000  H
  H421     1.0000 0.59487  0.40513  0.56913  Biso   1.000  H
  H422     1.0000 0.59487  0.18973  0.56913  Biso   1.000  H
  H423     1.0000 0.81027  0.40513  0.56913  Biso   1.000  H
  H424     1.0000 0.73847  0.26153  0.09753  Biso   1.000  H
  H425     1.0000 0.73847  0.47693  0.09753  Biso   1.000  H
  H426     1.0000 0.52307  0.26153  0.09753  Biso   1.000  H
  H427     1.0000 0.26153  0.73847  0.90247  Biso   1.000  H
  H428     1.0000 0.26153  0.52307  0.90247  Biso   1.000  H
  H429     1.0000 0.47693  0.73847  0.90247  Biso   1.000  H
  H430     1.0000 0.40513  0.59487  0.43087  Biso   1.000  H
  H431     1.0000 0.40513  0.81027  0.43087  Biso   1.000  H
  H432     1.0000 0.18973  0.59487  0.43087  Biso   1.000  H
  Cu1      1.0000 0.88639  0.11361  0.30338  Biso   1.000  Cu
  Cu2      1.0000 0.88639  0.77278  0.30338  Biso   1.000  Cu
  Cu3      1.0000 0.22722  0.11361  0.30338  Biso   1.000  Cu
  Cu4      1.0000 0.11361  0.88639  0.69662  Biso   1.000  Cu
  Cu5      1.0000 0.11361  0.22722  0.69662  Biso   1.000  Cu
  Cu6      1.0000 0.77278  0.88639  0.69662  Biso   1.000  Cu
  Cu7      1.0000 0.55306  0.44694  0.63671  Biso   1.000  Cu
  Cu8      1.0000 0.55306  0.10611  0.63671  Biso   1.000  Cu
  Cu9      1.0000 0.89389  0.44694  0.63671  Biso   1.000  Cu
  Cu10     1.0000 0.78028  0.21972  0.02995  Biso   1.000  Cu
  Cu11     1.0000 0.78028  0.56055  0.02995  Biso   1.000  Cu
  Cu12     1.0000 0.43945  0.21972  0.02995  Biso   1.000  Cu
  Cu13     1.0000 0.21972  0.78028  0.97005  Biso   1.000  Cu
  Cu14     1.0000 0.21972  0.43945  0.97005  Biso   1.000  Cu
  Cu15     1.0000 0.56055  0.78028  0.97005  Biso   1.000  Cu
  Cu16     1.0000 0.44694  0.55306  0.36329  Biso   1.000  Cu
  Cu17     1.0000 0.44694  0.89389  0.36329  Biso   1.000  Cu
  Cu18     1.0000 0.10611  0.55306  0.36329  Biso   1.000  Cu
  Cu19     1.0000 0.91613  0.08387  0.35140  Biso   1.000  Cu
  Cu20     1.0000 0.91613  0.83226  0.35140  Biso   1.000  Cu
  Cu21     1.0000 0.16774  0.08387  0.35140  Biso   1.000  Cu
  Cu22     1.0000 0.08387  0.91613  0.64860  Biso   1.000  Cu
  Cu23     1.0000 0.08387  0.16774  0.64860  Biso   1.000  Cu
  Cu24     1.0000 0.83226  0.91613  0.64860  Biso   1.000  Cu
  Cu25     1.0000 0.58280  0.41720  0.68473  Biso   1.000  Cu
  Cu26     1.0000 0.58280  0.16559  0.68473  Biso   1.000  Cu
  Cu27     1.0000 0.83441  0.41720  0.68473  Biso   1.000  Cu
  Cu28     1.0000 0.75054  0.24946  0.98193  Biso   1.000  Cu
  Cu29     1.0000 0.75054  0.50107  0.98193  Biso   1.000  Cu
  Cu30     1.0000 0.49893  0.24946  0.98193  Biso   1.000  Cu
  Cu31     1.0000 0.24946  0.75054  0.01807  Biso   1.000  Cu
  Cu32     1.0000 0.24946  0.49893  0.01807  Biso   1.000  Cu
  Cu33     1.0000 0.50107  0.75054  0.01807  Biso   1.000  Cu
  Cu34     1.0000 0.41720  0.58280  0.31527  Biso   1.000  Cu
  Cu35     1.0000 0.41720  0.83441  0.31527  Biso   1.000  Cu
  Cu36     1.0000 0.16559  0.58280  0.31527  Biso   1.000  Cu
  Cu37     1.0000 0.11320  0.22641  0.46249  Biso   1.000  Cu
  Cu38     1.0000 0.77359  0.88679  0.46249  Biso   1.000  Cu
  Cu39     1.0000 0.11321  0.88680  0.46249  Biso   1.000  Cu
  Cu40     1.0000 0.22641  0.11320  0.53751  Biso   1.000  Cu
  Cu41     1.0000 0.88680  0.11321  0.53751  Biso   1.000  Cu
  Cu42     1.0000 0.88679  0.77359  0.53751  Biso   1.000  Cu
  Cu43     1.0000 0.77987  0.55974  0.79582  Biso   1.000  Cu
  Cu44     1.0000 0.44026  0.22012  0.79582  Biso   1.000  Cu
  Cu45     1.0000 0.77988  0.22013  0.79582  Biso   1.000  Cu
  Cu46     1.0000 0.89308  0.44653  0.87084  Biso   1.000  Cu
  Cu47     1.0000 0.55347  0.44654  0.87084  Biso   1.000  Cu
  Cu48     1.0000 0.55346  0.10692  0.87084  Biso   1.000  Cu
  Cu49     1.0000 0.44653  0.89308  0.12916  Biso   1.000  Cu
  Cu50     1.0000 0.10692  0.55346  0.12916  Biso   1.000  Cu
  Cu51     1.0000 0.44654  0.55347  0.12916  Biso   1.000  Cu
  Cu52     1.0000 0.55974  0.77987  0.20418  Biso   1.000  Cu
  Cu53     1.0000 0.22013  0.77988  0.20418  Biso   1.000  Cu
  Cu54     1.0000 0.22012  0.44026  0.20418  Biso   1.000  Cu
  Cu55     1.0000 0.14720  0.29441  0.43501  Biso   1.000  Cu
  Cu56     1.0000 0.70559  0.85279  0.43501  Biso   1.000  Cu
  Cu57     1.0000 0.14721  0.85280  0.43501  Biso   1.000  Cu
  Cu58     1.0000 0.29441  0.14720  0.56499  Biso   1.000  Cu
  Cu59     1.0000 0.85280  0.14721  0.56499  Biso   1.000  Cu
  Cu60     1.0000 0.85279  0.70559  0.56499  Biso   1.000  Cu
  Cu61     1.0000 0.81387  0.62774  0.76834  Biso   1.000  Cu
  Cu62     1.0000 0.37226  0.18612  0.76834  Biso   1.000  Cu
  Cu63     1.0000 0.81388  0.18613  0.76834  Biso   1.000  Cu
  Cu64     1.0000 0.96108  0.48053  0.89832  Biso   1.000  Cu
  Cu65     1.0000 0.51947  0.48054  0.89832  Biso   1.000  Cu
  Cu66     1.0000 0.51946  0.03892  0.89832  Biso   1.000  Cu
  Cu67     1.0000 0.48053  0.96108  0.10168  Biso   1.000  Cu
  Cu68     1.0000 0.03892  0.51946  0.10168  Biso   1.000  Cu
  Cu69     1.0000 0.48054  0.51947  0.10168  Biso   1.000  Cu
  Cu70     1.0000 0.62774  0.81387  0.23166  Biso   1.000  Cu
  Cu71     1.0000 0.18613  0.81388  0.23166  Biso   1.000  Cu
  Cu72     1.0000 0.18612  0.37226  0.23166  Biso   1.000  Cu
  O1       1.0000 0.08687  0.17370  0.49240  Biso   1.000  O
  O2       1.0000 0.82630  0.91317  0.49240  Biso   1.000  O
  O3       1.0000 0.08683  0.91313  0.49240  Biso   1.000  O
  O4       1.0000 0.17370  0.08687  0.50760  Biso   1.000  O
  O5       1.0000 0.91313  0.08683  0.50760  Biso   1.000  O
  O6       1.0000 0.91317  0.82630  0.50760  Biso   1.000  O
  O7       1.0000 0.75354  0.50703  0.82573  Biso   1.000  O
  O8       1.0000 0.49297  0.24650  0.82573  Biso   1.000  O
  O9       1.0000 0.75350  0.24646  0.82573  Biso   1.000  O
  O10      1.0000 0.84037  0.42020  0.84093  Biso   1.000  O
  O11      1.0000 0.57980  0.42016  0.84093  Biso   1.000  O
  O12      1.0000 0.57984  0.15963  0.84093  Biso   1.000  O
  O13      1.0000 0.42020  0.84037  0.15907  Biso   1.000  O
  O14      1.0000 0.15963  0.57984  0.15907  Biso   1.000  O
  O15      1.0000 0.42016  0.57980  0.15907  Biso   1.000  O
  O16      1.0000 0.50703  0.75354  0.17427  Biso   1.000  O
  O17      1.0000 0.24646  0.75350  0.17427  Biso   1.000  O
  O18      1.0000 0.24650  0.49297  0.17427  Biso   1.000  O
  O19      1.0000 0.17472  0.34944  0.41130  Biso   1.000  O
  O20      1.0000 0.65056  0.82528  0.41130  Biso   1.000  O
  O21      1.0000 0.17472  0.82528  0.41130  Biso   1.000  O
  O22      1.0000 0.34944  0.17472  0.58870  Biso   1.000  O
  O23      1.0000 0.82528  0.17472  0.58870  Biso   1.000  O
  O24      1.0000 0.82528  0.65056  0.58870  Biso   1.000  O
  O25      1.0000 0.84139  0.68277  0.74463  Biso   1.000  O
  O26      1.0000 0.31723  0.15861  0.74463  Biso   1.000  O
  O27      1.0000 0.84139  0.15861  0.74463  Biso   1.000  O
  O28      1.0000 0.01611  0.50805  0.92203  Biso   1.000  O
  O29      1.0000 0.49195  0.50805  0.92203  Biso   1.000  O
  O30      1.0000 0.49195  0.98389  0.92203  Biso   1.000  O
  O31      1.0000 0.50805  0.01611  0.07797  Biso   1.000  O
  O32      1.0000 0.98389  0.49195  0.07797  Biso   1.000  O
  O33      1.0000 0.50805  0.49195  0.07797  Biso   1.000  O
  O34      1.0000 0.68277  0.84139  0.25537  Biso   1.000  O
  O35      1.0000 0.15861  0.84139  0.25537  Biso   1.000  O
  O36      1.0000 0.15861  0.31723  0.25537  Biso   1.000  O
  O37      1.0000 0.86214  0.13786  0.26480  Biso   1.000  O
  O38      1.0000 0.86214  0.72428  0.26480  Biso   1.000  O
  O39      1.0000 0.27572  0.13786  0.26480  Biso   1.000  O
  O40      1.0000 0.13786  0.86214  0.73520  Biso   1.000  O
  O41      1.0000 0.13786  0.27572  0.73520  Biso   1.000  O
  O42      1.0000 0.72428  0.86214  0.73520  Biso   1.000  O
  O43      1.0000 0.52881  0.47119  0.59813  Biso   1.000  O
  O44      1.0000 0.52881  0.05761  0.59813  Biso   1.000  O
  O45      1.0000 0.94239  0.47119  0.59813  Biso   1.000  O
  O46      1.0000 0.80453  0.19547  0.06853  Biso   1.000  O
  O47      1.0000 0.80453  0.60905  0.06853  Biso   1.000  O
  O48      1.0000 0.39095  0.19547  0.06853  Biso   1.000  O
  O49      1.0000 0.19547  0.80453  0.93147  Biso   1.000  O
  O50      1.0000 0.19547  0.39095  0.93147  Biso   1.000  O
  O51      1.0000 0.60905  0.80453  0.93147  Biso   1.000  O
  O52      1.0000 0.47119  0.52881  0.40187  Biso   1.000  O
  O53      1.0000 0.47119  0.94239  0.40187  Biso   1.000  O
  O54      1.0000 0.05761  0.52881  0.40187  Biso   1.000  O
  O55      1.0000 0.94097  0.05903  0.38950  Biso   1.000  O
  O56      1.0000 0.94097  0.88194  0.38950  Biso   1.000  O
  O57      1.0000 0.11806  0.05903  0.38950  Biso   1.000  O
  O58      1.0000 0.05903  0.94097  0.61050  Biso   1.000  O
  O59      1.0000 0.05903  0.11806  0.61050  Biso   1.000  O
  O60      1.0000 0.88194  0.94097  0.61050  Biso   1.000  O
  O61      1.0000 0.60764  0.39236  0.72283  Biso   1.000  O
  O62      1.0000 0.60764  0.21527  0.72283  Biso   1.000  O
  O63      1.0000 0.78473  0.39236  0.72283  Biso   1.000  O
  O64      1.0000 0.72570  0.27430  0.94383  Biso   1.000  O
  O65      1.0000 0.72570  0.45139  0.94383  Biso   1.000  O
  O66      1.0000 0.54861  0.27430  0.94383  Biso   1.000  O
  O67      1.0000 0.27430  0.72570  0.05617  Biso   1.000  O
  O68      1.0000 0.27430  0.54861  0.05617  Biso   1.000  O
  O69      1.0000 0.45139  0.72570  0.05617  Biso   1.000  O
  O70      1.0000 0.39236  0.60764  0.27717  Biso   1.000  O
  O71      1.0000 0.39236  0.78473  0.27717  Biso   1.000  O
  O72      1.0000 0.21527  0.60764  0.27717  Biso   1.000  O
  O73      1.0000 0.93344  0.15744  0.30620  Biso   1.000  O
  O74      1.0000 0.84256  0.77600  0.30620  Biso   1.000  O
  O75      1.0000 0.22400  0.06656  0.30620  Biso   1.000  O
  O76      1.0000 0.15744  0.93344  0.69380  Biso   1.000  O
  O77      1.0000 0.06656  0.22400  0.69380  Biso   1.000  O
  O78      1.0000 0.77600  0.84256  0.69380  Biso   1.000  O
  O79      1.0000 0.60011  0.49077  0.63953  Biso   1.000  O
  O80      1.0000 0.50923  0.10933  0.63953  Biso   1.000  O
  O81      1.0000 0.89067  0.39989  0.63953  Biso   1.000  O
  O82      1.0000 0.82411  0.26677  0.02713  Biso   1.000  O
  O83      1.0000 0.73323  0.55733  0.02713  Biso   1.000  O
  O84      1.0000 0.44267  0.17589  0.02713  Biso   1.000  O
  O85      1.0000 0.26677  0.82411  0.97287  Biso   1.000  O
  O86      1.0000 0.17589  0.44267  0.97287  Biso   1.000  O
  O87      1.0000 0.55733  0.73323  0.97287  Biso   1.000  O
  O88      1.0000 0.49077  0.60011  0.36047  Biso   1.000  O
  O89      1.0000 0.39989  0.89067  0.36047  Biso   1.000  O
  O90      1.0000 0.10933  0.50923  0.36047  Biso   1.000  O
  O91      1.0000 0.06656  0.84256  0.69380  Biso   1.000  O
  O92      1.0000 0.15744  0.22400  0.69380  Biso   1.000  O
  O93      1.0000 0.77600  0.93344  0.69380  Biso   1.000  O
  O94      1.0000 0.84256  0.06656  0.30620  Biso   1.000  O
  O95      1.0000 0.93344  0.77600  0.30620  Biso   1.000  O
  O96      1.0000 0.22400  0.15744  0.30620  Biso   1.000  O
  O97      1.0000 0.73323  0.17589  0.02713  Biso   1.000  O
  O98      1.0000 0.82411  0.55733  0.02713  Biso   1.000  O
  O99      1.0000 0.44267  0.26677  0.02713  Biso   1.000  O
  O100     1.0000 0.50923  0.39989  0.63953  Biso   1.000  O
  O101     1.0000 0.60011  0.10933  0.63953  Biso   1.000  O
  O102     1.0000 0.89067  0.49077  0.63953  Biso   1.000  O
  O103     1.0000 0.39989  0.50923  0.36047  Biso   1.000  O
  O104     1.0000 0.49077  0.89067  0.36047  Biso   1.000  O
  O105     1.0000 0.10933  0.60011  0.36047  Biso   1.000  O
  O106     1.0000 0.17589  0.73323  0.97287  Biso   1.000  O
  O107     1.0000 0.26677  0.44267  0.97287  Biso   1.000  O
  O108     1.0000 0.55733  0.82411  0.97287  Biso   1.000  O
  O109     1.0000 0.95881  0.13337  0.34814  Biso   1.000  O
  O110     1.0000 0.86663  0.82544  0.34814  Biso   1.000  O
  O111     1.0000 0.17456  0.04119  0.34814  Biso   1.000  O
  O112     1.0000 0.13337  0.95881  0.65186  Biso   1.000  O
  O113     1.0000 0.04119  0.17456  0.65186  Biso   1.000  O
  O114     1.0000 0.82544  0.86663  0.65186  Biso   1.000  O
  O115     1.0000 0.62548  0.46670  0.68147  Biso   1.000  O
  O116     1.0000 0.53330  0.15877  0.68147  Biso   1.000  O
  O117     1.0000 0.84123  0.37452  0.68147  Biso   1.000  O
  O118     1.0000 0.80004  0.29214  0.98519  Biso   1.000  O
  O119     1.0000 0.70786  0.50789  0.98519  Biso   1.000  O
  O120     1.0000 0.49211  0.19996  0.98519  Biso   1.000  O
  O121     1.0000 0.29214  0.80004  0.01481  Biso   1.000  O
  O122     1.0000 0.19996  0.49211  0.01481  Biso   1.000  O
  O123     1.0000 0.50789  0.70786  0.01481  Biso   1.000  O
  O124     1.0000 0.46670  0.62548  0.31853  Biso   1.000  O
  O125     1.0000 0.37452  0.84123  0.31853  Biso   1.000  O
  O126     1.0000 0.15877  0.53330  0.31853  Biso   1.000  O
  O127     1.0000 0.04119  0.86663  0.65186  Biso   1.000  O
  O128     1.0000 0.13337  0.17456  0.65186  Biso   1.000  O
  O129     1.0000 0.82544  0.95881  0.65186  Biso   1.000  O
  O130     1.0000 0.86663  0.04119  0.34814  Biso   1.000  O
  O131     1.0000 0.95881  0.82544  0.34814  Biso   1.000  O
  O132     1.0000 0.17456  0.13337  0.34814  Biso   1.000  O
  O133     1.0000 0.70786  0.19996  0.98519  Biso   1.000  O
  O134     1.0000 0.80004  0.50789  0.98519  Biso   1.000  O
  O135     1.0000 0.49211  0.29214  0.98519  Biso   1.000  O
  O136     1.0000 0.53330  0.37452  0.68147  Biso   1.000  O
  O137     1.0000 0.62548  0.15877  0.68147  Biso   1.000  O
  O138     1.0000 0.84123  0.46670  0.68147  Biso   1.000  O
  O139     1.0000 0.37452  0.53330  0.31853  Biso   1.000  O
  O140     1.0000 0.46670  0.84123  0.31853  Biso   1.000  O
  O141     1.0000 0.15877  0.62548  0.31853  Biso   1.000  O
  O142     1.0000 0.19996  0.70786  0.01481  Biso   1.000  O
  O143     1.0000 0.29214  0.49211  0.01481  Biso   1.000  O
  O144     1.0000 0.50789  0.80004  0.01481  Biso   1.000  O
  O145     1.0000 0.07654  0.21717  0.41758  Biso   1.000  O
  O146     1.0000 0.78283  0.85937  0.41758  Biso   1.000  O
  O147     1.0000 0.14063  0.92346  0.41758  Biso   1.000  O
  O148     1.0000 0.21717  0.07654  0.58242  Biso   1.000  O
  O149     1.0000 0.92346  0.14063  0.58242  Biso   1.000  O
  O150     1.0000 0.85937  0.78283  0.58242  Biso   1.000  O
  O151     1.0000 0.74321  0.55050  0.75091  Biso   1.000  O
  O152     1.0000 0.44950  0.19270  0.75091  Biso   1.000  O
  O153     1.0000 0.80730  0.25679  0.75091  Biso   1.000  O
  O154     1.0000 0.88384  0.40987  0.91575  Biso   1.000  O
  O155     1.0000 0.59013  0.47396  0.91575  Biso   1.000  O
  O156     1.0000 0.52604  0.11616  0.91575  Biso   1.000  O
  O157     1.0000 0.40987  0.88384  0.08425  Biso   1.000  O
  O158     1.0000 0.11616  0.52604  0.08425  Biso   1.000  O
  O159     1.0000 0.47396  0.59013  0.08425  Biso   1.000  O
  O160     1.0000 0.55050  0.74321  0.24909  Biso   1.000  O
  O161     1.0000 0.25679  0.80730  0.24909  Biso   1.000  O
  O162     1.0000 0.19270  0.44950  0.24909  Biso   1.000  O
  O163     1.0000 0.92346  0.78283  0.58242  Biso   1.000  O
  O164     1.0000 0.21717  0.14063  0.58242  Biso   1.000  O
  O165     1.0000 0.85937  0.07654  0.58242  Biso   1.000  O
  O166     1.0000 0.78283  0.92346  0.41758  Biso   1.000  O
  O167     1.0000 0.07654  0.85937  0.41758  Biso   1.000  O
  O168     1.0000 0.14063  0.21717  0.41758  Biso   1.000  O
  O169     1.0000 0.59013  0.11616  0.91575  Biso   1.000  O
  O170     1.0000 0.88384  0.47396  0.91575  Biso   1.000  O
  O171     1.0000 0.52604  0.40987  0.91575  Biso   1.000  O
  O172     1.0000 0.44950  0.25679  0.75091  Biso   1.000  O
  O173     1.0000 0.74321  0.19270  0.75091  Biso   1.000  O
  O174     1.0000 0.80730  0.55050  0.75091  Biso   1.000  O
  O175     1.0000 0.25679  0.44950  0.24909  Biso   1.000  O
  O176     1.0000 0.55050  0.80730  0.24909  Biso   1.000  O
  O177     1.0000 0.19270  0.74321  0.24909  Biso   1.000  O
  O178     1.0000 0.11616  0.59013  0.08425  Biso   1.000  O
  O179     1.0000 0.40987  0.52604  0.08425  Biso   1.000  O
  O180     1.0000 0.47396  0.88384  0.08425  Biso   1.000  O
  O181     1.0000 0.10548  0.27534  0.39617  Biso   1.000  O
  O182     1.0000 0.72466  0.83014  0.39617  Biso   1.000  O
  O183     1.0000 0.16986  0.89452  0.39617  Biso   1.000  O
  O184     1.0000 0.27534  0.10548  0.60383  Biso   1.000  O
  O185     1.0000 0.89452  0.16986  0.60383  Biso   1.000  O
  O186     1.0000 0.83014  0.72466  0.60383  Biso   1.000  O
  O187     1.0000 0.77215  0.60867  0.72950  Biso   1.000  O
  O188     1.0000 0.39133  0.16347  0.72950  Biso   1.000  O
  O189     1.0000 0.83653  0.22785  0.72950  Biso   1.000  O
  O190     1.0000 0.94201  0.43881  0.93716  Biso   1.000  O
  O191     1.0000 0.56119  0.50319  0.93716  Biso   1.000  O
  O192     1.0000 0.49681  0.05799  0.93716  Biso   1.000  O
  O193     1.0000 0.43881  0.94201  0.06284  Biso   1.000  O
  O194     1.0000 0.05799  0.49681  0.06284  Biso   1.000  O
  O195     1.0000 0.50319  0.56119  0.06284  Biso   1.000  O
  O196     1.0000 0.60867  0.77215  0.27050  Biso   1.000  O
  O197     1.0000 0.22785  0.83653  0.27050  Biso   1.000  O
  O198     1.0000 0.16347  0.39133  0.27050  Biso   1.000  O
  O199     1.0000 0.89452  0.72466  0.60383  Biso   1.000  O
  O200     1.0000 0.27534  0.16986  0.60383  Biso   1.000  O
  O201     1.0000 0.83014  0.10548  0.60383  Biso   1.000  O
  O202     1.0000 0.72466  0.89452  0.39617  Biso   1.000  O
  O203     1.0000 0.10548  0.83014  0.39617  Biso   1.000  O
  O204     1.0000 0.16986  0.27534  0.39617  Biso   1.000  O
  O205     1.0000 0.56119  0.05799  0.93716  Biso   1.000  O
  O206     1.0000 0.94201  0.50319  0.93716  Biso   1.000  O
  O207     1.0000 0.49681  0.43881  0.93716  Biso   1.000  O
  O208     1.0000 0.39133  0.22785  0.72950  Biso   1.000  O
  O209     1.0000 0.77215  0.16347  0.72950  Biso   1.000  O
  O210     1.0000 0.83653  0.60867  0.72950  Biso   1.000  O
  O211     1.0000 0.22785  0.39133  0.27050  Biso   1.000  O
  O212     1.0000 0.60867  0.83653  0.27050  Biso   1.000  O
  O213     1.0000 0.16347  0.77215  0.27050  Biso   1.000  O
  O214     1.0000 0.05799  0.56119  0.06284  Biso   1.000  O
  O215     1.0000 0.43881  0.49681  0.06284  Biso   1.000  O
  O216     1.0000 0.50319  0.94201  0.06284  Biso   1.000  O
  O217     1.0000 0.08822  0.51127  0.16774  Biso   1.000  O
  O218     1.0000 0.48873  0.57695  0.16774  Biso   1.000  O
  O219     1.0000 0.42305  0.91178  0.16774  Biso   1.000  O
  O220     1.0000 0.51127  0.08822  0.83226  Biso   1.000  O
  O221     1.0000 0.91178  0.42305  0.83226  Biso   1.000  O
  O222     1.0000 0.57695  0.48873  0.83226  Biso   1.000  O
  O223     1.0000 0.75489  0.84460  0.50107  Biso   1.000  O
  O224     1.0000 0.15540  0.91028  0.50107  Biso   1.000  O
  O225     1.0000 0.08972  0.24511  0.50107  Biso   1.000  O
  O226     1.0000 0.17794  0.42155  0.16559  Biso   1.000  O
  O227     1.0000 0.57845  0.75638  0.16559  Biso   1.000  O
  O228     1.0000 0.24362  0.82206  0.16559  Biso   1.000  O
  O229     1.0000 0.42155  0.17794  0.83441  Biso   1.000  O
  O230     1.0000 0.82206  0.24362  0.83441  Biso   1.000  O
  O231     1.0000 0.75638  0.57845  0.83441  Biso   1.000  O
  O232     1.0000 0.84460  0.75489  0.49893  Biso   1.000  O
  O233     1.0000 0.24511  0.08972  0.49893  Biso   1.000  O
  O234     1.0000 0.91028  0.15540  0.49893  Biso   1.000  O
  O235     1.0000 0.91178  0.48873  0.83226  Biso   1.000  O
  O236     1.0000 0.51127  0.42305  0.83226  Biso   1.000  O
  O237     1.0000 0.57695  0.08822  0.83226  Biso   1.000  O
  O238     1.0000 0.48873  0.91178  0.16774  Biso   1.000  O
  O239     1.0000 0.08822  0.57695  0.16774  Biso   1.000  O
  O240     1.0000 0.42305  0.51127  0.16774  Biso   1.000  O
  O241     1.0000 0.57845  0.82206  0.16559  Biso   1.000  O
  O242     1.0000 0.17794  0.75638  0.16559  Biso   1.000  O
  O243     1.0000 0.24362  0.42155  0.16559  Biso   1.000  O
  O244     1.0000 0.15540  0.24511  0.50107  Biso   1.000  O
  O245     1.0000 0.75489  0.91028  0.50107  Biso   1.000  O
  O246     1.0000 0.08972  0.84460  0.50107  Biso   1.000  O
  O247     1.0000 0.24511  0.15540  0.49893  Biso   1.000  O
  O248     1.0000 0.84460  0.08972  0.49893  Biso   1.000  O
  O249     1.0000 0.91028  0.75489  0.49893  Biso   1.000  O
  O250     1.0000 0.82206  0.57845  0.83441  Biso   1.000  O
  O251     1.0000 0.42155  0.24362  0.83441  Biso   1.000  O
  O252     1.0000 0.75638  0.17794  0.83441  Biso   1.000  O
  O253     1.0000 0.03053  0.48222  0.14442  Biso   1.000  O
  O254     1.0000 0.51778  0.54831  0.14442  Biso   1.000  O
  O255     1.0000 0.45169  0.96947  0.14442  Biso   1.000  O
  O256     1.0000 0.48222  0.03053  0.85558  Biso   1.000  O
  O257     1.0000 0.96947  0.45169  0.85558  Biso   1.000  O
  O258     1.0000 0.54831  0.51778  0.85558  Biso   1.000  O
  O259     1.0000 0.69720  0.81555  0.47775  Biso   1.000  O
  O260     1.0000 0.18445  0.88164  0.47775  Biso   1.000  O
  O261     1.0000 0.11836  0.30280  0.47775  Biso   1.000  O
  O262     1.0000 0.14889  0.36386  0.18891  Biso   1.000  O
  O263     1.0000 0.63614  0.78502  0.18891  Biso   1.000  O
  O264     1.0000 0.21498  0.85111  0.18891  Biso   1.000  O
  O265     1.0000 0.36386  0.14889  0.81109  Biso   1.000  O
  O266     1.0000 0.85111  0.21498  0.81109  Biso   1.000  O
  O267     1.0000 0.78502  0.63614  0.81109  Biso   1.000  O
  O268     1.0000 0.81555  0.69720  0.52225  Biso   1.000  O
  O269     1.0000 0.30280  0.11836  0.52225  Biso   1.000  O
  O270     1.0000 0.88164  0.18445  0.52225  Biso   1.000  O
  O271     1.0000 0.96947  0.51778  0.85558  Biso   1.000  O
  O272     1.0000 0.48222  0.45169  0.85558  Biso   1.000  O
  O273     1.0000 0.54831  0.03053  0.85558  Biso   1.000  O
  O274     1.0000 0.51778  0.96947  0.14442  Biso   1.000  O
  O275     1.0000 0.03053  0.54831  0.14442  Biso   1.000  O
  O276     1.0000 0.45169  0.48222  0.14442  Biso   1.000  O
  O277     1.0000 0.63614  0.85111  0.18891  Biso   1.000  O
  O278     1.0000 0.14889  0.78502  0.18891  Biso   1.000  O
  O279     1.0000 0.21498  0.36386  0.18891  Biso   1.000  O
  O280     1.0000 0.18445  0.30280  0.47775  Biso   1.000  O
  O281     1.0000 0.69720  0.88164  0.47775  Biso   1.000  O
  O282     1.0000 0.11836  0.81555  0.47775  Biso   1.000  O
  O283     1.0000 0.30280  0.18445  0.52225  Biso   1.000  O
  O284     1.0000 0.81555  0.11836  0.52225  Biso   1.000  O
  O285     1.0000 0.88164  0.69720  0.52225  Biso   1.000  O
  O286     1.0000 0.85111  0.63614  0.81109  Biso   1.000  O
  O287     1.0000 0.36386  0.21498  0.81109  Biso   1.000  O
  O288     1.0000 0.78502  0.14889  0.81109  Biso   1.000  O
  O289     1.0000 0.90008  0.09992  0.40210  Biso   1.000  O
  O290     1.0000 0.90008  0.80016  0.40210  Biso   1.000  O
  O291     1.0000 0.19984  0.09992  0.40210  Biso   1.000  O
  O292     1.0000 0.09992  0.90008  0.59790  Biso   1.000  O
  O293     1.0000 0.09992  0.19984  0.59790  Biso   1.000  O
  O294     1.0000 0.80016  0.90008  0.59790  Biso   1.000  O
  O295     1.0000 0.56675  0.43325  0.73543  Biso   1.000  O
  O296     1.0000 0.56675  0.13349  0.73543  Biso   1.000  O
  O297     1.0000 0.86651  0.43325  0.73543  Biso   1.000  O
  O298     1.0000 0.76659  0.23341  0.93123  Biso   1.000  O
  O299     1.0000 0.76659  0.53317  0.93123  Biso   1.000  O
  O300     1.0000 0.46683  0.23341  0.93123  Biso   1.000  O
  O301     1.0000 0.23341  0.76659  0.06877  Biso   1.000  O
  O302     1.0000 0.23341  0.46683  0.06877  Biso   1.000  O
  O303     1.0000 0.53317  0.76659  0.06877  Biso   1.000  O
  O304     1.0000 0.43325  0.56675  0.26457  Biso   1.000  O
  O305     1.0000 0.43325  0.86651  0.26457  Biso   1.000  O
  O306     1.0000 0.13349  0.56675  0.26457  Biso   1.000  O
  O307     1.0000 0.87480  0.12520  0.36310  Biso   1.000  O
  O308     1.0000 0.87480  0.74960  0.36310  Biso   1.000  O
  O309     1.0000 0.25040  0.12520  0.36310  Biso   1.000  O
  O310     1.0000 0.12520  0.87480  0.63690  Biso   1.000  O
  O311     1.0000 0.12520  0.25040  0.63690  Biso   1.000  O
  O312     1.0000 0.74960  0.87480  0.63690  Biso   1.000  O
  O313     1.0000 0.54147  0.45853  0.69643  Biso   1.000  O
  O314     1.0000 0.54147  0.08293  0.69643  Biso   1.000  O
  O315     1.0000 0.91707  0.45853  0.69643  Biso   1.000  O
  O316     1.0000 0.79187  0.20813  0.97023  Biso   1.000  O
  O317     1.0000 0.79187  0.58373  0.97023  Biso   1.000  O
  O318     1.0000 0.41627  0.20813  0.97023  Biso   1.000  O
  O319     1.0000 0.20813  0.79187  0.02977  Biso   1.000  O
  O320     1.0000 0.20813  0.41627  0.02977  Biso   1.000  O
  O321     1.0000 0.58373  0.79187  0.02977  Biso   1.000  O
  O322     1.0000 0.45853  0.54147  0.30357  Biso   1.000  O
  O323     1.0000 0.45853  0.91707  0.30357  Biso   1.000  O
  O324     1.0000 0.08293  0.54147  0.30357  Biso   1.000  O
  O325     1.0000 0.90426  0.09574  0.25470  Biso   1.000  O
  O326     1.0000 0.90426  0.80852  0.25470  Biso   1.000  O
  O327     1.0000 0.19148  0.09574  0.25470  Biso   1.000  O
  O328     1.0000 0.09574  0.90426  0.74530  Biso   1.000  O
  O329     1.0000 0.09574  0.19148  0.74530  Biso   1.000  O
  O330     1.0000 0.80852  0.90426  0.74530  Biso   1.000  O
  O331     1.0000 0.57093  0.42907  0.58803  Biso   1.000  O
  O332     1.0000 0.57093  0.14185  0.58803  Biso   1.000  O
  O333     1.0000 0.85815  0.42907  0.58803  Biso   1.000  O
  O334     1.0000 0.76241  0.23759  0.07863  Biso   1.000  O
  O335     1.0000 0.76241  0.52481  0.07863  Biso   1.000  O
  O336     1.0000 0.47519  0.23759  0.07863  Biso   1.000  O
  O337     1.0000 0.23759  0.76241  0.92137  Biso   1.000  O
  O338     1.0000 0.23759  0.47519  0.92137  Biso   1.000  O
  O339     1.0000 0.52481  0.76241  0.92137  Biso   1.000  O
  O340     1.0000 0.42907  0.57093  0.41197  Biso   1.000  O
  O341     1.0000 0.42907  0.85815  0.41197  Biso   1.000  O
  O342     1.0000 0.14185  0.57093  0.41197  Biso   1.000  O
  O343     1.0000 0.92907  0.07093  0.29720  Biso   1.000  O
  O344     1.0000 0.92907  0.85814  0.29720  Biso   1.000  O
  O345     1.0000 0.14186  0.07093  0.29720  Biso   1.000  O
  O346     1.0000 0.07093  0.92907  0.70280  Biso   1.000  O
  O347     1.0000 0.07093  0.14186  0.70280  Biso   1.000  O
  O348     1.0000 0.85814  0.92907  0.70280  Biso   1.000  O
  O349     1.0000 0.59574  0.40426  0.63053  Biso   1.000  O
  O350     1.0000 0.59574  0.19147  0.63053  Biso   1.000  O
  O351     1.0000 0.80853  0.40426  0.63053  Biso   1.000  O
  O352     1.0000 0.73760  0.26240  0.03613  Biso   1.000  O
  O353     1.0000 0.73760  0.47519  0.03613  Biso   1.000  O
  O354     1.0000 0.52481  0.26240  0.03613  Biso   1.000  O
  O355     1.0000 0.26240  0.73760  0.96387  Biso   1.000  O
  O356     1.0000 0.26240  0.52481  0.96387  Biso   1.000  O
  O357     1.0000 0.47519  0.73760  0.96387  Biso   1.000  O
  O358     1.0000 0.40426  0.59574  0.36947  Biso   1.000  O
  O359     1.0000 0.40426  0.80853  0.36947  Biso   1.000  O
  O360     1.0000 0.19147  0.59574  0.36947  Biso   1.000  O
