data_image0
_cell_length_a       36.542
_cell_length_b       39.322
_cell_length_c       43.852
_cell_angle_alpha    90
_cell_angle_beta     90
_cell_angle_gamma    90

_symmetry_space_group_name_H-M    "P 1"
_symmetry_int_tables_number       1

loop_
  _symmetry_equiv_pos_as_xyz
  'x, y, z'

loop_
  _atom_site_label
  _atom_site_occupancy
  _atom_site_fract_x
  _atom_site_fract_y
  _atom_site_fract_z
  _atom_site_thermal_displace_type
  _atom_site_B_iso_or_equiv
  _atom_site_type_symbol
  Cu1      1.0000 0.50000  0.00060  0.15728  Biso   1.000  Cu
  Cu2      1.0000 0.50000  0.99940  0.65728  Biso   1.000  Cu
  Cu3      1.0000 0.00000  0.50060  0.15728  Biso   1.000  Cu
  Cu4      1.0000 0.00000  0.49940  0.65728  Biso   1.000  Cu
  Cu5      1.0000 0.50000  0.05611  0.12263  Biso   1.000  Cu
  Cu6      1.0000 0.50000  0.94389  0.62263  Biso   1.000  Cu
  Cu7      1.0000 0.00000  0.55611  0.12263  Biso   1.000  Cu
  Cu8      1.0000 0.00000  0.44389  0.62263  Biso   1.000  Cu
  Cu9      1.0000 0.66731  0.08230  0.99906  Biso   1.000  Cu
  Cu10     1.0000 0.33269  0.91770  0.49906  Biso   1.000  Cu
  Cu11     1.0000 0.33269  0.08230  0.99906  Biso   1.000  Cu
  Cu12     1.0000 0.66731  0.91770  0.49906  Biso   1.000  Cu
  Cu13     1.0000 0.16731  0.58230  0.99906  Biso   1.000  Cu
  Cu14     1.0000 0.83269  0.41770  0.49906  Biso   1.000  Cu
  Cu15     1.0000 0.83269  0.58230  0.99906  Biso   1.000  Cu
  Cu16     1.0000 0.16731  0.41770  0.49906  Biso   1.000  Cu
  Cu17     1.0000 0.72109  0.03679  0.99955  Biso   1.000  Cu
  Cu18     1.0000 0.27891  0.96321  0.49955  Biso   1.000  Cu
  Cu19     1.0000 0.27891  0.03679  0.99955  Biso   1.000  Cu
  Cu20     1.0000 0.72109  0.96321  0.49955  Biso   1.000  Cu
  Cu21     1.0000 0.22109  0.53679  0.99955  Biso   1.000  Cu
  Cu22     1.0000 0.77891  0.46321  0.49955  Biso   1.000  Cu
  Cu23     1.0000 0.77891  0.53679  0.99955  Biso   1.000  Cu
  Cu24     1.0000 0.22109  0.46321  0.49955  Biso   1.000  Cu
  Cu25     1.0000 0.84550  0.70430  0.16021  Biso   1.000  Cu
  Cu26     1.0000 0.15450  0.29570  0.66021  Biso   1.000  Cu
  Cu27     1.0000 0.15450  0.70430  0.16021  Biso   1.000  Cu
  Cu28     1.0000 0.84550  0.29570  0.66021  Biso   1.000  Cu
  Cu29     1.0000 0.34550  0.20430  0.16021  Biso   1.000  Cu
  Cu30     1.0000 0.65450  0.79570  0.66021  Biso   1.000  Cu
  Cu31     1.0000 0.65450  0.20430  0.16021  Biso   1.000  Cu
  Cu32     1.0000 0.34550  0.79570  0.66021  Biso   1.000  Cu
  Cu33     1.0000 0.79661  0.69070  0.20340  Biso   1.000  Cu
  Cu34     1.0000 0.20339  0.30930  0.70340  Biso   1.000  Cu
  Cu35     1.0000 0.20339  0.69070  0.20340  Biso   1.000  Cu
  Cu36     1.0000 0.79661  0.30930  0.70340  Biso   1.000  Cu
  Cu37     1.0000 0.29661  0.19070  0.20340  Biso   1.000  Cu
  Cu38     1.0000 0.70339  0.80930  0.70340  Biso   1.000  Cu
  Cu39     1.0000 0.70339  0.19070  0.20340  Biso   1.000  Cu
  Cu40     1.0000 0.29661  0.80930  0.70340  Biso   1.000  Cu
  Cu41     1.0000 0.00000  0.85152  0.19762  Biso   1.000  Cu
  Cu42     1.0000 0.00000  0.14848  0.69762  Biso   1.000  Cu
  Cu43     1.0000 0.50000  0.35152  0.19762  Biso   1.000  Cu
  Cu44     1.0000 0.50000  0.64848  0.69762  Biso   1.000  Cu
  Cu45     1.0000 0.00000  0.88110  0.25206  Biso   1.000  Cu
  Cu46     1.0000 0.00000  0.11890  0.75206  Biso   1.000  Cu
  Cu47     1.0000 0.50000  0.38110  0.25206  Biso   1.000  Cu
  Cu48     1.0000 0.50000  0.61890  0.75206  Biso   1.000  Cu
  O1       1.0000 0.50000  0.10060  0.09409  Biso   1.000  O
  O2       1.0000 0.50000  0.89940  0.59409  Biso   1.000  O
  O3       1.0000 0.00000  0.60060  0.09409  Biso   1.000  O
  O4       1.0000 0.00000  0.39940  0.59409  Biso   1.000  O
  H1       1.0000 0.52070  0.10350  0.08680  Biso   1.000  H
  H2       1.0000 0.47930  0.89650  0.58680  Biso   1.000  H
  H3       1.0000 0.47930  0.10350  0.08680  Biso   1.000  H
  H4       1.0000 0.52070  0.89650  0.58680  Biso   1.000  H
  H5       1.0000 0.02070  0.60350  0.08680  Biso   1.000  H
  H6       1.0000 0.97930  0.39650  0.58680  Biso   1.000  H
  H7       1.0000 0.97930  0.60350  0.08680  Biso   1.000  H
  H8       1.0000 0.02070  0.39650  0.58680  Biso   1.000  H
  O5       1.0000 0.50000  0.95516  0.18547  Biso   1.000  O
  O6       1.0000 0.50000  0.04484  0.68547  Biso   1.000  O
  O7       1.0000 0.00000  0.45516  0.18547  Biso   1.000  O
  O8       1.0000 0.00000  0.54484  0.68547  Biso   1.000  O
  H9       1.0000 0.52130  0.95050  0.19050  Biso   1.000  H
  H10      1.0000 0.47870  0.04950  0.69050  Biso   1.000  H
  H11      1.0000 0.47870  0.95050  0.19050  Biso   1.000  H
  H12      1.0000 0.52130  0.04950  0.69050  Biso   1.000  H
  H13      1.0000 0.02130  0.45050  0.19050  Biso   1.000  H
  H14      1.0000 0.97870  0.54950  0.69050  Biso   1.000  H
  H15      1.0000 0.97870  0.45050  0.19050  Biso   1.000  H
  H16      1.0000 0.02130  0.54950  0.69050  Biso   1.000  H
  O9       1.0000 0.62388  0.11934  0.99468  Biso   1.000  O
  O10      1.0000 0.37612  0.88066  0.49468  Biso   1.000  O
  O11      1.0000 0.37612  0.11934  0.99468  Biso   1.000  O
  O12      1.0000 0.62388  0.88066  0.49468  Biso   1.000  O
  O13      1.0000 0.12388  0.61934  0.99468  Biso   1.000  O
  O14      1.0000 0.87612  0.38066  0.49468  Biso   1.000  O
  O15      1.0000 0.87612  0.61934  0.99468  Biso   1.000  O
  O16      1.0000 0.12388  0.38066  0.49468  Biso   1.000  O
  H17      1.0000 0.63190  0.13900  0.99920  Biso   1.000  H
  H18      1.0000 0.36810  0.86100  0.49920  Biso   1.000  H
  H19      1.0000 0.36810  0.13900  0.99920  Biso   1.000  H
  H20      1.0000 0.63190  0.86100  0.49920  Biso   1.000  H
  H21      1.0000 0.13190  0.63900  0.99920  Biso   1.000  H
  H22      1.0000 0.86810  0.36100  0.49920  Biso   1.000  H
  H23      1.0000 0.86810  0.63900  0.99920  Biso   1.000  H
  H24      1.0000 0.13190  0.36100  0.49920  Biso   1.000  H
  H25      1.0000 0.61660  0.11970  0.97630  Biso   1.000  H
  H26      1.0000 0.38340  0.88030  0.47630  Biso   1.000  H
  H27      1.0000 0.38340  0.11970  0.97630  Biso   1.000  H
  H28      1.0000 0.61660  0.88030  0.47630  Biso   1.000  H
  H29      1.0000 0.11660  0.61970  0.97630  Biso   1.000  H
  H30      1.0000 0.88340  0.38030  0.47630  Biso   1.000  H
  H31      1.0000 0.88340  0.61970  0.97630  Biso   1.000  H
  H32      1.0000 0.11660  0.38030  0.47630  Biso   1.000  H
  O17      1.0000 0.76412  0.99976  0.00197  Biso   1.000  O
  O18      1.0000 0.23588  0.00024  0.50197  Biso   1.000  O
  O19      1.0000 0.23588  0.99976  0.00197  Biso   1.000  O
  O20      1.0000 0.76412  0.00024  0.50197  Biso   1.000  O
  O21      1.0000 0.26412  0.49976  0.00197  Biso   1.000  O
  O22      1.0000 0.73588  0.50024  0.50197  Biso   1.000  O
  O23      1.0000 0.73588  0.49976  0.00197  Biso   1.000  O
  O24      1.0000 0.26412  0.50024  0.50197  Biso   1.000  O
  H33      1.0000 0.75950  0.98350  0.98980  Biso   1.000  H
  H34      1.0000 0.24050  0.01650  0.48980  Biso   1.000  H
  H35      1.0000 0.24050  0.98350  0.98980  Biso   1.000  H
  H36      1.0000 0.75950  0.01650  0.48980  Biso   1.000  H
  H37      1.0000 0.25950  0.48350  0.98980  Biso   1.000  H
  H38      1.0000 0.74050  0.51650  0.48980  Biso   1.000  H
  H39      1.0000 0.74050  0.48350  0.98980  Biso   1.000  H
  H40      1.0000 0.25950  0.51650  0.48980  Biso   1.000  H
  H41      1.0000 0.76510  0.99180  0.02000  Biso   1.000  H
  H42      1.0000 0.23490  0.00820  0.52000  Biso   1.000  H
  H43      1.0000 0.23490  0.99180  0.02000  Biso   1.000  H
  H44      1.0000 0.76510  0.00820  0.52000  Biso   1.000  H
  H45      1.0000 0.26510  0.49180  0.02000  Biso   1.000  H
  H46      1.0000 0.73490  0.50820  0.52000  Biso   1.000  H
  H47      1.0000 0.73490  0.49180  0.02000  Biso   1.000  H
  H48      1.0000 0.26510  0.50820  0.52000  Biso   1.000  H
  O25      1.0000 0.88507  0.71883  0.12610  Biso   1.000  O
  O26      1.0000 0.11493  0.28117  0.62610  Biso   1.000  O
  O27      1.0000 0.11493  0.71883  0.12610  Biso   1.000  O
  O28      1.0000 0.88507  0.28117  0.62610  Biso   1.000  O
  O29      1.0000 0.38507  0.21883  0.12610  Biso   1.000  O
  O30      1.0000 0.61493  0.78117  0.62610  Biso   1.000  O
  O31      1.0000 0.61493  0.21883  0.12610  Biso   1.000  O
  O32      1.0000 0.38507  0.78117  0.62610  Biso   1.000  O
  H49      1.0000 0.88130  0.73930  0.12060  Biso   1.000  H
  H50      1.0000 0.11870  0.26070  0.62060  Biso   1.000  H
  H51      1.0000 0.11870  0.73930  0.12060  Biso   1.000  H
  H52      1.0000 0.88130  0.26070  0.62060  Biso   1.000  H
  H53      1.0000 0.38130  0.23930  0.12060  Biso   1.000  H
  H54      1.0000 0.61870  0.76070  0.62060  Biso   1.000  H
  H55      1.0000 0.61870  0.23930  0.12060  Biso   1.000  H
  H56      1.0000 0.38130  0.76070  0.62060  Biso   1.000  H
  H57      1.0000 0.88270  0.70610  0.11050  Biso   1.000  H
  H58      1.0000 0.11730  0.29390  0.61050  Biso   1.000  H
  H59      1.0000 0.11730  0.70610  0.11050  Biso   1.000  H
  H60      1.0000 0.88270  0.29390  0.61050  Biso   1.000  H
  H61      1.0000 0.38270  0.20610  0.11050  Biso   1.000  H
  H62      1.0000 0.61730  0.79390  0.61050  Biso   1.000  H
  H63      1.0000 0.61730  0.20610  0.11050  Biso   1.000  H
  H64      1.0000 0.38270  0.79390  0.61050  Biso   1.000  H
  O33      1.0000 0.75650  0.67752  0.23756  Biso   1.000  O
  O34      1.0000 0.24350  0.32248  0.73756  Biso   1.000  O
  O35      1.0000 0.24350  0.67752  0.23756  Biso   1.000  O
  O36      1.0000 0.75650  0.32248  0.73756  Biso   1.000  O
  O37      1.0000 0.25650  0.17752  0.23756  Biso   1.000  O
  O38      1.0000 0.74350  0.82248  0.73756  Biso   1.000  O
  O39      1.0000 0.74350  0.17752  0.23756  Biso   1.000  O
  O40      1.0000 0.25650  0.82248  0.73756  Biso   1.000  O
  H65      1.0000 0.76050  0.65740  0.24380  Biso   1.000  H
  H66      1.0000 0.23950  0.34260  0.74380  Biso   1.000  H
  H67      1.0000 0.23950  0.65740  0.24380  Biso   1.000  H
  H68      1.0000 0.76050  0.34260  0.74380  Biso   1.000  H
  H69      1.0000 0.26050  0.15740  0.24380  Biso   1.000  H
  H70      1.0000 0.73950  0.84260  0.74380  Biso   1.000  H
  H71      1.0000 0.73950  0.15740  0.24380  Biso   1.000  H
  H72      1.0000 0.26050  0.84260  0.74380  Biso   1.000  H
  H73      1.0000 0.75830  0.69100  0.25270  Biso   1.000  H
  H74      1.0000 0.24170  0.30900  0.75270  Biso   1.000  H
  H75      1.0000 0.24170  0.69100  0.25270  Biso   1.000  H
  H76      1.0000 0.75830  0.30900  0.75270  Biso   1.000  H
  H77      1.0000 0.25830  0.19100  0.25270  Biso   1.000  H
  H78      1.0000 0.74170  0.80900  0.75270  Biso   1.000  H
  H79      1.0000 0.74170  0.19100  0.25270  Biso   1.000  H
  H80      1.0000 0.25830  0.80900  0.75270  Biso   1.000  H
  O41      1.0000 0.00000  0.82931  0.15347  Biso   1.000  O
  O42      1.0000 0.00000  0.17069  0.65347  Biso   1.000  O
  O43      1.0000 0.50000  0.32931  0.15347  Biso   1.000  O
  O44      1.0000 0.50000  0.67069  0.65347  Biso   1.000  O
  O45      1.0000 0.00000  0.90267  0.29825  Biso   1.000  O
  O46      1.0000 0.00000  0.09733  0.79825  Biso   1.000  O
  O47      1.0000 0.50000  0.40267  0.29825  Biso   1.000  O
  O48      1.0000 0.50000  0.59733  0.79825  Biso   1.000  O
  O49      1.0000 0.53837  0.03129  0.09906  Biso   1.000  O
  O50      1.0000 0.46163  0.96871  0.59906  Biso   1.000  O
  O51      1.0000 0.46163  0.03129  0.09906  Biso   1.000  O
  O52      1.0000 0.53837  0.96871  0.59906  Biso   1.000  O
  O53      1.0000 0.03837  0.53129  0.09906  Biso   1.000  O
  O54      1.0000 0.96163  0.46871  0.59906  Biso   1.000  O
  O55      1.0000 0.96163  0.53129  0.09906  Biso   1.000  O
  O56      1.0000 0.03837  0.46871  0.59906  Biso   1.000  O
  O57      1.0000 0.53911  0.98482  0.12880  Biso   1.000  O
  O58      1.0000 0.46089  0.01518  0.62880  Biso   1.000  O
  O59      1.0000 0.46089  0.98482  0.12880  Biso   1.000  O
  O60      1.0000 0.53911  0.01518  0.62880  Biso   1.000  O
  O61      1.0000 0.03911  0.48482  0.12880  Biso   1.000  O
  O62      1.0000 0.96089  0.51518  0.62880  Biso   1.000  O
  O63      1.0000 0.96089  0.48482  0.12880  Biso   1.000  O
  O64      1.0000 0.03911  0.51518  0.62880  Biso   1.000  O
  O65      1.0000 0.63933  0.04887  0.02483  Biso   1.000  O
  O66      1.0000 0.36067  0.95113  0.52483  Biso   1.000  O
  O67      1.0000 0.36067  0.04887  0.02483  Biso   1.000  O
  O68      1.0000 0.63933  0.95113  0.52483  Biso   1.000  O
  O69      1.0000 0.13933  0.54887  0.02483  Biso   1.000  O
  O70      1.0000 0.86067  0.45113  0.52483  Biso   1.000  O
  O71      1.0000 0.86067  0.54887  0.02483  Biso   1.000  O
  O72      1.0000 0.13933  0.45113  0.52483  Biso   1.000  O
  O73      1.0000 0.68654  0.01029  0.02425  Biso   1.000  O
  O74      1.0000 0.31346  0.98971  0.52425  Biso   1.000  O
  O75      1.0000 0.31346  0.01029  0.02425  Biso   1.000  O
  O76      1.0000 0.68654  0.98971  0.52425  Biso   1.000  O
  O77      1.0000 0.18654  0.51029  0.02425  Biso   1.000  O
  O78      1.0000 0.81346  0.48971  0.52425  Biso   1.000  O
  O79      1.0000 0.81346  0.51029  0.02425  Biso   1.000  O
  O80      1.0000 0.18654  0.48971  0.52425  Biso   1.000  O
  O81      1.0000 0.76713  0.72785  0.18322  Biso   1.000  O
  O82      1.0000 0.23287  0.27215  0.68322  Biso   1.000  O
  O83      1.0000 0.23287  0.72785  0.18322  Biso   1.000  O
  O84      1.0000 0.76713  0.27215  0.68322  Biso   1.000  O
  O85      1.0000 0.26713  0.22785  0.18322  Biso   1.000  O
  O86      1.0000 0.73287  0.77215  0.68322  Biso   1.000  O
  O87      1.0000 0.73287  0.22785  0.18322  Biso   1.000  O
  O88      1.0000 0.26713  0.77215  0.68322  Biso   1.000  O
  O89      1.0000 0.81117  0.74057  0.14930  Biso   1.000  O
  O90      1.0000 0.18883  0.25943  0.64930  Biso   1.000  O
  O91      1.0000 0.18883  0.74057  0.14930  Biso   1.000  O
  O92      1.0000 0.81117  0.25943  0.64930  Biso   1.000  O
  O93      1.0000 0.31117  0.24057  0.14930  Biso   1.000  O
  O94      1.0000 0.68883  0.75943  0.64930  Biso   1.000  O
  O95      1.0000 0.68883  0.24057  0.14930  Biso   1.000  O
  O96      1.0000 0.31117  0.75943  0.64930  Biso   1.000  O
  O97      1.0000 0.69030  0.09884  0.03805  Biso   1.000  O
  O98      1.0000 0.30970  0.90116  0.53805  Biso   1.000  O
  O99      1.0000 0.30970  0.09884  0.03805  Biso   1.000  O
  O100     1.0000 0.69030  0.90116  0.53805  Biso   1.000  O
  O101     1.0000 0.19030  0.59884  0.03805  Biso   1.000  O
  O102     1.0000 0.80970  0.40116  0.53805  Biso   1.000  O
  O103     1.0000 0.80970  0.59884  0.03805  Biso   1.000  O
  O104     1.0000 0.19030  0.40116  0.53805  Biso   1.000  O
  O105     1.0000 0.73614  0.06172  0.03615  Biso   1.000  O
  O106     1.0000 0.26386  0.93828  0.53615  Biso   1.000  O
  O107     1.0000 0.26386  0.06172  0.03615  Biso   1.000  O
  O108     1.0000 0.73614  0.93828  0.53615  Biso   1.000  O
  O109     1.0000 0.23614  0.56172  0.03615  Biso   1.000  O
  O110     1.0000 0.76386  0.43828  0.53615  Biso   1.000  O
  O111     1.0000 0.76386  0.56172  0.03615  Biso   1.000  O
  O112     1.0000 0.23614  0.43828  0.53615  Biso   1.000  O
  O113     1.0000 0.68394  0.17164  0.13488  Biso   1.000  O
  O114     1.0000 0.31606  0.82836  0.63488  Biso   1.000  O
  O115     1.0000 0.31606  0.17164  0.13488  Biso   1.000  O
  O116     1.0000 0.68394  0.82836  0.63488  Biso   1.000  O
  O117     1.0000 0.18394  0.67164  0.13488  Biso   1.000  O
  O118     1.0000 0.81606  0.32836  0.63488  Biso   1.000  O
  O119     1.0000 0.81606  0.67164  0.13488  Biso   1.000  O
  O120     1.0000 0.18394  0.32836  0.63488  Biso   1.000  O
  O121     1.0000 0.72218  0.15695  0.17305  Biso   1.000  O
  O122     1.0000 0.27782  0.84305  0.67305  Biso   1.000  O
  O123     1.0000 0.27782  0.15695  0.17305  Biso   1.000  O
  O124     1.0000 0.72218  0.84305  0.67305  Biso   1.000  O
  O125     1.0000 0.22218  0.65695  0.17305  Biso   1.000  O
  O126     1.0000 0.77782  0.34305  0.67305  Biso   1.000  O
  O127     1.0000 0.77782  0.65695  0.17305  Biso   1.000  O
  O128     1.0000 0.22218  0.34305  0.67305  Biso   1.000  O
  O129     1.0000 0.96160  0.91107  0.23406  Biso   1.000  O
  O130     1.0000 0.03840  0.08893  0.73406  Biso   1.000  O
  O131     1.0000 0.03840  0.91107  0.23406  Biso   1.000  O
  O132     1.0000 0.96160  0.08893  0.73406  Biso   1.000  O
  O133     1.0000 0.46160  0.41107  0.23406  Biso   1.000  O
  O134     1.0000 0.53840  0.58893  0.73406  Biso   1.000  O
  O135     1.0000 0.53840  0.41107  0.23406  Biso   1.000  O
  O136     1.0000 0.46160  0.58893  0.73406  Biso   1.000  O
  O137     1.0000 0.96217  0.88706  0.18940  Biso   1.000  O
  O138     1.0000 0.03783  0.11294  0.68940  Biso   1.000  O
  O139     1.0000 0.03783  0.88706  0.18940  Biso   1.000  O
  O140     1.0000 0.96217  0.11294  0.68940  Biso   1.000  O
  O141     1.0000 0.46217  0.38706  0.18940  Biso   1.000  O
  O142     1.0000 0.53783  0.61294  0.68940  Biso   1.000  O
  O143     1.0000 0.53783  0.38706  0.18940  Biso   1.000  O
  O144     1.0000 0.46217  0.61294  0.68940  Biso   1.000  O
  O145     1.0000 0.53773  0.02598  0.18072  Biso   1.000  O
  O146     1.0000 0.46227  0.97402  0.68072  Biso   1.000  O
  O147     1.0000 0.46227  0.02598  0.18072  Biso   1.000  O
  O148     1.0000 0.53773  0.97402  0.68072  Biso   1.000  O
  O149     1.0000 0.03773  0.52598  0.18072  Biso   1.000  O
  O150     1.0000 0.96227  0.47402  0.68072  Biso   1.000  O
  O151     1.0000 0.96227  0.52598  0.18072  Biso   1.000  O
  O152     1.0000 0.03773  0.47402  0.68072  Biso   1.000  O
  O153     1.0000 0.53836  0.07202  0.15190  Biso   1.000  O
  O154     1.0000 0.46164  0.92798  0.65190  Biso   1.000  O
  O155     1.0000 0.46164  0.07202  0.15190  Biso   1.000  O
  O156     1.0000 0.53836  0.92798  0.65190  Biso   1.000  O
  O157     1.0000 0.03836  0.57202  0.15190  Biso   1.000  O
  O158     1.0000 0.96164  0.42798  0.65190  Biso   1.000  O
  O159     1.0000 0.96164  0.57202  0.15190  Biso   1.000  O
  O160     1.0000 0.03836  0.42798  0.65190  Biso   1.000  O
  O161     1.0000 0.62711  0.16409  0.17617  Biso   1.000  O
  O162     1.0000 0.37289  0.83591  0.67617  Biso   1.000  O
  O163     1.0000 0.37289  0.16409  0.17617  Biso   1.000  O
  O164     1.0000 0.62711  0.83591  0.67617  Biso   1.000  O
  O165     1.0000 0.12711  0.66409  0.17617  Biso   1.000  O
  O166     1.0000 0.87289  0.33591  0.67617  Biso   1.000  O
  O167     1.0000 0.87289  0.66409  0.17617  Biso   1.000  O
  O168     1.0000 0.12711  0.33591  0.67617  Biso   1.000  O
  O169     1.0000 0.66668  0.15520  0.21557  Biso   1.000  O
  O170     1.0000 0.33332  0.84480  0.71557  Biso   1.000  O
  O171     1.0000 0.33332  0.15520  0.21557  Biso   1.000  O
  O172     1.0000 0.66668  0.84480  0.71557  Biso   1.000  O
  O173     1.0000 0.16668  0.65520  0.21557  Biso   1.000  O
  O174     1.0000 0.83332  0.34480  0.71557  Biso   1.000  O
  O175     1.0000 0.83332  0.65520  0.21557  Biso   1.000  O
  O176     1.0000 0.16668  0.34480  0.71557  Biso   1.000  O
  O177     1.0000 0.69859  0.98209  0.46330  Biso   1.000  O
  O178     1.0000 0.30141  0.01791  0.96330  Biso   1.000  O
  O179     1.0000 0.30141  0.98209  0.46330  Biso   1.000  O
  O180     1.0000 0.69859  0.01791  0.96330  Biso   1.000  O
  O181     1.0000 0.19859  0.48209  0.46330  Biso   1.000  O
  O182     1.0000 0.80141  0.51791  0.96330  Biso   1.000  O
  O183     1.0000 0.80141  0.48209  0.46330  Biso   1.000  O
  O184     1.0000 0.19859  0.51791  0.96330  Biso   1.000  O
  O185     1.0000 0.65329  0.94355  0.46181  Biso   1.000  O
  O186     1.0000 0.34671  0.05645  0.96181  Biso   1.000  O
  O187     1.0000 0.34671  0.94355  0.46181  Biso   1.000  O
  O188     1.0000 0.65329  0.05645  0.96181  Biso   1.000  O
  O189     1.0000 0.15329  0.44355  0.46181  Biso   1.000  O
  O190     1.0000 0.84671  0.55645  0.96181  Biso   1.000  O
  O191     1.0000 0.84671  0.44355  0.46181  Biso   1.000  O
  O192     1.0000 0.15329  0.55645  0.96181  Biso   1.000  O
  O193     1.0000 0.82268  0.27551  0.72849  Biso   1.000  O
  O194     1.0000 0.17732  0.72449  0.22849  Biso   1.000  O
  O195     1.0000 0.17732  0.27551  0.72849  Biso   1.000  O
  O196     1.0000 0.82268  0.72449  0.22849  Biso   1.000  O
  O197     1.0000 0.32268  0.77551  0.72849  Biso   1.000  O
  O198     1.0000 0.67732  0.22449  0.22849  Biso   1.000  O
  O199     1.0000 0.67732  0.77551  0.72849  Biso   1.000  O
  O200     1.0000 0.32268  0.22449  0.22849  Biso   1.000  O
  O201     1.0000 0.86704  0.26719  0.69345  Biso   1.000  O
  O202     1.0000 0.13296  0.73281  0.19345  Biso   1.000  O
  O203     1.0000 0.13296  0.26719  0.69345  Biso   1.000  O
  O204     1.0000 0.86704  0.73281  0.19345  Biso   1.000  O
  O205     1.0000 0.36704  0.76719  0.69345  Biso   1.000  O
  O206     1.0000 0.63296  0.23281  0.19345  Biso   1.000  O
  O207     1.0000 0.63296  0.76719  0.69345  Biso   1.000  O
  O208     1.0000 0.36704  0.23281  0.19345  Biso   1.000  O
  O209     1.0000 0.96075  0.17780  0.71462  Biso   1.000  O
  O210     1.0000 0.03925  0.82220  0.21462  Biso   1.000  O
  O211     1.0000 0.03925  0.17780  0.71462  Biso   1.000  O
  O212     1.0000 0.96075  0.82220  0.21462  Biso   1.000  O
  O213     1.0000 0.46075  0.67780  0.71462  Biso   1.000  O
  O214     1.0000 0.53925  0.32220  0.21462  Biso   1.000  O
  O215     1.0000 0.53925  0.67780  0.71462  Biso   1.000  O
  O216     1.0000 0.46075  0.32220  0.21462  Biso   1.000  O
  O217     1.0000 0.96146  0.15287  0.76120  Biso   1.000  O
  O218     1.0000 0.03854  0.84713  0.26120  Biso   1.000  O
  O219     1.0000 0.03854  0.15287  0.76120  Biso   1.000  O
  O220     1.0000 0.96146  0.84713  0.26120  Biso   1.000  O
  O221     1.0000 0.46146  0.65287  0.76120  Biso   1.000  O
  O222     1.0000 0.53854  0.34713  0.26120  Biso   1.000  O
  O223     1.0000 0.53854  0.65287  0.76120  Biso   1.000  O
  O224     1.0000 0.46146  0.34713  0.26120  Biso   1.000  O
  O225     1.0000 0.70246  0.10965  0.97407  Biso   1.000  O
  O226     1.0000 0.29754  0.89035  0.47407  Biso   1.000  O
  O227     1.0000 0.29754  0.10965  0.97407  Biso   1.000  O
  O228     1.0000 0.70246  0.89035  0.47407  Biso   1.000  O
  O229     1.0000 0.20246  0.60965  0.97407  Biso   1.000  O
  O230     1.0000 0.79754  0.39035  0.47407  Biso   1.000  O
  O231     1.0000 0.79754  0.60965  0.97407  Biso   1.000  O
  O232     1.0000 0.20246  0.39035  0.47407  Biso   1.000  O
  O233     1.0000 0.74780  0.07031  0.97440  Biso   1.000  O
  O234     1.0000 0.25220  0.92969  0.47440  Biso   1.000  O
  O235     1.0000 0.25220  0.07031  0.97440  Biso   1.000  O
  O236     1.0000 0.74780  0.92969  0.47440  Biso   1.000  O
  O237     1.0000 0.24780  0.57031  0.97440  Biso   1.000  O
  O238     1.0000 0.75220  0.42969  0.47440  Biso   1.000  O
  O239     1.0000 0.75220  0.57031  0.97440  Biso   1.000  O
  O240     1.0000 0.24780  0.42969  0.47440  Biso   1.000  O
  C1       1.0000 0.55068  0.00359  0.10890  Biso   1.000  C
  C2       1.0000 0.44932  0.99641  0.60890  Biso   1.000  C
  C3       1.0000 0.44932  0.00359  0.10890  Biso   1.000  C
  C4       1.0000 0.55068  0.99641  0.60890  Biso   1.000  C
  C5       1.0000 0.05068  0.50359  0.10890  Biso   1.000  C
  C6       1.0000 0.94932  0.49641  0.60890  Biso   1.000  C
  C7       1.0000 0.94932  0.50359  0.10890  Biso   1.000  C
  C8       1.0000 0.05068  0.49641  0.60890  Biso   1.000  C
  C9       1.0000 0.58490  0.98918  0.09021  Biso   1.000  C
  C10      1.0000 0.41510  0.01082  0.59021  Biso   1.000  C
  C11      1.0000 0.41510  0.98918  0.09021  Biso   1.000  C
  C12      1.0000 0.58490  0.01082  0.59021  Biso   1.000  C
  C13      1.0000 0.08490  0.48918  0.09021  Biso   1.000  C
  C14      1.0000 0.91510  0.51082  0.59021  Biso   1.000  C
  C15      1.0000 0.91510  0.48918  0.09021  Biso   1.000  C
  C16      1.0000 0.08490  0.51082  0.59021  Biso   1.000  C
  C17      1.0000 0.60091  0.01003  0.06846  Biso   1.000  C
  C18      1.0000 0.39909  0.98997  0.56846  Biso   1.000  C
  C19      1.0000 0.39909  0.01003  0.06846  Biso   1.000  C
  C20      1.0000 0.60091  0.98997  0.56846  Biso   1.000  C
  C21      1.0000 0.10091  0.51003  0.06846  Biso   1.000  C
  C22      1.0000 0.89909  0.48997  0.56846  Biso   1.000  C
  C23      1.0000 0.89909  0.51003  0.06846  Biso   1.000  C
  C24      1.0000 0.10091  0.48997  0.56846  Biso   1.000  C
  H81      1.0000 0.58990  0.03060  0.06240  Biso   1.000  H
  H82      1.0000 0.41010  0.96940  0.56240  Biso   1.000  H
  H83      1.0000 0.41010  0.03060  0.06240  Biso   1.000  H
  H84      1.0000 0.58990  0.96940  0.56240  Biso   1.000  H
  H85      1.0000 0.08990  0.53060  0.06240  Biso   1.000  H
  H86      1.0000 0.91010  0.46940  0.56240  Biso   1.000  H
  H87      1.0000 0.91010  0.53060  0.06240  Biso   1.000  H
  H88      1.0000 0.08990  0.46940  0.56240  Biso   1.000  H
  C25      1.0000 0.63470  0.99894  0.05568  Biso   1.000  C
  C26      1.0000 0.36530  0.00106  0.55568  Biso   1.000  C
  C27      1.0000 0.36530  0.99894  0.05568  Biso   1.000  C
  C28      1.0000 0.63470  0.00106  0.55568  Biso   1.000  C
  C29      1.0000 0.13470  0.49894  0.05568  Biso   1.000  C
  C30      1.0000 0.86530  0.50106  0.55568  Biso   1.000  C
  C31      1.0000 0.86530  0.49894  0.05568  Biso   1.000  C
  C32      1.0000 0.13470  0.50106  0.55568  Biso   1.000  C
  C33      1.0000 0.64920  0.96907  0.06519  Biso   1.000  C
  C34      1.0000 0.35080  0.03093  0.56519  Biso   1.000  C
  C35      1.0000 0.35080  0.96907  0.06519  Biso   1.000  C
  C36      1.0000 0.64920  0.03093  0.56519  Biso   1.000  C
  C37      1.0000 0.14920  0.46907  0.06519  Biso   1.000  C
  C38      1.0000 0.85080  0.53093  0.56519  Biso   1.000  C
  C39      1.0000 0.85080  0.46907  0.06519  Biso   1.000  C
  C40      1.0000 0.14920  0.53093  0.56519  Biso   1.000  C
  H89      1.0000 0.67130  0.96180  0.05620  Biso   1.000  H
  H90      1.0000 0.32870  0.03820  0.55620  Biso   1.000  H
  H91      1.0000 0.32870  0.96180  0.05620  Biso   1.000  H
  H92      1.0000 0.67130  0.03820  0.55620  Biso   1.000  H
  H93      1.0000 0.17130  0.46180  0.05620  Biso   1.000  H
  H94      1.0000 0.82870  0.53820  0.55620  Biso   1.000  H
  H95      1.0000 0.82870  0.46180  0.05620  Biso   1.000  H
  H96      1.0000 0.17130  0.53820  0.55620  Biso   1.000  H
  C41      1.0000 0.63360  0.94822  0.08760  Biso   1.000  C
  C42      1.0000 0.36640  0.05178  0.58760  Biso   1.000  C
  C43      1.0000 0.36640  0.94822  0.08760  Biso   1.000  C
  C44      1.0000 0.63360  0.05178  0.58760  Biso   1.000  C
  C45      1.0000 0.13360  0.44822  0.08760  Biso   1.000  C
  C46      1.0000 0.86640  0.55178  0.58760  Biso   1.000  C
  C47      1.0000 0.86640  0.44822  0.08760  Biso   1.000  C
  C48      1.0000 0.13360  0.55178  0.58760  Biso   1.000  C
  C49      1.0000 0.60000  0.95967  0.10056  Biso   1.000  C
  C50      1.0000 0.40000  0.04033  0.60056  Biso   1.000  C
  C51      1.0000 0.40000  0.95967  0.10056  Biso   1.000  C
  C52      1.0000 0.60000  0.04033  0.60056  Biso   1.000  C
  C53      1.0000 0.10000  0.45967  0.10056  Biso   1.000  C
  C54      1.0000 0.90000  0.54033  0.60056  Biso   1.000  C
  C55      1.0000 0.90000  0.45967  0.10056  Biso   1.000  C
  C56      1.0000 0.10000  0.54033  0.60056  Biso   1.000  C
  H97      1.0000 0.58840  0.94700  0.11600  Biso   1.000  H
  H98      1.0000 0.41160  0.05300  0.61600  Biso   1.000  H
  H99      1.0000 0.41160  0.94700  0.11600  Biso   1.000  H
  H100     1.0000 0.58840  0.05300  0.61600  Biso   1.000  H
  H101     1.0000 0.08840  0.44700  0.11600  Biso   1.000  H
  H102     1.0000 0.91160  0.55300  0.61600  Biso   1.000  H
  H103     1.0000 0.91160  0.44700  0.11600  Biso   1.000  H
  H104     1.0000 0.08840  0.55300  0.61600  Biso   1.000  H
  C57      1.0000 0.65530  0.02173  0.03237  Biso   1.000  C
  C58      1.0000 0.34470  0.97827  0.53237  Biso   1.000  C
  C59      1.0000 0.34470  0.02173  0.03237  Biso   1.000  C
  C60      1.0000 0.65530  0.97827  0.53237  Biso   1.000  C
  C61      1.0000 0.15530  0.52173  0.03237  Biso   1.000  C
  C62      1.0000 0.84470  0.47827  0.53237  Biso   1.000  C
  C63      1.0000 0.84470  0.52173  0.03237  Biso   1.000  C
  C64      1.0000 0.15530  0.47827  0.53237  Biso   1.000  C
  C65      1.0000 0.65210  0.91660  0.09850  Biso   1.000  C
  C66      1.0000 0.34790  0.08340  0.59850  Biso   1.000  C
  C67      1.0000 0.34790  0.91660  0.09850  Biso   1.000  C
  C68      1.0000 0.65210  0.08340  0.59850  Biso   1.000  C
  C69      1.0000 0.15210  0.41660  0.09850  Biso   1.000  C
  C70      1.0000 0.84790  0.58340  0.59850  Biso   1.000  C
  C71      1.0000 0.84790  0.41660  0.09850  Biso   1.000  C
  C72      1.0000 0.15210  0.58340  0.59850  Biso   1.000  C
  C73      1.0000 0.67280  0.89620  0.07810  Biso   1.000  C
  C74      1.0000 0.32720  0.10380  0.57810  Biso   1.000  C
  C75      1.0000 0.32720  0.89620  0.07810  Biso   1.000  C
  C76      1.0000 0.67280  0.10380  0.57810  Biso   1.000  C
  C77      1.0000 0.17280  0.39620  0.07810  Biso   1.000  C
  C78      1.0000 0.82720  0.60380  0.57810  Biso   1.000  C
  C79      1.0000 0.82720  0.39620  0.07810  Biso   1.000  C
  C80      1.0000 0.17280  0.60380  0.57810  Biso   1.000  C
  H105     1.0000 0.67120  0.90160  0.05720  Biso   1.000  H
  H106     1.0000 0.32880  0.09840  0.55720  Biso   1.000  H
  H107     1.0000 0.32880  0.90160  0.05720  Biso   1.000  H
  H108     1.0000 0.67120  0.09840  0.55720  Biso   1.000  H
  H109     1.0000 0.17120  0.40160  0.05720  Biso   1.000  H
  H110     1.0000 0.82880  0.59840  0.55720  Biso   1.000  H
  H111     1.0000 0.82880  0.40160  0.05720  Biso   1.000  H
  H112     1.0000 0.17120  0.59840  0.55720  Biso   1.000  H
  C81      1.0000 0.69630  0.86750  0.08640  Biso   1.000  C
  C82      1.0000 0.30370  0.13250  0.58640  Biso   1.000  C
  C83      1.0000 0.30370  0.86750  0.08640  Biso   1.000  C
  C84      1.0000 0.69630  0.13250  0.58640  Biso   1.000  C
  C85      1.0000 0.19630  0.36750  0.08640  Biso   1.000  C
  C86      1.0000 0.80370  0.63250  0.58640  Biso   1.000  C
  C87      1.0000 0.80370  0.36750  0.08640  Biso   1.000  C
  C88      1.0000 0.19630  0.63250  0.58640  Biso   1.000  C
  H113     1.0000 0.71150  0.85610  0.07240  Biso   1.000  H
  H114     1.0000 0.28850  0.14390  0.57240  Biso   1.000  H
  H115     1.0000 0.28850  0.85610  0.07240  Biso   1.000  H
  H116     1.0000 0.71150  0.14390  0.57240  Biso   1.000  H
  H117     1.0000 0.21150  0.35610  0.07240  Biso   1.000  H
  H118     1.0000 0.78850  0.64390  0.57240  Biso   1.000  H
  H119     1.0000 0.78850  0.35610  0.07240  Biso   1.000  H
  H120     1.0000 0.21150  0.64390  0.57240  Biso   1.000  H
  C89      1.0000 0.69370  0.85800  0.11920  Biso   1.000  C
  C90      1.0000 0.30630  0.14200  0.61920  Biso   1.000  C
  C91      1.0000 0.30630  0.85800  0.11920  Biso   1.000  C
  C92      1.0000 0.69370  0.14200  0.61920  Biso   1.000  C
  C93      1.0000 0.19370  0.35800  0.11920  Biso   1.000  C
  C94      1.0000 0.80630  0.64200  0.61920  Biso   1.000  C
  C95      1.0000 0.80630  0.35800  0.11920  Biso   1.000  C
  C96      1.0000 0.19370  0.64200  0.61920  Biso   1.000  C
  C97      1.0000 0.66970  0.87800  0.13580  Biso   1.000  C
  C98      1.0000 0.33030  0.12200  0.63580  Biso   1.000  C
  C99      1.0000 0.33030  0.87800  0.13580  Biso   1.000  C
  C100     1.0000 0.66970  0.12200  0.63580  Biso   1.000  C
  C101     1.0000 0.16970  0.37800  0.13580  Biso   1.000  C
  C102     1.0000 0.83030  0.62200  0.63580  Biso   1.000  C
  C103     1.0000 0.83030  0.37800  0.13580  Biso   1.000  C
  C104     1.0000 0.16970  0.62200  0.63580  Biso   1.000  C
  H121     1.0000 0.66440  0.86960  0.15540  Biso   1.000  H
  H122     1.0000 0.33560  0.13040  0.65540  Biso   1.000  H
  H123     1.0000 0.33560  0.86960  0.15540  Biso   1.000  H
  H124     1.0000 0.66440  0.13040  0.65540  Biso   1.000  H
  H125     1.0000 0.16440  0.36960  0.15540  Biso   1.000  H
  H126     1.0000 0.83560  0.63040  0.65540  Biso   1.000  H
  H127     1.0000 0.83560  0.36960  0.15540  Biso   1.000  H
  H128     1.0000 0.16440  0.63040  0.65540  Biso   1.000  H
  C105     1.0000 0.65150  0.90880  0.12840  Biso   1.000  C
  C106     1.0000 0.34850  0.09120  0.62840  Biso   1.000  C
  C107     1.0000 0.34850  0.90880  0.12840  Biso   1.000  C
  C108     1.0000 0.65150  0.09120  0.62840  Biso   1.000  C
  C109     1.0000 0.15150  0.40880  0.12840  Biso   1.000  C
  C110     1.0000 0.84850  0.59120  0.62840  Biso   1.000  C
  C111     1.0000 0.84850  0.40880  0.12840  Biso   1.000  C
  C112     1.0000 0.15150  0.59120  0.62840  Biso   1.000  C
  H129     1.0000 0.64010  0.92260  0.14310  Biso   1.000  H
  H130     1.0000 0.35990  0.07740  0.64310  Biso   1.000  H
  H131     1.0000 0.35990  0.92260  0.14310  Biso   1.000  H
  H132     1.0000 0.64010  0.07740  0.64310  Biso   1.000  H
  H133     1.0000 0.14010  0.42260  0.14310  Biso   1.000  H
  H134     1.0000 0.85990  0.57740  0.64310  Biso   1.000  H
  H135     1.0000 0.85990  0.42260  0.14310  Biso   1.000  H
  H136     1.0000 0.14010  0.57740  0.64310  Biso   1.000  H
  C113     1.0000 0.71580  0.82940  0.12930  Biso   1.000  C
  C114     1.0000 0.28420  0.17060  0.62930  Biso   1.000  C
  C115     1.0000 0.28420  0.82940  0.12930  Biso   1.000  C
  C116     1.0000 0.71580  0.17060  0.62930  Biso   1.000  C
  C117     1.0000 0.21580  0.32940  0.12930  Biso   1.000  C
  C118     1.0000 0.78420  0.67060  0.62930  Biso   1.000  C
  C119     1.0000 0.78420  0.32940  0.12930  Biso   1.000  C
  C120     1.0000 0.21580  0.67060  0.62930  Biso   1.000  C
  C121     1.0000 0.74690  0.82160  0.11730  Biso   1.000  C
  C122     1.0000 0.25310  0.17840  0.61730  Biso   1.000  C
  C123     1.0000 0.25310  0.82160  0.11730  Biso   1.000  C
  C124     1.0000 0.74690  0.17840  0.61730  Biso   1.000  C
  C125     1.0000 0.24690  0.32160  0.11730  Biso   1.000  C
  C126     1.0000 0.75310  0.67840  0.61730  Biso   1.000  C
  C127     1.0000 0.75310  0.32160  0.11730  Biso   1.000  C
  C128     1.0000 0.24690  0.67840  0.61730  Biso   1.000  C
  H137     1.0000 0.75540  0.83530  0.10120  Biso   1.000  H
  H138     1.0000 0.24460  0.16470  0.60120  Biso   1.000  H
  H139     1.0000 0.24460  0.83530  0.10120  Biso   1.000  H
  H140     1.0000 0.75540  0.16470  0.60120  Biso   1.000  H
  H141     1.0000 0.25540  0.33530  0.10120  Biso   1.000  H
  H142     1.0000 0.74460  0.66470  0.60120  Biso   1.000  H
  H143     1.0000 0.74460  0.33530  0.10120  Biso   1.000  H
  H144     1.0000 0.25540  0.66470  0.60120  Biso   1.000  H
  C129     1.0000 0.75780  0.77313  0.15198  Biso   1.000  C
  C130     1.0000 0.24220  0.22687  0.65198  Biso   1.000  C
  C131     1.0000 0.24220  0.77313  0.15198  Biso   1.000  C
  C132     1.0000 0.75780  0.22687  0.65198  Biso   1.000  C
  C133     1.0000 0.25780  0.27313  0.15198  Biso   1.000  C
  C134     1.0000 0.74220  0.72687  0.65198  Biso   1.000  C
  C135     1.0000 0.74220  0.27313  0.15198  Biso   1.000  C
  C136     1.0000 0.25780  0.72687  0.65198  Biso   1.000  C
  C137     1.0000 0.72250  0.78180  0.16562  Biso   1.000  C
  C138     1.0000 0.27750  0.21820  0.66562  Biso   1.000  C
  C139     1.0000 0.27750  0.78180  0.16562  Biso   1.000  C
  C140     1.0000 0.72250  0.21820  0.66562  Biso   1.000  C
  C141     1.0000 0.22250  0.28180  0.16562  Biso   1.000  C
  C142     1.0000 0.77750  0.71820  0.66562  Biso   1.000  C
  C143     1.0000 0.77750  0.28180  0.16562  Biso   1.000  C
  C144     1.0000 0.22250  0.71820  0.66562  Biso   1.000  C
  H145     1.0000 0.71290  0.76920  0.18200  Biso   1.000  H
  H146     1.0000 0.28710  0.23080  0.68200  Biso   1.000  H
  H147     1.0000 0.28710  0.76920  0.18200  Biso   1.000  H
  H148     1.0000 0.71290  0.23080  0.68200  Biso   1.000  H
  H149     1.0000 0.21290  0.26920  0.18200  Biso   1.000  H
  H150     1.0000 0.78710  0.73080  0.68200  Biso   1.000  H
  H151     1.0000 0.78710  0.26920  0.18200  Biso   1.000  H
  H152     1.0000 0.21290  0.73080  0.68200  Biso   1.000  H
  C145     1.0000 0.70360  0.80900  0.15350  Biso   1.000  C
  C146     1.0000 0.29640  0.19100  0.65350  Biso   1.000  C
  C147     1.0000 0.29640  0.80900  0.15350  Biso   1.000  C
  C148     1.0000 0.70360  0.19100  0.65350  Biso   1.000  C
  C149     1.0000 0.20360  0.30900  0.15350  Biso   1.000  C
  C150     1.0000 0.79640  0.69100  0.65350  Biso   1.000  C
  C151     1.0000 0.79640  0.30900  0.15350  Biso   1.000  C
  C152     1.0000 0.20360  0.69100  0.65350  Biso   1.000  C
  H153     1.0000 0.68080  0.81430  0.16210  Biso   1.000  H
  H154     1.0000 0.31920  0.18570  0.66210  Biso   1.000  H
  H155     1.0000 0.31920  0.81430  0.16210  Biso   1.000  H
  H156     1.0000 0.68080  0.18570  0.66210  Biso   1.000  H
  H157     1.0000 0.18080  0.31430  0.16210  Biso   1.000  H
  H158     1.0000 0.81920  0.68570  0.66210  Biso   1.000  H
  H159     1.0000 0.81920  0.31430  0.16210  Biso   1.000  H
  H160     1.0000 0.18080  0.68570  0.66210  Biso   1.000  H
  C153     1.0000 0.77950  0.74509  0.16326  Biso   1.000  C
  C154     1.0000 0.22050  0.25491  0.66326  Biso   1.000  C
  C155     1.0000 0.22050  0.74509  0.16326  Biso   1.000  C
  C156     1.0000 0.77950  0.25491  0.66326  Biso   1.000  C
  C157     1.0000 0.27950  0.24509  0.16326  Biso   1.000  C
  C158     1.0000 0.72050  0.75491  0.66326  Biso   1.000  C
  C159     1.0000 0.72050  0.24509  0.16326  Biso   1.000  C
  C160     1.0000 0.27950  0.75491  0.66326  Biso   1.000  C
  C161     1.0000 0.71650  0.08555  0.04932  Biso   1.000  C
  C162     1.0000 0.28350  0.91445  0.54932  Biso   1.000  C
  C163     1.0000 0.28350  0.08555  0.04932  Biso   1.000  C
  C164     1.0000 0.71650  0.91445  0.54932  Biso   1.000  C
  C165     1.0000 0.21650  0.58555  0.04932  Biso   1.000  C
  C166     1.0000 0.78350  0.41445  0.54932  Biso   1.000  C
  C167     1.0000 0.78350  0.58555  0.04932  Biso   1.000  C
  C168     1.0000 0.21650  0.41445  0.54932  Biso   1.000  C
  C169     1.0000 0.73150  0.09403  0.08024  Biso   1.000  C
  C170     1.0000 0.26850  0.90597  0.58024  Biso   1.000  C
  C171     1.0000 0.26850  0.09403  0.08024  Biso   1.000  C
  C172     1.0000 0.73150  0.90597  0.58024  Biso   1.000  C
  C173     1.0000 0.23150  0.59403  0.08024  Biso   1.000  C
  C174     1.0000 0.76850  0.40597  0.58024  Biso   1.000  C
  C175     1.0000 0.76850  0.59403  0.08024  Biso   1.000  C
  C176     1.0000 0.23150  0.40597  0.58024  Biso   1.000  C
  C177     1.0000 0.71480  0.11996  0.09764  Biso   1.000  C
  C178     1.0000 0.28520  0.88004  0.59764  Biso   1.000  C
  C179     1.0000 0.28520  0.11996  0.09764  Biso   1.000  C
  C180     1.0000 0.71480  0.88004  0.59764  Biso   1.000  C
  C181     1.0000 0.21480  0.61996  0.09764  Biso   1.000  C
  C182     1.0000 0.78520  0.38004  0.59764  Biso   1.000  C
  C183     1.0000 0.78520  0.61996  0.09764  Biso   1.000  C
  C184     1.0000 0.21480  0.38004  0.59764  Biso   1.000  C
  H161     1.0000 0.69530  0.13260  0.08930  Biso   1.000  H
  H162     1.0000 0.30470  0.86740  0.58930  Biso   1.000  H
  H163     1.0000 0.30470  0.13260  0.08930  Biso   1.000  H
  H164     1.0000 0.69530  0.86740  0.58930  Biso   1.000  H
  H165     1.0000 0.19530  0.63260  0.08930  Biso   1.000  H
  H166     1.0000 0.80470  0.36740  0.58930  Biso   1.000  H
  H167     1.0000 0.80470  0.63260  0.08930  Biso   1.000  H
  H168     1.0000 0.19530  0.36740  0.58930  Biso   1.000  H
  C185     1.0000 0.72730  0.12707  0.12764  Biso   1.000  C
  C186     1.0000 0.27270  0.87293  0.62764  Biso   1.000  C
  C187     1.0000 0.27270  0.12707  0.12764  Biso   1.000  C
  C188     1.0000 0.72730  0.87293  0.62764  Biso   1.000  C
  C189     1.0000 0.22730  0.62707  0.12764  Biso   1.000  C
  C190     1.0000 0.77270  0.37293  0.62764  Biso   1.000  C
  C191     1.0000 0.77270  0.62707  0.12764  Biso   1.000  C
  C192     1.0000 0.22730  0.37293  0.62764  Biso   1.000  C
  C193     1.0000 0.75420  0.10759  0.14079  Biso   1.000  C
  C194     1.0000 0.24580  0.89241  0.64079  Biso   1.000  C
  C195     1.0000 0.24580  0.10759  0.14079  Biso   1.000  C
  C196     1.0000 0.75420  0.89241  0.64079  Biso   1.000  C
  C197     1.0000 0.25420  0.60759  0.14079  Biso   1.000  C
  C198     1.0000 0.74580  0.39241  0.64079  Biso   1.000  C
  C199     1.0000 0.74580  0.60759  0.14079  Biso   1.000  C
  C200     1.0000 0.25420  0.39241  0.64079  Biso   1.000  C
  H169     1.0000 0.76170  0.11180  0.16090  Biso   1.000  H
  H170     1.0000 0.23830  0.88820  0.66090  Biso   1.000  H
  H171     1.0000 0.23830  0.11180  0.16090  Biso   1.000  H
  H172     1.0000 0.76170  0.88820  0.66090  Biso   1.000  H
  H173     1.0000 0.26170  0.61180  0.16090  Biso   1.000  H
  H174     1.0000 0.73830  0.38820  0.66090  Biso   1.000  H
  H175     1.0000 0.73830  0.61180  0.16090  Biso   1.000  H
  H176     1.0000 0.26170  0.38820  0.66090  Biso   1.000  H
  C201     1.0000 0.77090  0.08047  0.12325  Biso   1.000  C
  C202     1.0000 0.22910  0.91953  0.62325  Biso   1.000  C
  C203     1.0000 0.22910  0.08047  0.12325  Biso   1.000  C
  C204     1.0000 0.77090  0.91953  0.62325  Biso   1.000  C
  C205     1.0000 0.27090  0.58047  0.12325  Biso   1.000  C
  C206     1.0000 0.72910  0.41953  0.62325  Biso   1.000  C
  C207     1.0000 0.72910  0.58047  0.12325  Biso   1.000  C
  C208     1.0000 0.27090  0.41953  0.62325  Biso   1.000  C
  C209     1.0000 0.75790  0.07465  0.09358  Biso   1.000  C
  C210     1.0000 0.24210  0.92535  0.59358  Biso   1.000  C
  C211     1.0000 0.24210  0.07465  0.09358  Biso   1.000  C
  C212     1.0000 0.75790  0.92535  0.59358  Biso   1.000  C
  C213     1.0000 0.25790  0.57465  0.09358  Biso   1.000  C
  C214     1.0000 0.74210  0.42535  0.59358  Biso   1.000  C
  C215     1.0000 0.74210  0.57465  0.09358  Biso   1.000  C
  C216     1.0000 0.25790  0.42535  0.59358  Biso   1.000  C
  H177     1.0000 0.76790  0.05650  0.08240  Biso   1.000  H
  H178     1.0000 0.23210  0.94350  0.58240  Biso   1.000  H
  H179     1.0000 0.23210  0.05650  0.08240  Biso   1.000  H
  H180     1.0000 0.76790  0.94350  0.58240  Biso   1.000  H
  H181     1.0000 0.26790  0.55650  0.08240  Biso   1.000  H
  H182     1.0000 0.73210  0.44350  0.58240  Biso   1.000  H
  H183     1.0000 0.73210  0.55650  0.08240  Biso   1.000  H
  H184     1.0000 0.26790  0.44350  0.58240  Biso   1.000  H
  C217     1.0000 0.70860  0.15500  0.14707  Biso   1.000  C
  C218     1.0000 0.29140  0.84500  0.64707  Biso   1.000  C
  C219     1.0000 0.29140  0.15500  0.14707  Biso   1.000  C
  C220     1.0000 0.70860  0.84500  0.64707  Biso   1.000  C
  C221     1.0000 0.20860  0.65500  0.14707  Biso   1.000  C
  C222     1.0000 0.79140  0.34500  0.64707  Biso   1.000  C
  C223     1.0000 0.79140  0.65500  0.14707  Biso   1.000  C
  C224     1.0000 0.20860  0.34500  0.64707  Biso   1.000  C
  C225     1.0000 0.79810  0.05710  0.13760  Biso   1.000  C
  C226     1.0000 0.20190  0.94290  0.63760  Biso   1.000  C
  C227     1.0000 0.20190  0.05710  0.13760  Biso   1.000  C
  C228     1.0000 0.79810  0.94290  0.63760  Biso   1.000  C
  C229     1.0000 0.29810  0.55710  0.13760  Biso   1.000  C
  C230     1.0000 0.70190  0.44290  0.63760  Biso   1.000  C
  C231     1.0000 0.70190  0.55710  0.13760  Biso   1.000  C
  C232     1.0000 0.29810  0.44290  0.63760  Biso   1.000  C
  C233     1.0000 0.80010  0.04850  0.16570  Biso   1.000  C
  C234     1.0000 0.19990  0.95150  0.66570  Biso   1.000  C
  C235     1.0000 0.19990  0.04850  0.16570  Biso   1.000  C
  C236     1.0000 0.80010  0.95150  0.66570  Biso   1.000  C
  C237     1.0000 0.30010  0.54850  0.16570  Biso   1.000  C
  C238     1.0000 0.69990  0.45150  0.66570  Biso   1.000  C
  C239     1.0000 0.69990  0.54850  0.16570  Biso   1.000  C
  C240     1.0000 0.30010  0.45150  0.66570  Biso   1.000  C
  H185     1.0000 0.78250  0.05780  0.17900  Biso   1.000  H
  H186     1.0000 0.21750  0.94220  0.67900  Biso   1.000  H
  H187     1.0000 0.21750  0.05780  0.17900  Biso   1.000  H
  H188     1.0000 0.78250  0.94220  0.67900  Biso   1.000  H
  H189     1.0000 0.28250  0.55780  0.17900  Biso   1.000  H
  H190     1.0000 0.71750  0.44220  0.67900  Biso   1.000  H
  H191     1.0000 0.71750  0.55780  0.17900  Biso   1.000  H
  H192     1.0000 0.28250  0.44220  0.67900  Biso   1.000  H
  C241     1.0000 0.82720  0.02570  0.17920  Biso   1.000  C
  C242     1.0000 0.17280  0.97430  0.67920  Biso   1.000  C
  C243     1.0000 0.17280  0.02570  0.17920  Biso   1.000  C
  C244     1.0000 0.82720  0.97430  0.67920  Biso   1.000  C
  C245     1.0000 0.32720  0.52570  0.17920  Biso   1.000  C
  C246     1.0000 0.67280  0.47430  0.67920  Biso   1.000  C
  C247     1.0000 0.67280  0.52570  0.17920  Biso   1.000  C
  C248     1.0000 0.32720  0.47430  0.67920  Biso   1.000  C
  H193     1.0000 0.82780  0.02280  0.20040  Biso   1.000  H
  H194     1.0000 0.17220  0.97720  0.70040  Biso   1.000  H
  H195     1.0000 0.17220  0.02280  0.20040  Biso   1.000  H
  H196     1.0000 0.82780  0.97720  0.70040  Biso   1.000  H
  H197     1.0000 0.32780  0.52280  0.20040  Biso   1.000  H
  H198     1.0000 0.67220  0.47720  0.70040  Biso   1.000  H
  H199     1.0000 0.67220  0.52280  0.20040  Biso   1.000  H
  H200     1.0000 0.32780  0.47720  0.70040  Biso   1.000  H
  C249     1.0000 0.85070  0.00900  0.16180  Biso   1.000  C
  C250     1.0000 0.14930  0.99100  0.66180  Biso   1.000  C
  C251     1.0000 0.14930  0.00900  0.16180  Biso   1.000  C
  C252     1.0000 0.85070  0.99100  0.66180  Biso   1.000  C
  C253     1.0000 0.35070  0.50900  0.16180  Biso   1.000  C
  C254     1.0000 0.64930  0.49100  0.66180  Biso   1.000  C
  C255     1.0000 0.64930  0.50900  0.16180  Biso   1.000  C
  C256     1.0000 0.35070  0.49100  0.66180  Biso   1.000  C
  C257     1.0000 0.84940  0.01930  0.13440  Biso   1.000  C
  C258     1.0000 0.15060  0.98070  0.63440  Biso   1.000  C
  C259     1.0000 0.15060  0.01930  0.13440  Biso   1.000  C
  C260     1.0000 0.84940  0.98070  0.63440  Biso   1.000  C
  C261     1.0000 0.34940  0.51930  0.13440  Biso   1.000  C
  C262     1.0000 0.65060  0.48070  0.63440  Biso   1.000  C
  C263     1.0000 0.65060  0.51930  0.13440  Biso   1.000  C
  C264     1.0000 0.34940  0.48070  0.63440  Biso   1.000  C
  H201     1.0000 0.86740  0.01030  0.12140  Biso   1.000  H
  H202     1.0000 0.13260  0.98970  0.62140  Biso   1.000  H
  H203     1.0000 0.13260  0.01030  0.12140  Biso   1.000  H
  H204     1.0000 0.86740  0.98970  0.62140  Biso   1.000  H
  H205     1.0000 0.36740  0.51030  0.12140  Biso   1.000  H
  H206     1.0000 0.63260  0.48970  0.62140  Biso   1.000  H
  H207     1.0000 0.63260  0.51030  0.12140  Biso   1.000  H
  H208     1.0000 0.36740  0.48970  0.62140  Biso   1.000  H
  C265     1.0000 0.82390  0.04290  0.12030  Biso   1.000  C
  C266     1.0000 0.17610  0.95710  0.62030  Biso   1.000  C
  C267     1.0000 0.17610  0.04290  0.12030  Biso   1.000  C
  C268     1.0000 0.82390  0.95710  0.62030  Biso   1.000  C
  C269     1.0000 0.32390  0.54290  0.12030  Biso   1.000  C
  C270     1.0000 0.67610  0.45710  0.62030  Biso   1.000  C
  C271     1.0000 0.67610  0.54290  0.12030  Biso   1.000  C
  C272     1.0000 0.32390  0.45710  0.62030  Biso   1.000  C
  H209     1.0000 0.82550  0.04800  0.09940  Biso   1.000  H
  H210     1.0000 0.17450  0.95200  0.59940  Biso   1.000  H
  H211     1.0000 0.17450  0.04800  0.09940  Biso   1.000  H
  H212     1.0000 0.82550  0.95200  0.59940  Biso   1.000  H
  H213     1.0000 0.32550  0.54800  0.09940  Biso   1.000  H
  H214     1.0000 0.67450  0.45200  0.59940  Biso   1.000  H
  H215     1.0000 0.67450  0.54800  0.09940  Biso   1.000  H
  H216     1.0000 0.32550  0.45200  0.59940  Biso   1.000  H
  C273     1.0000 0.87550  0.98430  0.17350  Biso   1.000  C
  C274     1.0000 0.12450  0.01570  0.67350  Biso   1.000  C
  C275     1.0000 0.12450  0.98430  0.17350  Biso   1.000  C
  C276     1.0000 0.87550  0.01570  0.67350  Biso   1.000  C
  C277     1.0000 0.37550  0.48430  0.17350  Biso   1.000  C
  C278     1.0000 0.62450  0.51570  0.67350  Biso   1.000  C
  C279     1.0000 0.62450  0.48430  0.17350  Biso   1.000  C
  C280     1.0000 0.37550  0.51570  0.67350  Biso   1.000  C
  C281     1.0000 0.88460  0.98610  0.20410  Biso   1.000  C
  C282     1.0000 0.11540  0.01390  0.70410  Biso   1.000  C
  C283     1.0000 0.11540  0.98610  0.20410  Biso   1.000  C
  C284     1.0000 0.88460  0.01390  0.70410  Biso   1.000  C
  C285     1.0000 0.38460  0.48610  0.20410  Biso   1.000  C
  C286     1.0000 0.61540  0.51390  0.70410  Biso   1.000  C
  C287     1.0000 0.61540  0.48610  0.20410  Biso   1.000  C
  C288     1.0000 0.38460  0.51390  0.70410  Biso   1.000  C
  H217     1.0000 0.87430  0.00280  0.21680  Biso   1.000  H
  H218     1.0000 0.12570  0.99720  0.71680  Biso   1.000  H
  H219     1.0000 0.12570  0.00280  0.21680  Biso   1.000  H
  H220     1.0000 0.87430  0.99720  0.71680  Biso   1.000  H
  H221     1.0000 0.37430  0.50280  0.21680  Biso   1.000  H
  H222     1.0000 0.62570  0.49720  0.71680  Biso   1.000  H
  H223     1.0000 0.62570  0.50280  0.21680  Biso   1.000  H
  H224     1.0000 0.37430  0.49720  0.71680  Biso   1.000  H
  C289     1.0000 0.91130  0.96060  0.21660  Biso   1.000  C
  C290     1.0000 0.08870  0.03940  0.71660  Biso   1.000  C
  C291     1.0000 0.08870  0.96060  0.21660  Biso   1.000  C
  C292     1.0000 0.91130  0.03940  0.71660  Biso   1.000  C
  C293     1.0000 0.41130  0.46060  0.21660  Biso   1.000  C
  C294     1.0000 0.58870  0.53940  0.71660  Biso   1.000  C
  C295     1.0000 0.58870  0.46060  0.21660  Biso   1.000  C
  C296     1.0000 0.41130  0.53940  0.71660  Biso   1.000  C
  H225     1.0000 0.91940  0.96210  0.23690  Biso   1.000  H
  H226     1.0000 0.08060  0.03790  0.73690  Biso   1.000  H
  H227     1.0000 0.08060  0.96210  0.23690  Biso   1.000  H
  H228     1.0000 0.91940  0.03790  0.73690  Biso   1.000  H
  H229     1.0000 0.41940  0.46210  0.23690  Biso   1.000  H
  H230     1.0000 0.58060  0.53790  0.73690  Biso   1.000  H
  H231     1.0000 0.58060  0.46210  0.23690  Biso   1.000  H
  H232     1.0000 0.41940  0.53790  0.73690  Biso   1.000  H
  C297     1.0000 0.92410  0.93400  0.19732  Biso   1.000  C
  C298     1.0000 0.07590  0.06600  0.69732  Biso   1.000  C
  C299     1.0000 0.07590  0.93400  0.19732  Biso   1.000  C
  C300     1.0000 0.92410  0.06600  0.69732  Biso   1.000  C
  C301     1.0000 0.42410  0.43400  0.19732  Biso   1.000  C
  C302     1.0000 0.57590  0.56600  0.69732  Biso   1.000  C
  C303     1.0000 0.57590  0.43400  0.19732  Biso   1.000  C
  C304     1.0000 0.42410  0.56600  0.69732  Biso   1.000  C
  C305     1.0000 0.91290  0.93370  0.16680  Biso   1.000  C
  C306     1.0000 0.08710  0.06630  0.66680  Biso   1.000  C
  C307     1.0000 0.08710  0.93370  0.16680  Biso   1.000  C
  C308     1.0000 0.91290  0.06630  0.66680  Biso   1.000  C
  C309     1.0000 0.41290  0.43370  0.16680  Biso   1.000  C
  C310     1.0000 0.58710  0.56630  0.66680  Biso   1.000  C
  C311     1.0000 0.58710  0.43370  0.16680  Biso   1.000  C
  C312     1.0000 0.41290  0.56630  0.66680  Biso   1.000  C
  H233     1.0000 0.92240  0.91710  0.15350  Biso   1.000  H
  H234     1.0000 0.07760  0.08290  0.65350  Biso   1.000  H
  H235     1.0000 0.07760  0.91710  0.15350  Biso   1.000  H
  H236     1.0000 0.92240  0.08290  0.65350  Biso   1.000  H
  H237     1.0000 0.42240  0.41710  0.15350  Biso   1.000  H
  H238     1.0000 0.57760  0.58290  0.65350  Biso   1.000  H
  H239     1.0000 0.57760  0.41710  0.15350  Biso   1.000  H
  H240     1.0000 0.42240  0.58290  0.65350  Biso   1.000  H
  C313     1.0000 0.88760  0.95770  0.15570  Biso   1.000  C
  C314     1.0000 0.11240  0.04230  0.65570  Biso   1.000  C
  C315     1.0000 0.11240  0.95770  0.15570  Biso   1.000  C
  C316     1.0000 0.88760  0.04230  0.65570  Biso   1.000  C
  C317     1.0000 0.38760  0.45770  0.15570  Biso   1.000  C
  C318     1.0000 0.61240  0.54230  0.65570  Biso   1.000  C
  C319     1.0000 0.61240  0.45770  0.15570  Biso   1.000  C
  C320     1.0000 0.38760  0.54230  0.65570  Biso   1.000  C
  H241     1.0000 0.87870  0.95560  0.13560  Biso   1.000  H
  H242     1.0000 0.12130  0.04440  0.63560  Biso   1.000  H
  H243     1.0000 0.12130  0.95560  0.13560  Biso   1.000  H
  H244     1.0000 0.87870  0.04440  0.63560  Biso   1.000  H
  H245     1.0000 0.37870  0.45560  0.13560  Biso   1.000  H
  H246     1.0000 0.62130  0.54440  0.63560  Biso   1.000  H
  H247     1.0000 0.62130  0.45560  0.13560  Biso   1.000  H
  H248     1.0000 0.37870  0.54440  0.63560  Biso   1.000  H
  C321     1.0000 0.95190  0.90890  0.20720  Biso   1.000  C
  C322     1.0000 0.04810  0.09110  0.70720  Biso   1.000  C
  C323     1.0000 0.04810  0.90890  0.20720  Biso   1.000  C
  C324     1.0000 0.95190  0.09110  0.70720  Biso   1.000  C
  C325     1.0000 0.45190  0.40890  0.20720  Biso   1.000  C
  C326     1.0000 0.54810  0.59110  0.70720  Biso   1.000  C
  C327     1.0000 0.54810  0.40890  0.20720  Biso   1.000  C
  C328     1.0000 0.45190  0.59110  0.70720  Biso   1.000  C
  C329     1.0000 0.54732  0.05506  0.17356  Biso   1.000  C
  C330     1.0000 0.45268  0.94494  0.67356  Biso   1.000  C
  C331     1.0000 0.45268  0.05506  0.17356  Biso   1.000  C
  C332     1.0000 0.54732  0.94494  0.67356  Biso   1.000  C
  C333     1.0000 0.04732  0.55506  0.17356  Biso   1.000  C
  C334     1.0000 0.95268  0.44494  0.67356  Biso   1.000  C
  C335     1.0000 0.95268  0.55506  0.17356  Biso   1.000  C
  C336     1.0000 0.04732  0.44494  0.67356  Biso   1.000  C
  C337     1.0000 0.57398  0.07090  0.19684  Biso   1.000  C
  C338     1.0000 0.42602  0.92910  0.69684  Biso   1.000  C
  C339     1.0000 0.42602  0.07090  0.19684  Biso   1.000  C
  C340     1.0000 0.57398  0.92910  0.69684  Biso   1.000  C
  C341     1.0000 0.07398  0.57090  0.19684  Biso   1.000  C
  C342     1.0000 0.92602  0.42910  0.69684  Biso   1.000  C
  C343     1.0000 0.92602  0.57090  0.19684  Biso   1.000  C
  C344     1.0000 0.07398  0.42910  0.69684  Biso   1.000  C
  C345     1.0000 0.58280  0.05625  0.22315  Biso   1.000  C
  C346     1.0000 0.41720  0.94375  0.72315  Biso   1.000  C
  C347     1.0000 0.41720  0.05625  0.22315  Biso   1.000  C
  C348     1.0000 0.58280  0.94375  0.72315  Biso   1.000  C
  C349     1.0000 0.08280  0.55625  0.22315  Biso   1.000  C
  C350     1.0000 0.91720  0.44375  0.72315  Biso   1.000  C
  C351     1.0000 0.91720  0.55625  0.22315  Biso   1.000  C
  C352     1.0000 0.08280  0.44375  0.72315  Biso   1.000  C
  H249     1.0000 0.57150  0.03550  0.22800  Biso   1.000  H
  H250     1.0000 0.42850  0.96450  0.72800  Biso   1.000  H
  H251     1.0000 0.42850  0.03550  0.22800  Biso   1.000  H
  H252     1.0000 0.57150  0.96450  0.72800  Biso   1.000  H
  H253     1.0000 0.07150  0.53550  0.22800  Biso   1.000  H
  H254     1.0000 0.92850  0.46450  0.72800  Biso   1.000  H
  H255     1.0000 0.92850  0.53550  0.22800  Biso   1.000  H
  H256     1.0000 0.07150  0.46450  0.72800  Biso   1.000  H
  C353     1.0000 0.60840  0.07005  0.24466  Biso   1.000  C
  C354     1.0000 0.39160  0.92995  0.74466  Biso   1.000  C
  C355     1.0000 0.39160  0.07005  0.24466  Biso   1.000  C
  C356     1.0000 0.60840  0.92995  0.74466  Biso   1.000  C
  C357     1.0000 0.10840  0.57005  0.24466  Biso   1.000  C
  C358     1.0000 0.89160  0.42995  0.74466  Biso   1.000  C
  C359     1.0000 0.89160  0.57005  0.24466  Biso   1.000  C
  C360     1.0000 0.10840  0.42995  0.74466  Biso   1.000  C
  C361     1.0000 0.62540  0.09927  0.23538  Biso   1.000  C
  C362     1.0000 0.37460  0.90073  0.73538  Biso   1.000  C
  C363     1.0000 0.37460  0.09927  0.23538  Biso   1.000  C
  C364     1.0000 0.62540  0.90073  0.73538  Biso   1.000  C
  C365     1.0000 0.12540  0.59927  0.23538  Biso   1.000  C
  C366     1.0000 0.87460  0.40073  0.73538  Biso   1.000  C
  C367     1.0000 0.87460  0.59927  0.23538  Biso   1.000  C
  C368     1.0000 0.12540  0.40073  0.73538  Biso   1.000  C
  H257     1.0000 0.64360  0.10860  0.24800  Biso   1.000  H
  H258     1.0000 0.35640  0.89140  0.74800  Biso   1.000  H
  H259     1.0000 0.35640  0.10860  0.24800  Biso   1.000  H
  H260     1.0000 0.64360  0.89140  0.74800  Biso   1.000  H
  H261     1.0000 0.14360  0.60860  0.24800  Biso   1.000  H
  H262     1.0000 0.85640  0.39140  0.74800  Biso   1.000  H
  H263     1.0000 0.85640  0.60860  0.24800  Biso   1.000  H
  H264     1.0000 0.14360  0.39140  0.74800  Biso   1.000  H
  C369     1.0000 0.61700  0.11571  0.20844  Biso   1.000  C
  C370     1.0000 0.38300  0.88429  0.70844  Biso   1.000  C
  C371     1.0000 0.38300  0.11571  0.20844  Biso   1.000  C
  C372     1.0000 0.61700  0.88429  0.70844  Biso   1.000  C
  C373     1.0000 0.11700  0.61571  0.20844  Biso   1.000  C
  C374     1.0000 0.88300  0.38429  0.70844  Biso   1.000  C
  C375     1.0000 0.88300  0.61571  0.20844  Biso   1.000  C
  C376     1.0000 0.11700  0.38429  0.70844  Biso   1.000  C
  C377     1.0000 0.59230  0.10252  0.18764  Biso   1.000  C
  C378     1.0000 0.40770  0.89748  0.68764  Biso   1.000  C
  C379     1.0000 0.40770  0.10252  0.18764  Biso   1.000  C
  C380     1.0000 0.59230  0.89748  0.68764  Biso   1.000  C
  C381     1.0000 0.09230  0.60252  0.18764  Biso   1.000  C
  C382     1.0000 0.90770  0.39748  0.68764  Biso   1.000  C
  C383     1.0000 0.90770  0.60252  0.18764  Biso   1.000  C
  C384     1.0000 0.09230  0.39748  0.68764  Biso   1.000  C
  H265     1.0000 0.58760  0.11310  0.16880  Biso   1.000  H
  H266     1.0000 0.41240  0.88690  0.66880  Biso   1.000  H
  H267     1.0000 0.41240  0.11310  0.16880  Biso   1.000  H
  H268     1.0000 0.58760  0.88690  0.66880  Biso   1.000  H
  H269     1.0000 0.08760  0.61310  0.16880  Biso   1.000  H
  H270     1.0000 0.91240  0.38690  0.66880  Biso   1.000  H
  H271     1.0000 0.91240  0.61310  0.16880  Biso   1.000  H
  H272     1.0000 0.08760  0.38690  0.66880  Biso   1.000  H
  C385     1.0000 0.63920  0.14939  0.19970  Biso   1.000  C
  C386     1.0000 0.36080  0.85061  0.69970  Biso   1.000  C
  C387     1.0000 0.36080  0.14939  0.19970  Biso   1.000  C
  C388     1.0000 0.63920  0.85061  0.69970  Biso   1.000  C
  C389     1.0000 0.13920  0.64939  0.19970  Biso   1.000  C
  C390     1.0000 0.86080  0.35061  0.69970  Biso   1.000  C
  C391     1.0000 0.86080  0.64939  0.19970  Biso   1.000  C
  C392     1.0000 0.13920  0.35061  0.69970  Biso   1.000  C
  C393     1.0000 0.61590  0.05380  0.27430  Biso   1.000  C
  C394     1.0000 0.38410  0.94620  0.77430  Biso   1.000  C
  C395     1.0000 0.38410  0.05380  0.27430  Biso   1.000  C
  C396     1.0000 0.61590  0.94620  0.77430  Biso   1.000  C
  C397     1.0000 0.11590  0.55380  0.27430  Biso   1.000  C
  C398     1.0000 0.88410  0.44620  0.77430  Biso   1.000  C
  C399     1.0000 0.88410  0.55380  0.27430  Biso   1.000  C
  C400     1.0000 0.11590  0.44620  0.77430  Biso   1.000  C
  C401     1.0000 0.59520  0.03550  0.28880  Biso   1.000  C
  C402     1.0000 0.40480  0.96450  0.78880  Biso   1.000  C
  C403     1.0000 0.40480  0.03550  0.28880  Biso   1.000  C
  C404     1.0000 0.59520  0.96450  0.78880  Biso   1.000  C
  C405     1.0000 0.09520  0.53550  0.28880  Biso   1.000  C
  C406     1.0000 0.90480  0.46450  0.78880  Biso   1.000  C
  C407     1.0000 0.90480  0.53550  0.28880  Biso   1.000  C
  C408     1.0000 0.09520  0.46450  0.78880  Biso   1.000  C
  H273     1.0000 0.57240  0.03060  0.28000  Biso   1.000  H
  H274     1.0000 0.42760  0.96940  0.78000  Biso   1.000  H
  H275     1.0000 0.42760  0.03060  0.28000  Biso   1.000  H
  H276     1.0000 0.57240  0.96940  0.78000  Biso   1.000  H
  H277     1.0000 0.07240  0.53060  0.28000  Biso   1.000  H
  H278     1.0000 0.92760  0.46940  0.78000  Biso   1.000  H
  H279     1.0000 0.92760  0.53060  0.28000  Biso   1.000  H
  H280     1.0000 0.07240  0.46940  0.78000  Biso   1.000  H
  C409     1.0000 0.60260  0.02130  0.31730  Biso   1.000  C
  C410     1.0000 0.39740  0.97870  0.81730  Biso   1.000  C
  C411     1.0000 0.39740  0.02130  0.31730  Biso   1.000  C
  C412     1.0000 0.60260  0.97870  0.81730  Biso   1.000  C
  C413     1.0000 0.10260  0.52130  0.31730  Biso   1.000  C
  C414     1.0000 0.89740  0.47870  0.81730  Biso   1.000  C
  C415     1.0000 0.89740  0.52130  0.31730  Biso   1.000  C
  C416     1.0000 0.10260  0.47870  0.81730  Biso   1.000  C
  H281     1.0000 0.58440  0.00700  0.32530  Biso   1.000  H
  H282     1.0000 0.41560  0.99300  0.82530  Biso   1.000  H
  H283     1.0000 0.41560  0.00700  0.32530  Biso   1.000  H
  H284     1.0000 0.58440  0.99300  0.82530  Biso   1.000  H
  H285     1.0000 0.08440  0.50700  0.32530  Biso   1.000  H
  H286     1.0000 0.91560  0.49300  0.82530  Biso   1.000  H
  H287     1.0000 0.91560  0.50700  0.32530  Biso   1.000  H
  H288     1.0000 0.08440  0.49300  0.82530  Biso   1.000  H
  C417     1.0000 0.63110  0.02530  0.33370  Biso   1.000  C
  C418     1.0000 0.36890  0.97470  0.83370  Biso   1.000  C
  C419     1.0000 0.36890  0.02530  0.33370  Biso   1.000  C
  C420     1.0000 0.63110  0.97470  0.83370  Biso   1.000  C
  C421     1.0000 0.13110  0.52530  0.33370  Biso   1.000  C
  C422     1.0000 0.86890  0.47470  0.83370  Biso   1.000  C
  C423     1.0000 0.86890  0.52530  0.33370  Biso   1.000  C
  C424     1.0000 0.13110  0.47470  0.83370  Biso   1.000  C
  C425     1.0000 0.66340  0.03850  0.31790  Biso   1.000  C
  C426     1.0000 0.33660  0.96150  0.81790  Biso   1.000  C
  C427     1.0000 0.33660  0.03850  0.31790  Biso   1.000  C
  C428     1.0000 0.66340  0.96150  0.81790  Biso   1.000  C
  C429     1.0000 0.16340  0.53850  0.31790  Biso   1.000  C
  C430     1.0000 0.83660  0.46150  0.81790  Biso   1.000  C
  C431     1.0000 0.83660  0.53850  0.31790  Biso   1.000  C
  C432     1.0000 0.16340  0.46150  0.81790  Biso   1.000  C
  H289     1.0000 0.68780  0.03720  0.32460  Biso   1.000  H
  H290     1.0000 0.31220  0.96280  0.82460  Biso   1.000  H
  H291     1.0000 0.31220  0.03720  0.32460  Biso   1.000  H
  H292     1.0000 0.68780  0.96280  0.82460  Biso   1.000  H
  H293     1.0000 0.18780  0.53720  0.32460  Biso   1.000  H
  H294     1.0000 0.81220  0.46280  0.82460  Biso   1.000  H
  H295     1.0000 0.81220  0.53720  0.32460  Biso   1.000  H
  H296     1.0000 0.18780  0.46280  0.82460  Biso   1.000  H
  C433     1.0000 0.65000  0.05460  0.28830  Biso   1.000  C
  C434     1.0000 0.35000  0.94540  0.78830  Biso   1.000  C
  C435     1.0000 0.35000  0.05460  0.28830  Biso   1.000  C
  C436     1.0000 0.65000  0.94540  0.78830  Biso   1.000  C
  C437     1.0000 0.15000  0.55460  0.28830  Biso   1.000  C
  C438     1.0000 0.85000  0.44540  0.78830  Biso   1.000  C
  C439     1.0000 0.85000  0.55460  0.28830  Biso   1.000  C
  C440     1.0000 0.15000  0.44540  0.78830  Biso   1.000  C
  H297     1.0000 0.66780  0.06730  0.27780  Biso   1.000  H
  H298     1.0000 0.33220  0.93270  0.77780  Biso   1.000  H
  H299     1.0000 0.33220  0.06730  0.27780  Biso   1.000  H
  H300     1.0000 0.66780  0.93270  0.77780  Biso   1.000  H
  H301     1.0000 0.16780  0.56730  0.27780  Biso   1.000  H
  H302     1.0000 0.83220  0.43270  0.77780  Biso   1.000  H
  H303     1.0000 0.83220  0.56730  0.27780  Biso   1.000  H
  H304     1.0000 0.16780  0.43270  0.77780  Biso   1.000  H
  C441     1.0000 0.64050  0.01180  0.36270  Biso   1.000  C
  C442     1.0000 0.35950  0.98820  0.86270  Biso   1.000  C
  C443     1.0000 0.35950  0.01180  0.36270  Biso   1.000  C
  C444     1.0000 0.64050  0.98820  0.86270  Biso   1.000  C
  C445     1.0000 0.14050  0.51180  0.36270  Biso   1.000  C
  C446     1.0000 0.85950  0.48820  0.86270  Biso   1.000  C
  C447     1.0000 0.85950  0.51180  0.36270  Biso   1.000  C
  C448     1.0000 0.14050  0.48820  0.86270  Biso   1.000  C
  C449     1.0000 0.62310  0.98160  0.37550  Biso   1.000  C
  C450     1.0000 0.37690  0.01840  0.87550  Biso   1.000  C
  C451     1.0000 0.37690  0.98160  0.37550  Biso   1.000  C
  C452     1.0000 0.62310  0.01840  0.87550  Biso   1.000  C
  C453     1.0000 0.12310  0.48160  0.37550  Biso   1.000  C
  C454     1.0000 0.87690  0.51840  0.87550  Biso   1.000  C
  C455     1.0000 0.87690  0.48160  0.37550  Biso   1.000  C
  C456     1.0000 0.12310  0.51840  0.87550  Biso   1.000  C
  H305     1.0000 0.60590  0.97000  0.36330  Biso   1.000  H
  H306     1.0000 0.39410  0.03000  0.86330  Biso   1.000  H
  H307     1.0000 0.39410  0.97000  0.36330  Biso   1.000  H
  H308     1.0000 0.60590  0.03000  0.86330  Biso   1.000  H
  H309     1.0000 0.10590  0.47000  0.36330  Biso   1.000  H
  H310     1.0000 0.89410  0.53000  0.86330  Biso   1.000  H
  H311     1.0000 0.89410  0.47000  0.36330  Biso   1.000  H
  H312     1.0000 0.10590  0.53000  0.86330  Biso   1.000  H
  C457     1.0000 0.63020  0.96877  0.40419  Biso   1.000  C
  C458     1.0000 0.36980  0.03123  0.90419  Biso   1.000  C
  C459     1.0000 0.36980  0.96877  0.40419  Biso   1.000  C
  C460     1.0000 0.63020  0.03123  0.90419  Biso   1.000  C
  C461     1.0000 0.13020  0.46877  0.40419  Biso   1.000  C
  C462     1.0000 0.86980  0.53123  0.90419  Biso   1.000  C
  C463     1.0000 0.86980  0.46877  0.40419  Biso   1.000  C
  C464     1.0000 0.13020  0.53123  0.90419  Biso   1.000  C
  H313     1.0000 0.61570  0.95150  0.41280  Biso   1.000  H
  H314     1.0000 0.38430  0.04850  0.91280  Biso   1.000  H
  H315     1.0000 0.38430  0.95150  0.41280  Biso   1.000  H
  H316     1.0000 0.61570  0.04850  0.91280  Biso   1.000  H
  H317     1.0000 0.11570  0.45150  0.41280  Biso   1.000  H
  H318     1.0000 0.88430  0.54850  0.91280  Biso   1.000  H
  H319     1.0000 0.88430  0.45150  0.41280  Biso   1.000  H
  H320     1.0000 0.11570  0.54850  0.91280  Biso   1.000  H
  C465     1.0000 0.65830  0.98210  0.41893  Biso   1.000  C
  C466     1.0000 0.34170  0.01790  0.91893  Biso   1.000  C
  C467     1.0000 0.34170  0.98210  0.41893  Biso   1.000  C
  C468     1.0000 0.65830  0.01790  0.91893  Biso   1.000  C
  C469     1.0000 0.15830  0.48210  0.41893  Biso   1.000  C
  C470     1.0000 0.84170  0.51790  0.91893  Biso   1.000  C
  C471     1.0000 0.84170  0.48210  0.41893  Biso   1.000  C
  C472     1.0000 0.15830  0.51790  0.91893  Biso   1.000  C
  C473     1.0000 0.67800  0.01130  0.40990  Biso   1.000  C
  C474     1.0000 0.32200  0.98870  0.90990  Biso   1.000  C
  C475     1.0000 0.32200  0.01130  0.40990  Biso   1.000  C
  C476     1.0000 0.67800  0.98870  0.90990  Biso   1.000  C
  C477     1.0000 0.17800  0.51130  0.40990  Biso   1.000  C
  C478     1.0000 0.82200  0.48870  0.90990  Biso   1.000  C
  C479     1.0000 0.82200  0.51130  0.40990  Biso   1.000  C
  C480     1.0000 0.17800  0.48870  0.90990  Biso   1.000  C
  H321     1.0000 0.69570  0.02170  0.42230  Biso   1.000  H
  H322     1.0000 0.30430  0.97830  0.92230  Biso   1.000  H
  H323     1.0000 0.30430  0.02170  0.42230  Biso   1.000  H
  H324     1.0000 0.69570  0.97830  0.92230  Biso   1.000  H
  H325     1.0000 0.19570  0.52170  0.42230  Biso   1.000  H
  H326     1.0000 0.80430  0.47830  0.92230  Biso   1.000  H
  H327     1.0000 0.80430  0.52170  0.42230  Biso   1.000  H
  H328     1.0000 0.19570  0.47830  0.92230  Biso   1.000  H
  C481     1.0000 0.66840  0.02370  0.37990  Biso   1.000  C
  C482     1.0000 0.33160  0.97630  0.87990  Biso   1.000  C
  C483     1.0000 0.33160  0.02370  0.37990  Biso   1.000  C
  C484     1.0000 0.66840  0.97630  0.87990  Biso   1.000  C
  C485     1.0000 0.16840  0.52370  0.37990  Biso   1.000  C
  C486     1.0000 0.83160  0.47630  0.87990  Biso   1.000  C
  C487     1.0000 0.83160  0.52370  0.37990  Biso   1.000  C
  C488     1.0000 0.16840  0.47630  0.87990  Biso   1.000  C
  H329     1.0000 0.68260  0.04140  0.37170  Biso   1.000  H
  H330     1.0000 0.31740  0.95860  0.87170  Biso   1.000  H
  H331     1.0000 0.31740  0.04140  0.37170  Biso   1.000  H
  H332     1.0000 0.68260  0.95860  0.87170  Biso   1.000  H
  H333     1.0000 0.18260  0.54140  0.37170  Biso   1.000  H
  H334     1.0000 0.81740  0.45860  0.87170  Biso   1.000  H
  H335     1.0000 0.81740  0.54140  0.37170  Biso   1.000  H
  H336     1.0000 0.18260  0.45860  0.87170  Biso   1.000  H
  C489     1.0000 0.67200  0.96820  0.45136  Biso   1.000  C
  C490     1.0000 0.32800  0.03180  0.95136  Biso   1.000  C
  C491     1.0000 0.32800  0.96820  0.45136  Biso   1.000  C
  C492     1.0000 0.67200  0.03180  0.95136  Biso   1.000  C
  C493     1.0000 0.17200  0.46820  0.45136  Biso   1.000  C
  C494     1.0000 0.82800  0.53180  0.95136  Biso   1.000  C
  C495     1.0000 0.82800  0.46820  0.45136  Biso   1.000  C
  C496     1.0000 0.17200  0.53180  0.95136  Biso   1.000  C
  C497     1.0000 0.85130  0.26220  0.71780  Biso   1.000  C
  C498     1.0000 0.14870  0.73780  0.21780  Biso   1.000  C
  C499     1.0000 0.14870  0.26220  0.71780  Biso   1.000  C
  C500     1.0000 0.85130  0.73780  0.21780  Biso   1.000  C
  C501     1.0000 0.35130  0.76220  0.71780  Biso   1.000  C
  C502     1.0000 0.64870  0.23780  0.21780  Biso   1.000  C
  C503     1.0000 0.64870  0.76220  0.71780  Biso   1.000  C
  C504     1.0000 0.35130  0.23780  0.21780  Biso   1.000  C
  C505     1.0000 0.86820  0.23361  0.74012  Biso   1.000  C
  C506     1.0000 0.13180  0.76639  0.24012  Biso   1.000  C
  C507     1.0000 0.13180  0.23361  0.74012  Biso   1.000  C
  C508     1.0000 0.86820  0.76639  0.24012  Biso   1.000  C
  C509     1.0000 0.36820  0.73361  0.74012  Biso   1.000  C
  C510     1.0000 0.63180  0.26639  0.24012  Biso   1.000  C
  C511     1.0000 0.63180  0.73361  0.74012  Biso   1.000  C
  C512     1.0000 0.36820  0.26639  0.24012  Biso   1.000  C
  C513     1.0000 0.90010  0.21804  0.73238  Biso   1.000  C
  C514     1.0000 0.09990  0.78196  0.23238  Biso   1.000  C
  C515     1.0000 0.09990  0.21804  0.73238  Biso   1.000  C
  C516     1.0000 0.90010  0.78196  0.23238  Biso   1.000  C
  C517     1.0000 0.40010  0.71804  0.73238  Biso   1.000  C
  C518     1.0000 0.59990  0.28196  0.23238  Biso   1.000  C
  C519     1.0000 0.59990  0.71804  0.73238  Biso   1.000  C
  C520     1.0000 0.40010  0.28196  0.23238  Biso   1.000  C
  H337     1.0000 0.91130  0.22360  0.71380  Biso   1.000  H
  H338     1.0000 0.08870  0.77640  0.21380  Biso   1.000  H
  H339     1.0000 0.08870  0.22360  0.71380  Biso   1.000  H
  H340     1.0000 0.91130  0.77640  0.21380  Biso   1.000  H
  H341     1.0000 0.41130  0.72360  0.71380  Biso   1.000  H
  H342     1.0000 0.58870  0.27640  0.21380  Biso   1.000  H
  H343     1.0000 0.58870  0.72360  0.71380  Biso   1.000  H
  H344     1.0000 0.41130  0.27640  0.21380  Biso   1.000  H
  C521     1.0000 0.91600  0.19482  0.75079  Biso   1.000  C
  C522     1.0000 0.08400  0.80518  0.25079  Biso   1.000  C
  C523     1.0000 0.08400  0.19482  0.75079  Biso   1.000  C
  C524     1.0000 0.91600  0.80518  0.25079  Biso   1.000  C
  C525     1.0000 0.41600  0.69482  0.75079  Biso   1.000  C
  C526     1.0000 0.58400  0.30518  0.25079  Biso   1.000  C
  C527     1.0000 0.58400  0.69482  0.75079  Biso   1.000  C
  C528     1.0000 0.41600  0.30518  0.25079  Biso   1.000  C
  C529     1.0000 0.89840  0.18838  0.77865  Biso   1.000  C
  C530     1.0000 0.10160  0.81162  0.27865  Biso   1.000  C
  C531     1.0000 0.10160  0.18838  0.77865  Biso   1.000  C
  C532     1.0000 0.89840  0.81162  0.27865  Biso   1.000  C
  C533     1.0000 0.39840  0.68838  0.77865  Biso   1.000  C
  C534     1.0000 0.60160  0.31162  0.27865  Biso   1.000  C
  C535     1.0000 0.60160  0.68838  0.77865  Biso   1.000  C
  C536     1.0000 0.39840  0.31162  0.27865  Biso   1.000  C
  H345     1.0000 0.90890  0.17220  0.79170  Biso   1.000  H
  H346     1.0000 0.09110  0.82780  0.29170  Biso   1.000  H
  H347     1.0000 0.09110  0.17220  0.79170  Biso   1.000  H
  H348     1.0000 0.90890  0.82780  0.29170  Biso   1.000  H
  H349     1.0000 0.40890  0.67220  0.79170  Biso   1.000  H
  H350     1.0000 0.59110  0.32780  0.29170  Biso   1.000  H
  H351     1.0000 0.59110  0.67220  0.79170  Biso   1.000  H
  H352     1.0000 0.40890  0.32780  0.29170  Biso   1.000  H
  C537     1.0000 0.86830  0.20351  0.78766  Biso   1.000  C
  C538     1.0000 0.13170  0.79649  0.28766  Biso   1.000  C
  C539     1.0000 0.13170  0.20351  0.78766  Biso   1.000  C
  C540     1.0000 0.86830  0.79649  0.28766  Biso   1.000  C
  C541     1.0000 0.36830  0.70351  0.78766  Biso   1.000  C
  C542     1.0000 0.63170  0.29649  0.28766  Biso   1.000  C
  C543     1.0000 0.63170  0.70351  0.78766  Biso   1.000  C
  C544     1.0000 0.36830  0.29649  0.28766  Biso   1.000  C
  C545     1.0000 0.85190  0.22781  0.76713  Biso   1.000  C
  C546     1.0000 0.14810  0.77219  0.26713  Biso   1.000  C
  C547     1.0000 0.14810  0.22781  0.76713  Biso   1.000  C
  C548     1.0000 0.85190  0.77219  0.26713  Biso   1.000  C
  C549     1.0000 0.35190  0.72781  0.76713  Biso   1.000  C
  C550     1.0000 0.64810  0.27219  0.26713  Biso   1.000  C
  C551     1.0000 0.64810  0.72781  0.76713  Biso   1.000  C
  C552     1.0000 0.35190  0.27219  0.26713  Biso   1.000  C
  H353     1.0000 0.83030  0.23930  0.77250  Biso   1.000  H
  H354     1.0000 0.16970  0.76070  0.27250  Biso   1.000  H
  H355     1.0000 0.16970  0.23930  0.77250  Biso   1.000  H
  H356     1.0000 0.83030  0.76070  0.27250  Biso   1.000  H
  H357     1.0000 0.33030  0.73930  0.77250  Biso   1.000  H
  H358     1.0000 0.66970  0.26070  0.27250  Biso   1.000  H
  H359     1.0000 0.66970  0.73930  0.77250  Biso   1.000  H
  H360     1.0000 0.33030  0.26070  0.27250  Biso   1.000  H
  C553     1.0000 0.94860  0.17424  0.74195  Biso   1.000  C
  C554     1.0000 0.05140  0.82576  0.24195  Biso   1.000  C
  C555     1.0000 0.05140  0.17424  0.74195  Biso   1.000  C
  C556     1.0000 0.94860  0.82576  0.24195  Biso   1.000  C
  C557     1.0000 0.44860  0.67424  0.74195  Biso   1.000  C
  C558     1.0000 0.55140  0.32576  0.24195  Biso   1.000  C
  C559     1.0000 0.55140  0.67424  0.74195  Biso   1.000  C
  C560     1.0000 0.44860  0.32576  0.24195  Biso   1.000  C
  C561     1.0000 0.84870  0.19589  0.81797  Biso   1.000  C
  C562     1.0000 0.15130  0.80411  0.31797  Biso   1.000  C
  C563     1.0000 0.15130  0.19589  0.81797  Biso   1.000  C
  C564     1.0000 0.84870  0.80411  0.31797  Biso   1.000  C
  C565     1.0000 0.34870  0.69589  0.81797  Biso   1.000  C
  C566     1.0000 0.65130  0.30411  0.31797  Biso   1.000  C
  C567     1.0000 0.65130  0.69589  0.81797  Biso   1.000  C
  C568     1.0000 0.34870  0.30411  0.31797  Biso   1.000  C
  C569     1.0000 0.86900  0.18380  0.84220  Biso   1.000  C
  C570     1.0000 0.13100  0.81620  0.34220  Biso   1.000  C
  C571     1.0000 0.13100  0.18380  0.84220  Biso   1.000  C
  C572     1.0000 0.86900  0.81620  0.34220  Biso   1.000  C
  C573     1.0000 0.36900  0.68380  0.84220  Biso   1.000  C
  C574     1.0000 0.63100  0.31620  0.34220  Biso   1.000  C
  C575     1.0000 0.63100  0.68380  0.84220  Biso   1.000  C
  C576     1.0000 0.36900  0.31620  0.34220  Biso   1.000  C
  H361     1.0000 0.89470  0.18360  0.84160  Biso   1.000  H
  H362     1.0000 0.10530  0.81640  0.34160  Biso   1.000  H
  H363     1.0000 0.10530  0.18360  0.84160  Biso   1.000  H
  H364     1.0000 0.89470  0.81640  0.34160  Biso   1.000  H
  H365     1.0000 0.39470  0.68360  0.84160  Biso   1.000  H
  H366     1.0000 0.60530  0.31640  0.34160  Biso   1.000  H
  H367     1.0000 0.60530  0.68360  0.84160  Biso   1.000  H
  H368     1.0000 0.39470  0.31640  0.34160  Biso   1.000  H
  C577     1.0000 0.84900  0.17130  0.86880  Biso   1.000  C
  C578     1.0000 0.15100  0.82870  0.36880  Biso   1.000  C
  C579     1.0000 0.15100  0.17130  0.86880  Biso   1.000  C
  C580     1.0000 0.84900  0.82870  0.36880  Biso   1.000  C
  C581     1.0000 0.34900  0.67130  0.86880  Biso   1.000  C
  C582     1.0000 0.65100  0.32870  0.36880  Biso   1.000  C
  C583     1.0000 0.65100  0.67130  0.86880  Biso   1.000  C
  C584     1.0000 0.34900  0.32870  0.36880  Biso   1.000  C
  H369     1.0000 0.86220  0.16450  0.88610  Biso   1.000  H
  H370     1.0000 0.13780  0.83550  0.38610  Biso   1.000  H
  H371     1.0000 0.13780  0.16450  0.88610  Biso   1.000  H
  H372     1.0000 0.86220  0.83550  0.38610  Biso   1.000  H
  H373     1.0000 0.36220  0.66450  0.88610  Biso   1.000  H
  H374     1.0000 0.63780  0.33550  0.38610  Biso   1.000  H
  H375     1.0000 0.63780  0.66450  0.88610  Biso   1.000  H
  H376     1.0000 0.36220  0.33550  0.38610  Biso   1.000  H
  C585     1.0000 0.81160  0.16920  0.86910  Biso   1.000  C
  C586     1.0000 0.18840  0.83080  0.36910  Biso   1.000  C
  C587     1.0000 0.18840  0.16920  0.86910  Biso   1.000  C
  C588     1.0000 0.81160  0.83080  0.36910  Biso   1.000  C
  C589     1.0000 0.31160  0.66920  0.86910  Biso   1.000  C
  C590     1.0000 0.68840  0.33080  0.36910  Biso   1.000  C
  C591     1.0000 0.68840  0.66920  0.86910  Biso   1.000  C
  C592     1.0000 0.31160  0.33080  0.36910  Biso   1.000  C
  C593     1.0000 0.79210  0.18330  0.84700  Biso   1.000  C
  C594     1.0000 0.20790  0.81670  0.34700  Biso   1.000  C
  C595     1.0000 0.20790  0.18330  0.84700  Biso   1.000  C
  C596     1.0000 0.79210  0.81670  0.34700  Biso   1.000  C
  C597     1.0000 0.29210  0.68330  0.84700  Biso   1.000  C
  C598     1.0000 0.70790  0.31670  0.34700  Biso   1.000  C
  C599     1.0000 0.70790  0.68330  0.84700  Biso   1.000  C
  C600     1.0000 0.29210  0.31670  0.34700  Biso   1.000  C
  H377     1.0000 0.76670  0.18640  0.84920  Biso   1.000  H
  H378     1.0000 0.23330  0.81360  0.34920  Biso   1.000  H
  H379     1.0000 0.23330  0.18640  0.84920  Biso   1.000  H
  H380     1.0000 0.76670  0.81360  0.34920  Biso   1.000  H
  H381     1.0000 0.26670  0.68640  0.84920  Biso   1.000  H
  H382     1.0000 0.73330  0.31360  0.34920  Biso   1.000  H
  H383     1.0000 0.73330  0.68640  0.84920  Biso   1.000  H
  H384     1.0000 0.26670  0.31360  0.34920  Biso   1.000  H
  C601     1.0000 0.81060  0.19410  0.81930  Biso   1.000  C
  C602     1.0000 0.18940  0.80590  0.31930  Biso   1.000  C
  C603     1.0000 0.18940  0.19410  0.81930  Biso   1.000  C
  C604     1.0000 0.81060  0.80590  0.31930  Biso   1.000  C
  C605     1.0000 0.31060  0.69410  0.81930  Biso   1.000  C
  C606     1.0000 0.68940  0.30590  0.31930  Biso   1.000  C
  C607     1.0000 0.68940  0.69410  0.81930  Biso   1.000  C
  C608     1.0000 0.31060  0.30590  0.31930  Biso   1.000  C
  H385     1.0000 0.79670  0.19990  0.80200  Biso   1.000  H
  H386     1.0000 0.20330  0.80010  0.30200  Biso   1.000  H
  H387     1.0000 0.20330  0.19990  0.80200  Biso   1.000  H
  H388     1.0000 0.79670  0.80010  0.30200  Biso   1.000  H
  H389     1.0000 0.29670  0.69990  0.80200  Biso   1.000  H
  H390     1.0000 0.70330  0.30010  0.30200  Biso   1.000  H
  H391     1.0000 0.70330  0.69990  0.80200  Biso   1.000  H
  H392     1.0000 0.29670  0.30010  0.30200  Biso   1.000  H
  C609     1.0000 0.79220  0.15360  0.89650  Biso   1.000  C
  C610     1.0000 0.20780  0.84640  0.39650  Biso   1.000  C
  C611     1.0000 0.20780  0.15360  0.89650  Biso   1.000  C
  C612     1.0000 0.79220  0.84640  0.39650  Biso   1.000  C
  C613     1.0000 0.29220  0.65360  0.89650  Biso   1.000  C
  C614     1.0000 0.70780  0.34640  0.39650  Biso   1.000  C
  C615     1.0000 0.70780  0.65360  0.89650  Biso   1.000  C
  C616     1.0000 0.29220  0.34640  0.39650  Biso   1.000  C
  C617     1.0000 0.80680  0.12580  0.91230  Biso   1.000  C
  C618     1.0000 0.19320  0.87420  0.41230  Biso   1.000  C
  C619     1.0000 0.19320  0.12580  0.91230  Biso   1.000  C
  C620     1.0000 0.80680  0.87420  0.41230  Biso   1.000  C
  C621     1.0000 0.30680  0.62580  0.91230  Biso   1.000  C
  C622     1.0000 0.69320  0.37420  0.41230  Biso   1.000  C
  C623     1.0000 0.69320  0.62580  0.91230  Biso   1.000  C
  C624     1.0000 0.30680  0.37420  0.41230  Biso   1.000  C
  H393     1.0000 0.83020  0.11800  0.90670  Biso   1.000  H
  H394     1.0000 0.16980  0.88200  0.40670  Biso   1.000  H
  H395     1.0000 0.16980  0.11800  0.90670  Biso   1.000  H
  H396     1.0000 0.83020  0.88200  0.40670  Biso   1.000  H
  H397     1.0000 0.33020  0.61800  0.90670  Biso   1.000  H
  H398     1.0000 0.66980  0.38200  0.40670  Biso   1.000  H
  H399     1.0000 0.66980  0.61800  0.90670  Biso   1.000  H
  H400     1.0000 0.33020  0.38200  0.40670  Biso   1.000  H
  C625     1.0000 0.78990  0.11020  0.93410  Biso   1.000  C
  C626     1.0000 0.21010  0.88980  0.43410  Biso   1.000  C
  C627     1.0000 0.21010  0.11020  0.93410  Biso   1.000  C
  C628     1.0000 0.78990  0.88980  0.43410  Biso   1.000  C
  C629     1.0000 0.28990  0.61020  0.93410  Biso   1.000  C
  C630     1.0000 0.71010  0.38980  0.43410  Biso   1.000  C
  C631     1.0000 0.71010  0.61020  0.93410  Biso   1.000  C
  C632     1.0000 0.28990  0.38980  0.43410  Biso   1.000  C
  H401     1.0000 0.80180  0.09210  0.94400  Biso   1.000  H
  H402     1.0000 0.19820  0.90790  0.44400  Biso   1.000  H
  H403     1.0000 0.19820  0.09210  0.94400  Biso   1.000  H
  H404     1.0000 0.80180  0.90790  0.44400  Biso   1.000  H
  H405     1.0000 0.30180  0.59210  0.94400  Biso   1.000  H
  H406     1.0000 0.69820  0.40790  0.44400  Biso   1.000  H
  H407     1.0000 0.69820  0.59210  0.94400  Biso   1.000  H
  H408     1.0000 0.30180  0.40790  0.44400  Biso   1.000  H
  C633     1.0000 0.75410  0.11940  0.94370  Biso   1.000  C
  C634     1.0000 0.24590  0.88060  0.44370  Biso   1.000  C
  C635     1.0000 0.24590  0.11940  0.94370  Biso   1.000  C
  C636     1.0000 0.75410  0.88060  0.44370  Biso   1.000  C
  C637     1.0000 0.25410  0.61940  0.94370  Biso   1.000  C
  C638     1.0000 0.74590  0.38060  0.44370  Biso   1.000  C
  C639     1.0000 0.74590  0.61940  0.94370  Biso   1.000  C
  C640     1.0000 0.25410  0.38060  0.44370  Biso   1.000  C
  C641     1.0000 0.73970  0.14874  0.93060  Biso   1.000  C
  C642     1.0000 0.26030  0.85126  0.43060  Biso   1.000  C
  C643     1.0000 0.26030  0.14874  0.93060  Biso   1.000  C
  C644     1.0000 0.73970  0.85126  0.43060  Biso   1.000  C
  C645     1.0000 0.23970  0.64874  0.93060  Biso   1.000  C
  C646     1.0000 0.76030  0.35126  0.43060  Biso   1.000  C
  C647     1.0000 0.76030  0.64874  0.93060  Biso   1.000  C
  C648     1.0000 0.23970  0.35126  0.43060  Biso   1.000  C
  H409     1.0000 0.71740  0.15800  0.93740  Biso   1.000  H
  H410     1.0000 0.28260  0.84200  0.43740  Biso   1.000  H
  H411     1.0000 0.28260  0.15800  0.93740  Biso   1.000  H
  H412     1.0000 0.71740  0.84200  0.43740  Biso   1.000  H
  H413     1.0000 0.21740  0.65800  0.93740  Biso   1.000  H
  H414     1.0000 0.78260  0.34200  0.43740  Biso   1.000  H
  H415     1.0000 0.78260  0.65800  0.93740  Biso   1.000  H
  H416     1.0000 0.21740  0.34200  0.43740  Biso   1.000  H
  C649     1.0000 0.75930  0.16390  0.90715  Biso   1.000  C
  C650     1.0000 0.24070  0.83610  0.40715  Biso   1.000  C
  C651     1.0000 0.24070  0.16390  0.90715  Biso   1.000  C
  C652     1.0000 0.75930  0.83610  0.40715  Biso   1.000  C
  C653     1.0000 0.25930  0.66390  0.90715  Biso   1.000  C
  C654     1.0000 0.74070  0.33610  0.40715  Biso   1.000  C
  C655     1.0000 0.74070  0.66390  0.90715  Biso   1.000  C
  C656     1.0000 0.25930  0.33610  0.40715  Biso   1.000  C
  H417     1.0000 0.74880  0.18310  0.89790  Biso   1.000  H
  H418     1.0000 0.25120  0.81690  0.39790  Biso   1.000  H
  H419     1.0000 0.25120  0.18310  0.89790  Biso   1.000  H
  H420     1.0000 0.74880  0.81690  0.39790  Biso   1.000  H
  H421     1.0000 0.24880  0.68310  0.89790  Biso   1.000  H
  H422     1.0000 0.75120  0.31690  0.39790  Biso   1.000  H
  H423     1.0000 0.75120  0.68310  0.89790  Biso   1.000  H
  H424     1.0000 0.24880  0.31690  0.39790  Biso   1.000  H
  C657     1.0000 0.73320  0.10040  0.96796  Biso   1.000  C
  C658     1.0000 0.26680  0.89960  0.46796  Biso   1.000  C
  C659     1.0000 0.26680  0.10040  0.96796  Biso   1.000  C
  C660     1.0000 0.73320  0.89960  0.46796  Biso   1.000  C
  C661     1.0000 0.23320  0.60040  0.96796  Biso   1.000  C
  C662     1.0000 0.76680  0.39960  0.46796  Biso   1.000  C
  C663     1.0000 0.76680  0.60040  0.96796  Biso   1.000  C
  C664     1.0000 0.23320  0.39960  0.46796  Biso   1.000  C
  C665     1.0000 0.76950  0.79370  0.12630  Biso   1.000  C
  C666     1.0000 0.23050  0.20630  0.62630  Biso   1.000  C
  C667     1.0000 0.23050  0.79370  0.12630  Biso   1.000  C
  C668     1.0000 0.76950  0.20630  0.62630  Biso   1.000  C
  C669     1.0000 0.26950  0.29370  0.12630  Biso   1.000  C
  C670     1.0000 0.73050  0.70630  0.62630  Biso   1.000  C
  C671     1.0000 0.73050  0.29370  0.12630  Biso   1.000  C
  C672     1.0000 0.26950  0.70630  0.62630  Biso   1.000  C
  H425     1.0000 0.79130  0.78880  0.11590  Biso   1.000  H
  H426     1.0000 0.20870  0.21120  0.61590  Biso   1.000  H
  H427     1.0000 0.20870  0.78880  0.11590  Biso   1.000  H
  H428     1.0000 0.79130  0.21120  0.61590  Biso   1.000  H
  H429     1.0000 0.29130  0.28880  0.11590  Biso   1.000  H
  H430     1.0000 0.70870  0.71120  0.61590  Biso   1.000  H
  H431     1.0000 0.70870  0.28880  0.11590  Biso   1.000  H
  H432     1.0000 0.29130  0.71120  0.61590  Biso   1.000  H
  H433     1.0000 0.01830  0.83590  0.14390  Biso   1.000  H
  H434     1.0000 0.98170  0.16410  0.64390  Biso   1.000  H
  H435     1.0000 0.98170  0.83590  0.14390  Biso   1.000  H
  H436     1.0000 0.01830  0.16410  0.64390  Biso   1.000  H
  H437     1.0000 0.51830  0.33590  0.14390  Biso   1.000  H
  H438     1.0000 0.48170  0.66410  0.64390  Biso   1.000  H
  H439     1.0000 0.48170  0.33590  0.14390  Biso   1.000  H
  H440     1.0000 0.51830  0.66410  0.64390  Biso   1.000  H
  H441     1.0000 0.02130  0.90570  0.30400  Biso   1.000  H
  H442     1.0000 0.97870  0.09430  0.80400  Biso   1.000  H
  H443     1.0000 0.97870  0.90570  0.30400  Biso   1.000  H
  H444     1.0000 0.02130  0.09430  0.80400  Biso   1.000  H
  H445     1.0000 0.52130  0.40570  0.30400  Biso   1.000  H
  H446     1.0000 0.47870  0.59430  0.80400  Biso   1.000  H
  H447     1.0000 0.47870  0.40570  0.30400  Biso   1.000  H
  H448     1.0000 0.52130  0.59430  0.80400  Biso   1.000  H
