data_image0
_cell_length_a       13.4623
_cell_length_b       13.4623
_cell_length_c       46.472
_cell_angle_alpha    90
_cell_angle_beta     90
_cell_angle_gamma    90

_symmetry_space_group_name_H-M    "P 1"
_symmetry_int_tables_number       1

loop_
  _symmetry_equiv_pos_as_xyz
  'x, y, z'

loop_
  _atom_site_label
  _atom_site_occupancy
  _atom_site_fract_x
  _atom_site_fract_y
  _atom_site_fract_z
  _atom_site_thermal_displace_type
  _atom_site_B_iso_or_equiv
  _atom_site_type_symbol
  Cu1      1.0000 0.50000  0.25000  0.09702  Biso   1.000  Cu
  Cu2      1.0000 0.00000  0.75000  0.34702  Biso   1.000  Cu
  Cu3      1.0000 0.00000  0.75000  0.59702  Biso   1.000  Cu
  Cu4      1.0000 0.50000  0.75000  0.34702  Biso   1.000  Cu
  Cu5      1.0000 0.00000  0.25000  0.40298  Biso   1.000  Cu
  Cu6      1.0000 0.00000  0.75000  0.15298  Biso   1.000  Cu
  Cu7      1.0000 0.50000  0.75000  0.90298  Biso   1.000  Cu
  Cu8      1.0000 0.50000  0.75000  0.15298  Biso   1.000  Cu
  O1       1.0000 0.25800  0.38740  0.97115  Biso   1.000  O
  O2       1.0000 0.86260  0.50800  0.22115  Biso   1.000  O
  O3       1.0000 0.75800  0.88740  0.47115  Biso   1.000  O
  O4       1.0000 0.63740  0.99200  0.22115  Biso   1.000  O
  O5       1.0000 0.75800  0.38740  0.52885  Biso   1.000  O
  O6       1.0000 0.86260  0.50800  0.27885  Biso   1.000  O
  O7       1.0000 0.25800  0.88740  0.02885  Biso   1.000  O
  O8       1.0000 0.74200  0.61260  0.02885  Biso   1.000  O
  O9       1.0000 0.63740  0.99200  0.27885  Biso   1.000  O
  O10      1.0000 0.24200  0.11260  0.52885  Biso   1.000  O
  O11      1.0000 0.24200  0.61260  0.47115  Biso   1.000  O
  O12      1.0000 0.74200  0.11260  0.97115  Biso   1.000  O
  O13      1.0000 0.36330  0.12840  0.09950  Biso   1.000  O
  O14      1.0000 0.12160  0.61330  0.34950  Biso   1.000  O
  O15      1.0000 0.86330  0.62840  0.59950  Biso   1.000  O
  O16      1.0000 0.37840  0.88670  0.34950  Biso   1.000  O
  O17      1.0000 0.86330  0.12840  0.40050  Biso   1.000  O
  O18      1.0000 0.12160  0.61330  0.15050  Biso   1.000  O
  O19      1.0000 0.36330  0.62840  0.90050  Biso   1.000  O
  O20      1.0000 0.63670  0.87160  0.90050  Biso   1.000  O
  O21      1.0000 0.37840  0.88670  0.15050  Biso   1.000  O
  O22      1.0000 0.13670  0.37160  0.40050  Biso   1.000  O
  O23      1.0000 0.13670  0.87160  0.59950  Biso   1.000  O
  O24      1.0000 0.63670  0.37160  0.09950  Biso   1.000  O
  N1       1.0000 0.42580  0.32320  0.06496  Biso   1.000  N
  N2       1.0000 0.92680  0.67580  0.31496  Biso   1.000  N
  N3       1.0000 0.92580  0.82320  0.56496  Biso   1.000  N
  N4       1.0000 0.57320  0.82420  0.31496  Biso   1.000  N
  N5       1.0000 0.92580  0.32320  0.43504  Biso   1.000  N
  N6       1.0000 0.92680  0.67580  0.18504  Biso   1.000  N
  N7       1.0000 0.42580  0.82320  0.93504  Biso   1.000  N
  N8       1.0000 0.57420  0.67680  0.93504  Biso   1.000  N
  N9       1.0000 0.57320  0.82420  0.18504  Biso   1.000  N
  N10      1.0000 0.07420  0.17680  0.43504  Biso   1.000  N
  N11      1.0000 0.07420  0.67680  0.56496  Biso   1.000  N
  N12      1.0000 0.57420  0.17680  0.06496  Biso   1.000  N
  N13      1.0000 0.32210  0.53560  0.97788  Biso   1.000  N
  N14      1.0000 0.71440  0.57210  0.22788  Biso   1.000  N
  N15      1.0000 0.82210  0.03560  0.47788  Biso   1.000  N
  N16      1.0000 0.78560  0.92790  0.22788  Biso   1.000  N
  N17      1.0000 0.82210  0.53560  0.52212  Biso   1.000  N
  N18      1.0000 0.71440  0.57210  0.27212  Biso   1.000  N
  N19      1.0000 0.32210  0.03560  0.02212  Biso   1.000  N
  N20      1.0000 0.67790  0.46440  0.02212  Biso   1.000  N
  N21      1.0000 0.78560  0.92790  0.27212  Biso   1.000  N
  N22      1.0000 0.17790  0.96440  0.52212  Biso   1.000  N
  N23      1.0000 0.17790  0.46440  0.47788  Biso   1.000  N
  N24      1.0000 0.67790  0.96440  0.97788  Biso   1.000  N
  N25      1.0000 0.27100  0.53270  0.95107  Biso   1.000  N
  N26      1.0000 0.71730  0.52100  0.20107  Biso   1.000  N
  N27      1.0000 0.77100  0.03270  0.45107  Biso   1.000  N
  N28      1.0000 0.78270  0.97900  0.20107  Biso   1.000  N
  N29      1.0000 0.77100  0.53270  0.54893  Biso   1.000  N
  N30      1.0000 0.71730  0.52100  0.29893  Biso   1.000  N
  N31      1.0000 0.27100  0.03270  0.04893  Biso   1.000  N
  N32      1.0000 0.72900  0.46730  0.04893  Biso   1.000  N
  N33      1.0000 0.78270  0.97900  0.29893  Biso   1.000  N
  N34      1.0000 0.22900  0.96730  0.54893  Biso   1.000  N
  N35      1.0000 0.22900  0.46730  0.45107  Biso   1.000  N
  N36      1.0000 0.72900  0.96730  0.95107  Biso   1.000  N
  N37      1.0000 0.08320  0.31780  0.87824  Biso   1.000  N
  N38      1.0000 0.93220  0.33320  0.12824  Biso   1.000  N
  N39      1.0000 0.58320  0.81780  0.37824  Biso   1.000  N
  N40      1.0000 0.56780  0.16680  0.12824  Biso   1.000  N
  N41      1.0000 0.58320  0.31780  0.62176  Biso   1.000  N
  N42      1.0000 0.93220  0.33320  0.37176  Biso   1.000  N
  N43      1.0000 0.08320  0.81780  0.12176  Biso   1.000  N
  N44      1.0000 0.91680  0.68220  0.12176  Biso   1.000  N
  N45      1.0000 0.56780  0.16680  0.37176  Biso   1.000  N
  N46      1.0000 0.41680  0.18220  0.62176  Biso   1.000  N
  N47      1.0000 0.41680  0.68220  0.37824  Biso   1.000  N
  N48      1.0000 0.91680  0.18220  0.87824  Biso   1.000  N
  C1       1.0000 0.37840  0.26710  0.04511  Biso   1.000  C
  C2       1.0000 0.98290  0.62840  0.29511  Biso   1.000  C
  C3       1.0000 0.87840  0.76710  0.54511  Biso   1.000  C
  C4       1.0000 0.51710  0.87160  0.29511  Biso   1.000  C
  C5       1.0000 0.87840  0.26710  0.45489  Biso   1.000  C
  C6       1.0000 0.98290  0.62840  0.20489  Biso   1.000  C
  C7       1.0000 0.37840  0.76710  0.95489  Biso   1.000  C
  C8       1.0000 0.62160  0.73290  0.95489  Biso   1.000  C
  C9       1.0000 0.51710  0.87160  0.20489  Biso   1.000  C
  C10      1.0000 0.12160  0.23290  0.45489  Biso   1.000  C
  C11      1.0000 0.12160  0.73290  0.54511  Biso   1.000  C
  C12      1.0000 0.62160  0.23290  0.04511  Biso   1.000  C
  H1       1.0000 0.37230  0.19920  0.04830  Biso   1.000  H
  H2       1.0000 0.05080  0.62230  0.29830  Biso   1.000  H
  H3       1.0000 0.87230  0.69920  0.54830  Biso   1.000  H
  H4       1.0000 0.44920  0.87770  0.29830  Biso   1.000  H
  H5       1.0000 0.87230  0.19920  0.45170  Biso   1.000  H
  H6       1.0000 0.05080  0.62230  0.20170  Biso   1.000  H
  H7       1.0000 0.37230  0.69920  0.95170  Biso   1.000  H
  H8       1.0000 0.62770  0.80080  0.95170  Biso   1.000  H
  H9       1.0000 0.44920  0.87770  0.20170  Biso   1.000  H
  H10      1.0000 0.12770  0.30080  0.45170  Biso   1.000  H
  H11      1.0000 0.12770  0.80080  0.54830  Biso   1.000  H
  H12      1.0000 0.62770  0.30080  0.04830  Biso   1.000  H
  C13      1.0000 0.33940  0.30620  0.02058  Biso   1.000  C
  C14      1.0000 0.94380  0.58940  0.27058  Biso   1.000  C
  C15      1.0000 0.83940  0.80620  0.52058  Biso   1.000  C
  C16      1.0000 0.55620  0.91060  0.27058  Biso   1.000  C
  C17      1.0000 0.83940  0.30620  0.47942  Biso   1.000  C
  C18      1.0000 0.94380  0.58940  0.22942  Biso   1.000  C
  C19      1.0000 0.33940  0.80620  0.97942  Biso   1.000  C
  C20      1.0000 0.66060  0.69380  0.97942  Biso   1.000  C
  C21      1.0000 0.55620  0.91060  0.22942  Biso   1.000  C
  C22      1.0000 0.16060  0.19380  0.47942  Biso   1.000  C
  C23      1.0000 0.16060  0.69380  0.52058  Biso   1.000  C
  C24      1.0000 0.66060  0.19380  0.02058  Biso   1.000  C
  H13      1.0000 0.30740  0.26560  0.00730  Biso   1.000  H
  H14      1.0000 0.98440  0.55740  0.25730  Biso   1.000  H
  H15      1.0000 0.80740  0.76560  0.50730  Biso   1.000  H
  H16      1.0000 0.51560  0.94260  0.25730  Biso   1.000  H
  H17      1.0000 0.80740  0.26560  0.49270  Biso   1.000  H
  H18      1.0000 0.98440  0.55740  0.24270  Biso   1.000  H
  H19      1.0000 0.30740  0.76560  0.99270  Biso   1.000  H
  H20      1.0000 0.69260  0.73440  0.99270  Biso   1.000  H
  H21      1.0000 0.51560  0.94260  0.24270  Biso   1.000  H
  H22      1.0000 0.19260  0.23440  0.49270  Biso   1.000  H
  H23      1.0000 0.19260  0.73440  0.50730  Biso   1.000  H
  H24      1.0000 0.69260  0.23440  0.00730  Biso   1.000  H
  C25      1.0000 0.34780  0.40620  0.01574  Biso   1.000  C
  C26      1.0000 0.84380  0.59780  0.26574  Biso   1.000  C
  C27      1.0000 0.84780  0.90620  0.51574  Biso   1.000  C
  C28      1.0000 0.65620  0.90220  0.26574  Biso   1.000  C
  C29      1.0000 0.84780  0.40620  0.48426  Biso   1.000  C
  C30      1.0000 0.84380  0.59780  0.23426  Biso   1.000  C
  C31      1.0000 0.34780  0.90620  0.98426  Biso   1.000  C
  C32      1.0000 0.65220  0.59380  0.98426  Biso   1.000  C
  C33      1.0000 0.65620  0.90220  0.23426  Biso   1.000  C
  C34      1.0000 0.15220  0.09380  0.48426  Biso   1.000  C
  C35      1.0000 0.15220  0.59380  0.51574  Biso   1.000  C
  C36      1.0000 0.65220  0.09380  0.01574  Biso   1.000  C
  C37      1.0000 0.39490  0.46550  0.03576  Biso   1.000  C
  C38      1.0000 0.78450  0.64490  0.28576  Biso   1.000  C
  C39      1.0000 0.89490  0.96550  0.53576  Biso   1.000  C
  C40      1.0000 0.71550  0.85510  0.28576  Biso   1.000  C
  C41      1.0000 0.89490  0.46550  0.46424  Biso   1.000  C
  C42      1.0000 0.78450  0.64490  0.21424  Biso   1.000  C
  C43      1.0000 0.39490  0.96550  0.96424  Biso   1.000  C
  C44      1.0000 0.60510  0.53450  0.96424  Biso   1.000  C
  C45      1.0000 0.71550  0.85510  0.21424  Biso   1.000  C
  C46      1.0000 0.10510  0.03450  0.46424  Biso   1.000  C
  C47      1.0000 0.10510  0.53450  0.53576  Biso   1.000  C
  C48      1.0000 0.60510  0.03450  0.03576  Biso   1.000  C
  H25      1.0000 0.40070  0.53360  0.03300  Biso   1.000  H
  H26      1.0000 0.71640  0.65070  0.28300  Biso   1.000  H
  H27      1.0000 0.90070  0.03360  0.53300  Biso   1.000  H
  H28      1.0000 0.78360  0.84930  0.28300  Biso   1.000  H
  H29      1.0000 0.90070  0.53360  0.46700  Biso   1.000  H
  H30      1.0000 0.71640  0.65070  0.21700  Biso   1.000  H
  H31      1.0000 0.40070  0.03360  0.96700  Biso   1.000  H
  H32      1.0000 0.59930  0.46640  0.96700  Biso   1.000  H
  H33      1.0000 0.78360  0.84930  0.21700  Biso   1.000  H
  H34      1.0000 0.09930  0.96640  0.46700  Biso   1.000  H
  H35      1.0000 0.09930  0.46640  0.53300  Biso   1.000  H
  H36      1.0000 0.59930  0.96640  0.03300  Biso   1.000  H
  C49      1.0000 0.43280  0.42060  0.05991  Biso   1.000  C
  C50      1.0000 0.82940  0.68280  0.30991  Biso   1.000  C
  C51      1.0000 0.93280  0.92060  0.55991  Biso   1.000  C
  C52      1.0000 0.67060  0.81720  0.30991  Biso   1.000  C
  C53      1.0000 0.93280  0.42060  0.44009  Biso   1.000  C
  C54      1.0000 0.82940  0.68280  0.19009  Biso   1.000  C
  C55      1.0000 0.43280  0.92060  0.94009  Biso   1.000  C
  C56      1.0000 0.56720  0.57940  0.94009  Biso   1.000  C
  C57      1.0000 0.67060  0.81720  0.19009  Biso   1.000  C
  C58      1.0000 0.06720  0.07940  0.44009  Biso   1.000  C
  C59      1.0000 0.06720  0.57940  0.55991  Biso   1.000  C
  C60      1.0000 0.56720  0.07940  0.05991  Biso   1.000  C
  H37      1.0000 0.46500  0.46000  0.07340  Biso   1.000  H
  H38      1.0000 0.79000  0.71500  0.32340  Biso   1.000  H
  H39      1.0000 0.96500  0.96000  0.57340  Biso   1.000  H
  H40      1.0000 0.71000  0.78500  0.32340  Biso   1.000  H
  H41      1.0000 0.96500  0.46000  0.42660  Biso   1.000  H
  H42      1.0000 0.79000  0.71500  0.17660  Biso   1.000  H
  H43      1.0000 0.46500  0.96000  0.92660  Biso   1.000  H
  H44      1.0000 0.53500  0.54000  0.92660  Biso   1.000  H
  H45      1.0000 0.71000  0.78500  0.17660  Biso   1.000  H
  H46      1.0000 0.03500  0.04000  0.42660  Biso   1.000  H
  H47      1.0000 0.03500  0.54000  0.57340  Biso   1.000  H
  H48      1.0000 0.53500  0.04000  0.07340  Biso   1.000  H
  C61      1.0000 0.30990  0.44890  0.98841  Biso   1.000  C
  C62      1.0000 0.80110  0.55990  0.23841  Biso   1.000  C
  C63      1.0000 0.80990  0.94890  0.48841  Biso   1.000  C
  C64      1.0000 0.69890  0.94010  0.23841  Biso   1.000  C
  C65      1.0000 0.80990  0.44890  0.51159  Biso   1.000  C
  C66      1.0000 0.80110  0.55990  0.26159  Biso   1.000  C
  C67      1.0000 0.30990  0.94890  0.01159  Biso   1.000  C
  C68      1.0000 0.69010  0.55110  0.01159  Biso   1.000  C
  C69      1.0000 0.69890  0.94010  0.26159  Biso   1.000  C
  C70      1.0000 0.19010  0.05110  0.51159  Biso   1.000  C
  C71      1.0000 0.19010  0.55110  0.48841  Biso   1.000  C
  C72      1.0000 0.69010  0.05110  0.98841  Biso   1.000  C
  C73      1.0000 0.23600  0.44790  0.94823  Biso   1.000  C
  C74      1.0000 0.80210  0.48600  0.19823  Biso   1.000  C
  C75      1.0000 0.73600  0.94790  0.44823  Biso   1.000  C
  C76      1.0000 0.69790  0.01400  0.19823  Biso   1.000  C
  C77      1.0000 0.73600  0.44790  0.55177  Biso   1.000  C
  C78      1.0000 0.80210  0.48600  0.30177  Biso   1.000  C
  C79      1.0000 0.23600  0.94790  0.05177  Biso   1.000  C
  C80      1.0000 0.76400  0.55210  0.05177  Biso   1.000  C
  C81      1.0000 0.69790  0.01400  0.30177  Biso   1.000  C
  C82      1.0000 0.26400  0.05210  0.55177  Biso   1.000  C
  C83      1.0000 0.26400  0.55210  0.44823  Biso   1.000  C
  C84      1.0000 0.76400  0.05210  0.94823  Biso   1.000  C
  C85      1.0000 0.18440  0.40230  0.92395  Biso   1.000  C
  C86      1.0000 0.84770  0.43440  0.17395  Biso   1.000  C
  C87      1.0000 0.68440  0.90230  0.42395  Biso   1.000  C
  C88      1.0000 0.65230  0.06560  0.17395  Biso   1.000  C
  C89      1.0000 0.68440  0.40230  0.57605  Biso   1.000  C
  C90      1.0000 0.84770  0.43440  0.32605  Biso   1.000  C
  C91      1.0000 0.18440  0.90230  0.07605  Biso   1.000  C
  C92      1.0000 0.81560  0.59770  0.07605  Biso   1.000  C
  C93      1.0000 0.65230  0.06560  0.32605  Biso   1.000  C
  C94      1.0000 0.31560  0.09770  0.57605  Biso   1.000  C
  C95      1.0000 0.31560  0.59770  0.42395  Biso   1.000  C
  C96      1.0000 0.81560  0.09770  0.92395  Biso   1.000  C
  C97      1.0000 0.16810  0.30010  0.92297  Biso   1.000  C
  C98      1.0000 0.94990  0.41810  0.17297  Biso   1.000  C
  C99      1.0000 0.66810  0.80010  0.42297  Biso   1.000  C
  C100     1.0000 0.55010  0.08190  0.17297  Biso   1.000  C
  C101     1.0000 0.66810  0.30010  0.57703  Biso   1.000  C
  C102     1.0000 0.94990  0.41810  0.32703  Biso   1.000  C
  C103     1.0000 0.16810  0.80010  0.07703  Biso   1.000  C
  C104     1.0000 0.83190  0.69990  0.07703  Biso   1.000  C
  C105     1.0000 0.55010  0.08190  0.32703  Biso   1.000  C
  C106     1.0000 0.33190  0.19990  0.57703  Biso   1.000  C
  C107     1.0000 0.33190  0.69990  0.42297  Biso   1.000  C
  C108     1.0000 0.83190  0.19990  0.92297  Biso   1.000  C
  H49      1.0000 0.19080  0.25950  0.93780  Biso   1.000  H
  H50      1.0000 0.99050  0.44080  0.18780  Biso   1.000  H
  H51      1.0000 0.69080  0.75950  0.43780  Biso   1.000  H
  H52      1.0000 0.50950  0.05920  0.18780  Biso   1.000  H
  H53      1.0000 0.69080  0.25950  0.56220  Biso   1.000  H
  H54      1.0000 0.99050  0.44080  0.31220  Biso   1.000  H
  H55      1.0000 0.19080  0.75950  0.06220  Biso   1.000  H
  H56      1.0000 0.80920  0.74050  0.06220  Biso   1.000  H
  H57      1.0000 0.50950  0.05920  0.31220  Biso   1.000  H
  H58      1.0000 0.30920  0.24050  0.56220  Biso   1.000  H
  H59      1.0000 0.30920  0.74050  0.43780  Biso   1.000  H
  H60      1.0000 0.80920  0.24050  0.93780  Biso   1.000  H
  C109     1.0000 0.11810  0.25990  0.89998  Biso   1.000  C
  C110     1.0000 0.99010  0.36810  0.14998  Biso   1.000  C
  C111     1.0000 0.61810  0.75990  0.39998  Biso   1.000  C
  C112     1.0000 0.50990  0.13190  0.14998  Biso   1.000  C
  C113     1.0000 0.61810  0.25990  0.60002  Biso   1.000  C
  C114     1.0000 0.99010  0.36810  0.35002  Biso   1.000  C
  C115     1.0000 0.11810  0.75990  0.10002  Biso   1.000  C
  C116     1.0000 0.88190  0.74010  0.10002  Biso   1.000  C
  C117     1.0000 0.50990  0.13190  0.35002  Biso   1.000  C
  C118     1.0000 0.38190  0.24010  0.60002  Biso   1.000  C
  C119     1.0000 0.38190  0.74010  0.39998  Biso   1.000  C
  C120     1.0000 0.88190  0.24010  0.89998  Biso   1.000  C
  H61      1.0000 0.10800  0.19160  0.89930  Biso   1.000  H
  H62      1.0000 0.05840  0.35800  0.14930  Biso   1.000  H
  H63      1.0000 0.60800  0.69160  0.39930  Biso   1.000  H
  H64      1.0000 0.44160  0.14200  0.14930  Biso   1.000  H
  H65      1.0000 0.60800  0.19160  0.60070  Biso   1.000  H
  H66      1.0000 0.05840  0.35800  0.35070  Biso   1.000  H
  H67      1.0000 0.10800  0.69160  0.10070  Biso   1.000  H
  H68      1.0000 0.89200  0.80840  0.10070  Biso   1.000  H
  H69      1.0000 0.44160  0.14200  0.35070  Biso   1.000  H
  H70      1.0000 0.39200  0.30840  0.60070  Biso   1.000  H
  H71      1.0000 0.39200  0.80840  0.39930  Biso   1.000  H
  H72      1.0000 0.89200  0.30840  0.89930  Biso   1.000  H
  C121     1.0000 0.09800  0.41370  0.87943  Biso   1.000  C
  C122     1.0000 0.83630  0.34800  0.12943  Biso   1.000  C
  C123     1.0000 0.59800  0.91370  0.37943  Biso   1.000  C
  C124     1.0000 0.66370  0.15200  0.12943  Biso   1.000  C
  C125     1.0000 0.59800  0.41370  0.62057  Biso   1.000  C
  C126     1.0000 0.83630  0.34800  0.37057  Biso   1.000  C
  C127     1.0000 0.09800  0.91370  0.12057  Biso   1.000  C
  C128     1.0000 0.90200  0.58630  0.12057  Biso   1.000  C
  C129     1.0000 0.66370  0.15200  0.37057  Biso   1.000  C
  C130     1.0000 0.40200  0.08630  0.62057  Biso   1.000  C
  C131     1.0000 0.40200  0.58630  0.37943  Biso   1.000  C
  C132     1.0000 0.90200  0.08630  0.87943  Biso   1.000  C
  H73      1.0000 0.07450  0.45250  0.86430  Biso   1.000  H
  H74      1.0000 0.79750  0.32450  0.11430  Biso   1.000  H
  H75      1.0000 0.57450  0.95250  0.36430  Biso   1.000  H
  H76      1.0000 0.70250  0.17550  0.11430  Biso   1.000  H
  H77      1.0000 0.57450  0.45250  0.63570  Biso   1.000  H
  H78      1.0000 0.79750  0.32450  0.38570  Biso   1.000  H
  H79      1.0000 0.07450  0.95250  0.13570  Biso   1.000  H
  H80      1.0000 0.92550  0.54750  0.13570  Biso   1.000  H
  H81      1.0000 0.70250  0.17550  0.38570  Biso   1.000  H
  H82      1.0000 0.42550  0.04750  0.63570  Biso   1.000  H
  H83      1.0000 0.42550  0.54750  0.36430  Biso   1.000  H
  H84      1.0000 0.92550  0.04750  0.86430  Biso   1.000  H
  C133     1.0000 0.14640  0.46080  0.90180  Biso   1.000  C
  C134     1.0000 0.78920  0.39640  0.15180  Biso   1.000  C
  C135     1.0000 0.64640  0.96080  0.40180  Biso   1.000  C
  C136     1.0000 0.71080  0.10360  0.15180  Biso   1.000  C
  C137     1.0000 0.64640  0.46080  0.59820  Biso   1.000  C
  C138     1.0000 0.78920  0.39640  0.34820  Biso   1.000  C
  C139     1.0000 0.14640  0.96080  0.09820  Biso   1.000  C
  C140     1.0000 0.85360  0.53920  0.09820  Biso   1.000  C
  C141     1.0000 0.71080  0.10360  0.34820  Biso   1.000  C
  C142     1.0000 0.35360  0.03920  0.59820  Biso   1.000  C
  C143     1.0000 0.35360  0.53920  0.40180  Biso   1.000  C
  C144     1.0000 0.85360  0.03920  0.90180  Biso   1.000  C
  H85      1.0000 0.15350  0.52950  0.90210  Biso   1.000  H
  H86      1.0000 0.72050  0.40350  0.15210  Biso   1.000  H
  H87      1.0000 0.65350  0.02950  0.40210  Biso   1.000  H
  H88      1.0000 0.77950  0.09650  0.15210  Biso   1.000  H
  H89      1.0000 0.65350  0.52950  0.59790  Biso   1.000  H
  H90      1.0000 0.72050  0.40350  0.34790  Biso   1.000  H
  H91      1.0000 0.15350  0.02950  0.09790  Biso   1.000  H
  H92      1.0000 0.84650  0.47050  0.09790  Biso   1.000  H
  H93      1.0000 0.77950  0.09650  0.34790  Biso   1.000  H
  H94      1.0000 0.34650  0.97050  0.59790  Biso   1.000  H
  H95      1.0000 0.34650  0.47050  0.40210  Biso   1.000  H
  H96      1.0000 0.84650  0.97050  0.90210  Biso   1.000  H
  P1       1.0000 0.50000  0.25000  0.93811  Biso   1.000  P
  P2       1.0000 0.00000  0.75000  0.18811  Biso   1.000  P
  P3       1.0000 0.00000  0.75000  0.43811  Biso   1.000  P
  P4       1.0000 0.50000  0.75000  0.18811  Biso   1.000  P
  P5       1.0000 0.00000  0.25000  0.56189  Biso   1.000  P
  P6       1.0000 0.00000  0.75000  0.31189  Biso   1.000  P
  P7       1.0000 0.50000  0.75000  0.06189  Biso   1.000  P
  P8       1.0000 0.50000  0.75000  0.31189  Biso   1.000  P
  F1       1.0000 0.54870  0.14520  0.94000  Biso   1.000  F
  F2       1.0000 0.10480  0.79870  0.19000  Biso   1.000  F
  F3       1.0000 0.04870  0.64520  0.44000  Biso   1.000  F
  F4       1.0000 0.39520  0.70130  0.19000  Biso   1.000  F
  F5       1.0000 0.04870  0.14520  0.56000  Biso   1.000  F
  F6       1.0000 0.10480  0.79870  0.31000  Biso   1.000  F
  F7       1.0000 0.54870  0.64520  0.06000  Biso   1.000  F
  F8       1.0000 0.45130  0.85480  0.06000  Biso   1.000  F
  F9       1.0000 0.39520  0.70130  0.31000  Biso   1.000  F
  F10      1.0000 0.95130  0.35480  0.56000  Biso   1.000  F
  F11      1.0000 0.95130  0.85480  0.44000  Biso   1.000  F
  F12      1.0000 0.45130  0.35480  0.94000  Biso   1.000  F
  F13      1.0000 0.60630  0.29530  0.94070  Biso   1.000  F
  F14      1.0000 0.95470  0.85630  0.19070  Biso   1.000  F
  F15      1.0000 0.10630  0.79530  0.44070  Biso   1.000  F
  F16      1.0000 0.54530  0.64370  0.19070  Biso   1.000  F
  F17      1.0000 0.10630  0.29530  0.55930  Biso   1.000  F
  F18      1.0000 0.95470  0.85630  0.30930  Biso   1.000  F
  F19      1.0000 0.60630  0.79530  0.05930  Biso   1.000  F
  F20      1.0000 0.39370  0.70470  0.05930  Biso   1.000  F
  F21      1.0000 0.54530  0.64370  0.30930  Biso   1.000  F
  F22      1.0000 0.89370  0.20470  0.55930  Biso   1.000  F
  F23      1.0000 0.89370  0.70470  0.44070  Biso   1.000  F
  F24      1.0000 0.39370  0.20470  0.94070  Biso   1.000  F
  F25      1.0000 0.51650  0.28540  0.96940  Biso   1.000  F
  F26      1.0000 0.96460  0.76650  0.21940  Biso   1.000  F
  F27      1.0000 0.01650  0.78540  0.46940  Biso   1.000  F
  F28      1.0000 0.53540  0.73350  0.21940  Biso   1.000  F
  F29      1.0000 0.01650  0.28540  0.53060  Biso   1.000  F
  F30      1.0000 0.96460  0.76650  0.28060  Biso   1.000  F
  F31      1.0000 0.51650  0.78540  0.03060  Biso   1.000  F
  F32      1.0000 0.48350  0.71460  0.03060  Biso   1.000  F
  F33      1.0000 0.53540  0.73350  0.28060  Biso   1.000  F
  F34      1.0000 0.98350  0.21460  0.53060  Biso   1.000  F
  F35      1.0000 0.98350  0.71460  0.46940  Biso   1.000  F
  F36      1.0000 0.48350  0.21460  0.96940  Biso   1.000  F
  O25      1.0000 0.39380  0.94200  0.12320  Biso   1.000  O
  O26      1.0000 0.30800  0.64380  0.37320  Biso   1.000  O
  O27      1.0000 0.89380  0.44200  0.62320  Biso   1.000  O
  O28      1.0000 0.19200  0.85620  0.37320  Biso   1.000  O
  O29      1.0000 0.89380  0.94200  0.37680  Biso   1.000  O
  O30      1.0000 0.30800  0.64380  0.12680  Biso   1.000  O
  O31      1.0000 0.39380  0.44200  0.87680  Biso   1.000  O
  O32      1.0000 0.60620  0.05800  0.87680  Biso   1.000  O
  O33      1.0000 0.19200  0.85620  0.12680  Biso   1.000  O
  O34      1.0000 0.10620  0.55800  0.37680  Biso   1.000  O
  O35      1.0000 0.10620  0.05800  0.62320  Biso   1.000  O
  O36      1.0000 0.60620  0.55800  0.12320  Biso   1.000  O
  P9       1.0000 0.11560  0.45930  0.07020  Biso   1.000  P
  P10      1.0000 0.79070  0.36560  0.32020  Biso   1.000  P
  P11      1.0000 0.61560  0.95930  0.57020  Biso   1.000  P
  P12      1.0000 0.70930  0.13440  0.32020  Biso   1.000  P
  P13      1.0000 0.61560  0.45930  0.42980  Biso   1.000  P
  P14      1.0000 0.79070  0.36560  0.17980  Biso   1.000  P
  P15      1.0000 0.11560  0.95930  0.92980  Biso   1.000  P
  P16      1.0000 0.88440  0.54070  0.92980  Biso   1.000  P
  P17      1.0000 0.70930  0.13440  0.17980  Biso   1.000  P
  P18      1.0000 0.38440  0.04070  0.42980  Biso   1.000  P
  P19      1.0000 0.38440  0.54070  0.57020  Biso   1.000  P
  P20      1.0000 0.88440  0.04070  0.07020  Biso   1.000  P
  O37      1.0000 0.00000  0.75000  0.87500  Biso   1.000  O
  O38      1.0000 0.50000  0.25000  0.12500  Biso   1.000  O
  O39      1.0000 0.50000  0.25000  0.37500  Biso   1.000  O
  O40      1.0000 0.00000  0.25000  0.12500  Biso   1.000  O
  O41      1.0000 0.50000  0.75000  0.62500  Biso   1.000  O
  O42      1.0000 0.00000  0.25000  0.37500  Biso   1.000  O
  F37      1.0000 0.50000  0.25000  0.90530  Biso   1.000  F
  F38      1.0000 0.00000  0.75000  0.15530  Biso   1.000  F
  F39      1.0000 0.00000  0.75000  0.40530  Biso   1.000  F
  F40      1.0000 0.50000  0.75000  0.15530  Biso   1.000  F
  F41      1.0000 0.00000  0.25000  0.59470  Biso   1.000  F
  F42      1.0000 0.00000  0.75000  0.34470  Biso   1.000  F
  F43      1.0000 0.50000  0.75000  0.09470  Biso   1.000  F
  F44      1.0000 0.50000  0.75000  0.34470  Biso   1.000  F
  F45      1.0000 0.13200  0.45300  0.03680  Biso   1.000  F
  F46      1.0000 0.79700  0.38200  0.28680  Biso   1.000  F
  F47      1.0000 0.63200  0.95300  0.53680  Biso   1.000  F
  F48      1.0000 0.70300  0.11800  0.28680  Biso   1.000  F
  F49      1.0000 0.63200  0.45300  0.46320  Biso   1.000  F
  F50      1.0000 0.79700  0.38200  0.21320  Biso   1.000  F
  F51      1.0000 0.13200  0.95300  0.96320  Biso   1.000  F
  F52      1.0000 0.86800  0.54700  0.96320  Biso   1.000  F
  F53      1.0000 0.70300  0.11800  0.21320  Biso   1.000  F
  F54      1.0000 0.36800  0.04700  0.46320  Biso   1.000  F
  F55      1.0000 0.36800  0.54700  0.53680  Biso   1.000  F
  F56      1.0000 0.86800  0.04700  0.03680  Biso   1.000  F
  F57      1.0000 0.01750  0.40000  0.06510  Biso   1.000  F
  F58      1.0000 0.85000  0.26750  0.31510  Biso   1.000  F
  F59      1.0000 0.51750  0.90000  0.56510  Biso   1.000  F
  F60      1.0000 0.65000  0.23250  0.31510  Biso   1.000  F
  F61      1.0000 0.51750  0.40000  0.43490  Biso   1.000  F
  F62      1.0000 0.85000  0.26750  0.18490  Biso   1.000  F
  F63      1.0000 0.01750  0.90000  0.93490  Biso   1.000  F
  F64      1.0000 0.98250  0.60000  0.93490  Biso   1.000  F
  F65      1.0000 0.65000  0.23250  0.18490  Biso   1.000  F
  F66      1.0000 0.48250  0.10000  0.43490  Biso   1.000  F
  F67      1.0000 0.48250  0.60000  0.56510  Biso   1.000  F
  F68      1.0000 0.98250  0.10000  0.06510  Biso   1.000  F
  F69      1.0000 0.10000  0.46500  0.10320  Biso   1.000  F
  F70      1.0000 0.78500  0.35000  0.35320  Biso   1.000  F
  F71      1.0000 0.60000  0.96500  0.60320  Biso   1.000  F
  F72      1.0000 0.71500  0.15000  0.35320  Biso   1.000  F
  F73      1.0000 0.60000  0.46500  0.39680  Biso   1.000  F
  F74      1.0000 0.78500  0.35000  0.14680  Biso   1.000  F
  F75      1.0000 0.10000  0.96500  0.89680  Biso   1.000  F
  F76      1.0000 0.90000  0.53500  0.89680  Biso   1.000  F
  F77      1.0000 0.71500  0.15000  0.14680  Biso   1.000  F
  F78      1.0000 0.40000  0.03500  0.39680  Biso   1.000  F
  F79      1.0000 0.40000  0.53500  0.60320  Biso   1.000  F
  F80      1.0000 0.90000  0.03500  0.10320  Biso   1.000  F
  F81      1.0000 0.21270  0.50600  0.08220  Biso   1.000  F
  F82      1.0000 0.74400  0.46270  0.33220  Biso   1.000  F
  F83      1.0000 0.71270  0.00600  0.58220  Biso   1.000  F
  F84      1.0000 0.75600  0.03730  0.33220  Biso   1.000  F
  F85      1.0000 0.71270  0.50600  0.41780  Biso   1.000  F
  F86      1.0000 0.74400  0.46270  0.16780  Biso   1.000  F
  F87      1.0000 0.21270  0.00600  0.91780  Biso   1.000  F
  F88      1.0000 0.78730  0.49400  0.91780  Biso   1.000  F
  F89      1.0000 0.75600  0.03730  0.16780  Biso   1.000  F
  F90      1.0000 0.28730  0.99400  0.41780  Biso   1.000  F
  F91      1.0000 0.28730  0.49400  0.58220  Biso   1.000  F
  F92      1.0000 0.78730  0.99400  0.08220  Biso   1.000  F
  F93      1.0000 0.17700  0.36160  0.07290  Biso   1.000  F
  F94      1.0000 0.88840  0.42700  0.32290  Biso   1.000  F
  F95      1.0000 0.67700  0.86160  0.57290  Biso   1.000  F
  F96      1.0000 0.61160  0.07300  0.32290  Biso   1.000  F
  F97      1.0000 0.67700  0.36160  0.42710  Biso   1.000  F
  F98      1.0000 0.88840  0.42700  0.17710  Biso   1.000  F
  F99      1.0000 0.17700  0.86160  0.92710  Biso   1.000  F
  F100     1.0000 0.82300  0.63840  0.92710  Biso   1.000  F
  F101     1.0000 0.61160  0.07300  0.17710  Biso   1.000  F
  F102     1.0000 0.32300  0.13840  0.42710  Biso   1.000  F
  F103     1.0000 0.32300  0.63840  0.57290  Biso   1.000  F
  F104     1.0000 0.82300  0.13840  0.07290  Biso   1.000  F
  F105     1.0000 0.06480  0.56230  0.06800  Biso   1.000  F
  F106     1.0000 0.68770  0.31480  0.31800  Biso   1.000  F
  F107     1.0000 0.56480  0.06230  0.56800  Biso   1.000  F
  F108     1.0000 0.81230  0.18520  0.31800  Biso   1.000  F
  F109     1.0000 0.56480  0.56230  0.43200  Biso   1.000  F
  F110     1.0000 0.68770  0.31480  0.18200  Biso   1.000  F
  F111     1.0000 0.06480  0.06230  0.93200  Biso   1.000  F
  F112     1.0000 0.93520  0.43770  0.93200  Biso   1.000  F
  F113     1.0000 0.81230  0.18520  0.18200  Biso   1.000  F
  F114     1.0000 0.43520  0.93770  0.43200  Biso   1.000  F
  F115     1.0000 0.43520  0.43770  0.56800  Biso   1.000  F
  F116     1.0000 0.93520  0.93770  0.06800  Biso   1.000  F
  F117     1.0000 0.89520  0.70130  0.19000  Biso   1.000  F
  F118     1.0000 0.60480  0.79870  0.19000  Biso   1.000  F
  F119     1.0000 0.89520  0.70130  0.31000  Biso   1.000  F
  F120     1.0000 0.60480  0.79870  0.31000  Biso   1.000  F
  F121     1.0000 0.04530  0.64370  0.19070  Biso   1.000  F
  F122     1.0000 0.45470  0.85630  0.19070  Biso   1.000  F
  F123     1.0000 0.04530  0.64370  0.30930  Biso   1.000  F
  F124     1.0000 0.45470  0.85630  0.30930  Biso   1.000  F
  F125     1.0000 0.03540  0.73350  0.21940  Biso   1.000  F
  F126     1.0000 0.46460  0.76650  0.21940  Biso   1.000  F
  F127     1.0000 0.03540  0.73350  0.28060  Biso   1.000  F
  F128     1.0000 0.46460  0.76650  0.28060  Biso   1.000  F
  O43      1.0000 0.87840  0.88670  0.34950  Biso   1.000  O
  O44      1.0000 0.62160  0.61330  0.34950  Biso   1.000  O
  O45      1.0000 0.87840  0.88670  0.15050  Biso   1.000  O
  O46      1.0000 0.62160  0.61330  0.15050  Biso   1.000  O
  N49      1.0000 0.07320  0.82420  0.31496  Biso   1.000  N
  N50      1.0000 0.42680  0.67580  0.31496  Biso   1.000  N
  N51      1.0000 0.07320  0.82420  0.18504  Biso   1.000  N
  N52      1.0000 0.42680  0.67580  0.18504  Biso   1.000  N
  O47      1.0000 0.36260  0.50800  0.22115  Biso   1.000  O
  O48      1.0000 0.74200  0.61260  0.47115  Biso   1.000  O
  O49      1.0000 0.86260  0.00800  0.72115  Biso   1.000  O
  O50      1.0000 0.36260  0.00800  0.77885  Biso   1.000  O
  O51      1.0000 0.63740  0.49200  0.77885  Biso   1.000  O
  O52      1.0000 0.75800  0.88740  0.02885  Biso   1.000  O
  O53      1.0000 0.13740  0.99200  0.27885  Biso   1.000  O
  O54      1.0000 0.13740  0.49200  0.72115  Biso   1.000  O
  N53      1.0000 0.57420  0.67680  0.56496  Biso   1.000  N
  N54      1.0000 0.92680  0.17580  0.81496  Biso   1.000  N
  N55      1.0000 0.42680  0.17580  0.68504  Biso   1.000  N
  N56      1.0000 0.57320  0.32420  0.68504  Biso   1.000  N
  N57      1.0000 0.92580  0.82320  0.93504  Biso   1.000  N
  N58      1.0000 0.07320  0.32420  0.81496  Biso   1.000  N
  N59      1.0000 0.21440  0.57210  0.22788  Biso   1.000  N
  N60      1.0000 0.67790  0.46440  0.47788  Biso   1.000  N
  N61      1.0000 0.71440  0.07210  0.72788  Biso   1.000  N
  N62      1.0000 0.21440  0.07210  0.77212  Biso   1.000  N
  N63      1.0000 0.78560  0.42790  0.77212  Biso   1.000  N
  N64      1.0000 0.82210  0.03560  0.02212  Biso   1.000  N
  N65      1.0000 0.28560  0.92790  0.27212  Biso   1.000  N
  N66      1.0000 0.28560  0.42790  0.72788  Biso   1.000  N
  N67      1.0000 0.21730  0.52100  0.20107  Biso   1.000  N
  N68      1.0000 0.72900  0.46730  0.45107  Biso   1.000  N
  N69      1.0000 0.71730  0.02100  0.70107  Biso   1.000  N
  N70      1.0000 0.21730  0.02100  0.79893  Biso   1.000  N
  N71      1.0000 0.78270  0.47900  0.79893  Biso   1.000  N
  N72      1.0000 0.77100  0.03270  0.04893  Biso   1.000  N
  N73      1.0000 0.28270  0.97900  0.29893  Biso   1.000  N
  N74      1.0000 0.28270  0.47900  0.70107  Biso   1.000  N
  N75      1.0000 0.43220  0.33320  0.12824  Biso   1.000  N
  N76      1.0000 0.91680  0.68220  0.37824  Biso   1.000  N
  N77      1.0000 0.93220  0.83320  0.62824  Biso   1.000  N
  N78      1.0000 0.43220  0.83320  0.87176  Biso   1.000  N
  N79      1.0000 0.56780  0.66680  0.87176  Biso   1.000  N
  N80      1.0000 0.58320  0.81780  0.12176  Biso   1.000  N
  N81      1.0000 0.06780  0.16680  0.37176  Biso   1.000  N
  N82      1.0000 0.06780  0.66680  0.62824  Biso   1.000  N
  C145     1.0000 0.48290  0.62840  0.29511  Biso   1.000  C
  C146     1.0000 0.62160  0.73290  0.54511  Biso   1.000  C
  C147     1.0000 0.98290  0.12840  0.79511  Biso   1.000  C
  C148     1.0000 0.48290  0.12840  0.70489  Biso   1.000  C
  C149     1.0000 0.51710  0.37160  0.70489  Biso   1.000  C
  C150     1.0000 0.87840  0.76710  0.95489  Biso   1.000  C
  C151     1.0000 0.01710  0.87160  0.20489  Biso   1.000  C
  C152     1.0000 0.01710  0.37160  0.79511  Biso   1.000  C
  H97      1.0000 0.55080  0.62230  0.29830  Biso   1.000  H
  H98      1.0000 0.62770  0.80080  0.54830  Biso   1.000  H
  H99      1.0000 0.05080  0.12230  0.79830  Biso   1.000  H
  H100     1.0000 0.55080  0.12230  0.70170  Biso   1.000  H
  H101     1.0000 0.44920  0.37770  0.70170  Biso   1.000  H
  H102     1.0000 0.87230  0.69920  0.95170  Biso   1.000  H
  H103     1.0000 0.94920  0.87770  0.20170  Biso   1.000  H
  H104     1.0000 0.94920  0.37770  0.79830  Biso   1.000  H
  C153     1.0000 0.44380  0.58940  0.27058  Biso   1.000  C
  C154     1.0000 0.66060  0.69380  0.52058  Biso   1.000  C
  C155     1.0000 0.94380  0.08940  0.77058  Biso   1.000  C
  C156     1.0000 0.44380  0.08940  0.72942  Biso   1.000  C
  C157     1.0000 0.55620  0.41060  0.72942  Biso   1.000  C
  C158     1.0000 0.83940  0.80620  0.97942  Biso   1.000  C
  C159     1.0000 0.05620  0.91060  0.22942  Biso   1.000  C
  C160     1.0000 0.05620  0.41060  0.77058  Biso   1.000  C
  H105     1.0000 0.48440  0.55740  0.25730  Biso   1.000  H
  H106     1.0000 0.69260  0.73440  0.50730  Biso   1.000  H
  H107     1.0000 0.98440  0.05740  0.75730  Biso   1.000  H
  H108     1.0000 0.48440  0.05740  0.74270  Biso   1.000  H
  H109     1.0000 0.51560  0.44260  0.74270  Biso   1.000  H
  H110     1.0000 0.80740  0.76560  0.99270  Biso   1.000  H
  H111     1.0000 0.01560  0.94260  0.24270  Biso   1.000  H
  H112     1.0000 0.01560  0.44260  0.75730  Biso   1.000  H
  C161     1.0000 0.34380  0.59780  0.26574  Biso   1.000  C
  C162     1.0000 0.65220  0.59380  0.51574  Biso   1.000  C
  C163     1.0000 0.84380  0.09780  0.76574  Biso   1.000  C
  C164     1.0000 0.34380  0.09780  0.73426  Biso   1.000  C
  C165     1.0000 0.65620  0.40220  0.73426  Biso   1.000  C
  C166     1.0000 0.84780  0.90620  0.98426  Biso   1.000  C
  C167     1.0000 0.15620  0.90220  0.23426  Biso   1.000  C
  C168     1.0000 0.15620  0.40220  0.76574  Biso   1.000  C
  C169     1.0000 0.28450  0.64490  0.28576  Biso   1.000  C
  C170     1.0000 0.60510  0.53450  0.53576  Biso   1.000  C
  C171     1.0000 0.78450  0.14490  0.78576  Biso   1.000  C
  C172     1.0000 0.28450  0.14490  0.71424  Biso   1.000  C
  C173     1.0000 0.71550  0.35510  0.71424  Biso   1.000  C
  C174     1.0000 0.89490  0.96550  0.96424  Biso   1.000  C
  C175     1.0000 0.21550  0.85510  0.21424  Biso   1.000  C
  C176     1.0000 0.21550  0.35510  0.78576  Biso   1.000  C
  H113     1.0000 0.21640  0.65070  0.28300  Biso   1.000  H
  H114     1.0000 0.59930  0.46640  0.53300  Biso   1.000  H
  H115     1.0000 0.71640  0.15070  0.78300  Biso   1.000  H
  H116     1.0000 0.21640  0.15070  0.71700  Biso   1.000  H
  H117     1.0000 0.78360  0.34930  0.71700  Biso   1.000  H
  H118     1.0000 0.90070  0.03360  0.96700  Biso   1.000  H
  H119     1.0000 0.28360  0.84930  0.21700  Biso   1.000  H
  H120     1.0000 0.28360  0.34930  0.78300  Biso   1.000  H
  C177     1.0000 0.32940  0.68280  0.30991  Biso   1.000  C
  C178     1.0000 0.56720  0.57940  0.55991  Biso   1.000  C
  C179     1.0000 0.82940  0.18280  0.80991  Biso   1.000  C
  C180     1.0000 0.32940  0.18280  0.69009  Biso   1.000  C
  C181     1.0000 0.67060  0.31720  0.69009  Biso   1.000  C
  C182     1.0000 0.93280  0.92060  0.94009  Biso   1.000  C
  C183     1.0000 0.17060  0.81720  0.19009  Biso   1.000  C
  C184     1.0000 0.17060  0.31720  0.80991  Biso   1.000  C
  H121     1.0000 0.29000  0.71500  0.32340  Biso   1.000  H
  H122     1.0000 0.53500  0.54000  0.57340  Biso   1.000  H
  H123     1.0000 0.79000  0.21500  0.82340  Biso   1.000  H
  H124     1.0000 0.29000  0.21500  0.67660  Biso   1.000  H
  H125     1.0000 0.71000  0.28500  0.67660  Biso   1.000  H
  H126     1.0000 0.96500  0.96000  0.92660  Biso   1.000  H
  H127     1.0000 0.21000  0.78500  0.17660  Biso   1.000  H
  H128     1.0000 0.21000  0.28500  0.82340  Biso   1.000  H
  C185     1.0000 0.30110  0.55990  0.23841  Biso   1.000  C
  C186     1.0000 0.69010  0.55110  0.48841  Biso   1.000  C
  C187     1.0000 0.80110  0.05990  0.73841  Biso   1.000  C
  C188     1.0000 0.30110  0.05990  0.76159  Biso   1.000  C
  C189     1.0000 0.69890  0.44010  0.76159  Biso   1.000  C
  C190     1.0000 0.80990  0.94890  0.01159  Biso   1.000  C
  C191     1.0000 0.19890  0.94010  0.26159  Biso   1.000  C
  C192     1.0000 0.19890  0.44010  0.73841  Biso   1.000  C
  C193     1.0000 0.30210  0.48600  0.19823  Biso   1.000  C
  C194     1.0000 0.76400  0.55210  0.44823  Biso   1.000  C
  C195     1.0000 0.80210  0.98600  0.69823  Biso   1.000  C
  C196     1.0000 0.30210  0.98600  0.80177  Biso   1.000  C
  C197     1.0000 0.69790  0.51400  0.80177  Biso   1.000  C
  C198     1.0000 0.73600  0.94790  0.05177  Biso   1.000  C
  C199     1.0000 0.19790  0.01400  0.30177  Biso   1.000  C
  C200     1.0000 0.19790  0.51400  0.69823  Biso   1.000  C
  C201     1.0000 0.34770  0.43440  0.17395  Biso   1.000  C
  C202     1.0000 0.81560  0.59770  0.42395  Biso   1.000  C
  C203     1.0000 0.84770  0.93440  0.67395  Biso   1.000  C
  C204     1.0000 0.34770  0.93440  0.82605  Biso   1.000  C
  C205     1.0000 0.65230  0.56560  0.82605  Biso   1.000  C
  C206     1.0000 0.68440  0.90230  0.07605  Biso   1.000  C
  C207     1.0000 0.15230  0.06560  0.32605  Biso   1.000  C
  C208     1.0000 0.15230  0.56560  0.67395  Biso   1.000  C
  C209     1.0000 0.44990  0.41810  0.17297  Biso   1.000  C
  C210     1.0000 0.83190  0.69990  0.42297  Biso   1.000  C
  C211     1.0000 0.94990  0.91810  0.67297  Biso   1.000  C
  C212     1.0000 0.44990  0.91810  0.82703  Biso   1.000  C
  C213     1.0000 0.55010  0.58190  0.82703  Biso   1.000  C
  C214     1.0000 0.66810  0.80010  0.07703  Biso   1.000  C
  C215     1.0000 0.05010  0.08190  0.32703  Biso   1.000  C
  C216     1.0000 0.05010  0.58190  0.67297  Biso   1.000  C
  H129     1.0000 0.49050  0.44080  0.18780  Biso   1.000  H
  H130     1.0000 0.80920  0.74050  0.43780  Biso   1.000  H
  H131     1.0000 0.99050  0.94080  0.68780  Biso   1.000  H
  H132     1.0000 0.49050  0.94080  0.81220  Biso   1.000  H
  H133     1.0000 0.50950  0.55920  0.81220  Biso   1.000  H
  H134     1.0000 0.69080  0.75950  0.06220  Biso   1.000  H
  H135     1.0000 0.00950  0.05920  0.31220  Biso   1.000  H
  H136     1.0000 0.00950  0.55920  0.68780  Biso   1.000  H
  C217     1.0000 0.49010  0.36810  0.14998  Biso   1.000  C
  C218     1.0000 0.88190  0.74010  0.39998  Biso   1.000  C
  C219     1.0000 0.99010  0.86810  0.64998  Biso   1.000  C
  C220     1.0000 0.49010  0.86810  0.85002  Biso   1.000  C
  C221     1.0000 0.50990  0.63190  0.85002  Biso   1.000  C
  C222     1.0000 0.61810  0.75990  0.10002  Biso   1.000  C
  C223     1.0000 0.00990  0.13190  0.35002  Biso   1.000  C
  C224     1.0000 0.00990  0.63190  0.64998  Biso   1.000  C
  H137     1.0000 0.55840  0.35800  0.14930  Biso   1.000  H
  H138     1.0000 0.89200  0.80840  0.39930  Biso   1.000  H
  H139     1.0000 0.05840  0.85800  0.64930  Biso   1.000  H
  H140     1.0000 0.55840  0.85800  0.85070  Biso   1.000  H
  H141     1.0000 0.44160  0.64200  0.85070  Biso   1.000  H
  H142     1.0000 0.60800  0.69160  0.10070  Biso   1.000  H
  H143     1.0000 0.94160  0.14200  0.35070  Biso   1.000  H
  H144     1.0000 0.94160  0.64200  0.64930  Biso   1.000  H
  C225     1.0000 0.33630  0.34800  0.12943  Biso   1.000  C
  C226     1.0000 0.90200  0.58630  0.37943  Biso   1.000  C
  C227     1.0000 0.83630  0.84800  0.62943  Biso   1.000  C
  C228     1.0000 0.33630  0.84800  0.87057  Biso   1.000  C
  C229     1.0000 0.66370  0.65200  0.87057  Biso   1.000  C
  C230     1.0000 0.59800  0.91370  0.12057  Biso   1.000  C
  C231     1.0000 0.16370  0.15200  0.37057  Biso   1.000  C
  C232     1.0000 0.16370  0.65200  0.62943  Biso   1.000  C
  H145     1.0000 0.29750  0.32450  0.11430  Biso   1.000  H
  H146     1.0000 0.92550  0.54750  0.36430  Biso   1.000  H
  H147     1.0000 0.79750  0.82450  0.61430  Biso   1.000  H
  H148     1.0000 0.29750  0.82450  0.88570  Biso   1.000  H
  H149     1.0000 0.70250  0.67550  0.88570  Biso   1.000  H
  H150     1.0000 0.57450  0.95250  0.13570  Biso   1.000  H
  H151     1.0000 0.20250  0.17550  0.38570  Biso   1.000  H
  H152     1.0000 0.20250  0.67550  0.61430  Biso   1.000  H
  C233     1.0000 0.28920  0.39640  0.15180  Biso   1.000  C
  C234     1.0000 0.85360  0.53920  0.40180  Biso   1.000  C
  C235     1.0000 0.78920  0.89640  0.65180  Biso   1.000  C
  C236     1.0000 0.28920  0.89640  0.84820  Biso   1.000  C
  C237     1.0000 0.71080  0.60360  0.84820  Biso   1.000  C
  C238     1.0000 0.64640  0.96080  0.09820  Biso   1.000  C
  C239     1.0000 0.21080  0.10360  0.34820  Biso   1.000  C
  C240     1.0000 0.21080  0.60360  0.65180  Biso   1.000  C
  H153     1.0000 0.22050  0.40350  0.15210  Biso   1.000  H
  H154     1.0000 0.84650  0.47050  0.40210  Biso   1.000  H
  H155     1.0000 0.72050  0.90350  0.65210  Biso   1.000  H
  H156     1.0000 0.22050  0.90350  0.84790  Biso   1.000  H
  H157     1.0000 0.77950  0.59650  0.84790  Biso   1.000  H
  H158     1.0000 0.65350  0.02950  0.09790  Biso   1.000  H
  H159     1.0000 0.27950  0.09650  0.34790  Biso   1.000  H
  H160     1.0000 0.27950  0.59650  0.65210  Biso   1.000  H
  N83      1.0000 0.08320  0.81780  0.37824  Biso   1.000  N
  N84      1.0000 0.41680  0.68220  0.12176  Biso   1.000  N
  Cu9      1.0000 0.50000  0.75000  0.59702  Biso   1.000  Cu
  Cu10     1.0000 0.00000  0.25000  0.84702  Biso   1.000  Cu
  Cu11     1.0000 0.50000  0.25000  0.65298  Biso   1.000  Cu
  Cu12     1.0000 0.00000  0.75000  0.90298  Biso   1.000  Cu
  Cu13     1.0000 0.00000  0.25000  0.09702  Biso   1.000  Cu
  Cu14     1.0000 0.50000  0.25000  0.40298  Biso   1.000  Cu
  N85      1.0000 0.42580  0.82320  0.56496  Biso   1.000  N
  N86      1.0000 0.07420  0.67680  0.93504  Biso   1.000  N
  N87      1.0000 0.43220  0.83320  0.62824  Biso   1.000  N
  N88      1.0000 0.06780  0.66680  0.87176  Biso   1.000  N
  N89      1.0000 0.56780  0.66680  0.62824  Biso   1.000  N
  N90      1.0000 0.93220  0.83320  0.87176  Biso   1.000  N
