data_image0
_cell_length_a       15.4248
_cell_length_b       18.0823
_cell_length_c       27.1481
_cell_angle_alpha    90
_cell_angle_beta     90
_cell_angle_gamma    90

_symmetry_space_group_name_H-M    "P 1"
_symmetry_int_tables_number       1

loop_
  _symmetry_equiv_pos_as_xyz
  'x, y, z'

loop_
  _atom_site_label
  _atom_site_occupancy
  _atom_site_fract_x
  _atom_site_fract_y
  _atom_site_fract_z
  _atom_site_thermal_displace_type
  _atom_site_B_iso_or_equiv
  _atom_site_type_symbol
  Cu1      1.0000 0.96946  0.56166  0.22389  Biso   1.000  Cu
  Cu2      1.0000 0.53054  0.43834  0.72389  Biso   1.000  Cu
  Cu3      1.0000 0.03054  0.06167  0.27611  Biso   1.000  Cu
  Cu4      1.0000 0.46946  0.93834  0.77611  Biso   1.000  Cu
  Cu5      1.0000 0.03054  0.43834  0.77611  Biso   1.000  Cu
  Cu6      1.0000 0.46946  0.56166  0.27611  Biso   1.000  Cu
  Cu7      1.0000 0.96946  0.93834  0.72389  Biso   1.000  Cu
  Cu8      1.0000 0.53054  0.06167  0.22389  Biso   1.000  Cu
  Cu9      1.0000 0.92407  0.30759  0.26054  Biso   1.000  Cu
  Cu10     1.0000 0.57593  0.69241  0.76054  Biso   1.000  Cu
  Cu11     1.0000 0.07593  0.80759  0.23946  Biso   1.000  Cu
  Cu12     1.0000 0.42407  0.19241  0.73946  Biso   1.000  Cu
  Cu13     1.0000 0.07593  0.69241  0.73946  Biso   1.000  Cu
  Cu14     1.0000 0.42407  0.30759  0.23946  Biso   1.000  Cu
  Cu15     1.0000 0.92407  0.19241  0.76054  Biso   1.000  Cu
  Cu16     1.0000 0.57593  0.80759  0.26054  Biso   1.000  Cu
  Br1      1.0000 0.75257  0.78690  0.03260  Biso   1.000  Br
  Br2      1.0000 0.74743  0.21310  0.53260  Biso   1.000  Br
  Br3      1.0000 0.24743  0.28690  0.46740  Biso   1.000  Br
  Br4      1.0000 0.25257  0.71310  0.96740  Biso   1.000  Br
  Br5      1.0000 0.24743  0.21310  0.96740  Biso   1.000  Br
  Br6      1.0000 0.25257  0.78690  0.46740  Biso   1.000  Br
  Br7      1.0000 0.75257  0.71310  0.53260  Biso   1.000  Br
  Br8      1.0000 0.74743  0.28690  0.03260  Biso   1.000  Br
  Br9      1.0000 0.76472  0.51506  0.47652  Biso   1.000  Br
  Br10     1.0000 0.73528  0.48494  0.97652  Biso   1.000  Br
  Br11     1.0000 0.23528  0.01506  0.02348  Biso   1.000  Br
  Br12     1.0000 0.26472  0.98494  0.52348  Biso   1.000  Br
  Br13     1.0000 0.23528  0.48494  0.52348  Biso   1.000  Br
  Br14     1.0000 0.26472  0.51506  0.02348  Biso   1.000  Br
  Br15     1.0000 0.76472  0.98494  0.97652  Biso   1.000  Br
  Br16     1.0000 0.73528  0.01506  0.47652  Biso   1.000  Br
  S1       1.0000 0.79098  0.65012  0.27897  Biso   1.000  S
  S2       1.0000 0.70902  0.34988  0.77897  Biso   1.000  S
  S3       1.0000 0.20902  0.15012  0.22103  Biso   1.000  S
  S4       1.0000 0.29098  0.84988  0.72103  Biso   1.000  S
  S5       1.0000 0.20902  0.34988  0.72103  Biso   1.000  S
  S6       1.0000 0.29098  0.65012  0.22103  Biso   1.000  S
  S7       1.0000 0.79098  0.84988  0.77897  Biso   1.000  S
  S8       1.0000 0.70902  0.15012  0.27897  Biso   1.000  S
  S9       1.0000 0.70962  0.36871  0.21306  Biso   1.000  S
  S10      1.0000 0.79038  0.63129  0.71306  Biso   1.000  S
  S11      1.0000 0.29038  0.86871  0.28694  Biso   1.000  S
  S12      1.0000 0.20962  0.13129  0.78694  Biso   1.000  S
  S13      1.0000 0.29038  0.63129  0.78694  Biso   1.000  S
  S14      1.0000 0.20962  0.36871  0.28694  Biso   1.000  S
  S15      1.0000 0.70962  0.13129  0.71306  Biso   1.000  S
  S16      1.0000 0.79038  0.86871  0.21306  Biso   1.000  S
  O1       1.0000 0.89406  0.55265  0.16880  Biso   1.000  O
  O2       1.0000 0.60594  0.44735  0.66880  Biso   1.000  O
  O3       1.0000 0.10594  0.05265  0.33120  Biso   1.000  O
  O4       1.0000 0.39406  0.94735  0.83120  Biso   1.000  O
  O5       1.0000 0.10594  0.44735  0.83120  Biso   1.000  O
  O6       1.0000 0.39406  0.55265  0.33120  Biso   1.000  O
  O7       1.0000 0.89406  0.94735  0.66880  Biso   1.000  O
  O8       1.0000 0.60594  0.05265  0.16880  Biso   1.000  O
  O9       1.0000 0.05498  0.58077  0.27553  Biso   1.000  O
  O10      1.0000 0.44502  0.41923  0.77553  Biso   1.000  O
  O11      1.0000 0.94502  0.08077  0.22447  Biso   1.000  O
  O12      1.0000 0.55498  0.91923  0.72447  Biso   1.000  O
  O13      1.0000 0.94502  0.41923  0.72447  Biso   1.000  O
  O14      1.0000 0.55498  0.58077  0.22447  Biso   1.000  O
  O15      1.0000 0.05498  0.91923  0.77553  Biso   1.000  O
  O16      1.0000 0.44502  0.08077  0.27553  Biso   1.000  O
  O17      1.0000 0.85800  0.58915  0.28134  Biso   1.000  O
  O18      1.0000 0.64200  0.41085  0.78134  Biso   1.000  O
  O19      1.0000 0.14200  0.08915  0.21866  Biso   1.000  O
  O20      1.0000 0.35800  0.91085  0.71866  Biso   1.000  O
  O21      1.0000 0.14200  0.41085  0.71866  Biso   1.000  O
  O22      1.0000 0.35800  0.58915  0.21866  Biso   1.000  O
  O23      1.0000 0.85800  0.91085  0.78134  Biso   1.000  O
  O24      1.0000 0.64200  0.08915  0.28134  Biso   1.000  O
  O25      1.0000 0.87634  0.29122  0.32450  Biso   1.000  O
  O26      1.0000 0.62366  0.70878  0.82450  Biso   1.000  O
  O27      1.0000 0.12366  0.79122  0.17550  Biso   1.000  O
  O28      1.0000 0.37634  0.20878  0.67550  Biso   1.000  O
  O29      1.0000 0.12366  0.70878  0.67550  Biso   1.000  O
  O30      1.0000 0.37634  0.29122  0.17550  Biso   1.000  O
  O31      1.0000 0.87634  0.20878  0.82450  Biso   1.000  O
  O32      1.0000 0.62366  0.79122  0.32450  Biso   1.000  O
  O33      1.0000 0.98524  0.33377  0.20069  Biso   1.000  O
  O34      1.0000 0.51476  0.66623  0.70069  Biso   1.000  O
  O35      1.0000 0.01476  0.83377  0.29931  Biso   1.000  O
  O36      1.0000 0.48524  0.16623  0.79931  Biso   1.000  O
  O37      1.0000 0.01476  0.66623  0.79931  Biso   1.000  O
  O38      1.0000 0.48524  0.33377  0.29931  Biso   1.000  O
  O39      1.0000 0.98524  0.16623  0.70069  Biso   1.000  O
  O40      1.0000 0.51476  0.83377  0.20069  Biso   1.000  O
  O41      1.0000 0.78272  0.32096  0.22947  Biso   1.000  O
  O42      1.0000 0.71728  0.67904  0.72947  Biso   1.000  O
  O43      1.0000 0.21728  0.82096  0.27053  Biso   1.000  O
  O44      1.0000 0.28272  0.17904  0.77053  Biso   1.000  O
  O45      1.0000 0.21728  0.67904  0.77053  Biso   1.000  O
  O46      1.0000 0.28272  0.32096  0.27053  Biso   1.000  O
  O47      1.0000 0.78272  0.17904  0.72947  Biso   1.000  O
  O48      1.0000 0.71728  0.82096  0.22947  Biso   1.000  O
  N1       1.0000 0.98890  0.66666  0.21296  Biso   1.000  N
  N2       1.0000 0.51110  0.33334  0.71296  Biso   1.000  N
  N3       1.0000 0.01110  0.16666  0.28704  Biso   1.000  N
  N4       1.0000 0.48890  0.83334  0.78704  Biso   1.000  N
  N5       1.0000 0.01110  0.33334  0.78704  Biso   1.000  N
  N6       1.0000 0.48890  0.66666  0.28704  Biso   1.000  N
  N7       1.0000 0.98890  0.83334  0.71296  Biso   1.000  N
  N8       1.0000 0.51110  0.16666  0.21296  Biso   1.000  N
  N9       1.0000 0.04580  0.69961  0.24674  Biso   1.000  N
  N10      1.0000 0.45420  0.30039  0.74674  Biso   1.000  N
  N11      1.0000 0.95420  0.19961  0.25326  Biso   1.000  N
  N12      1.0000 0.54580  0.80039  0.75326  Biso   1.000  N
  N13      1.0000 0.95420  0.30039  0.75326  Biso   1.000  N
  N14      1.0000 0.54580  0.69961  0.25326  Biso   1.000  N
  N15      1.0000 0.04580  0.80039  0.74674  Biso   1.000  N
  N16      1.0000 0.45420  0.19961  0.24674  Biso   1.000  N
  N17      1.0000 0.93961  0.41311  0.27169  Biso   1.000  N
  N18      1.0000 0.56039  0.58689  0.77169  Biso   1.000  N
  N19      1.0000 0.06039  0.91311  0.22831  Biso   1.000  N
  N20      1.0000 0.43961  0.08689  0.72831  Biso   1.000  N
  N21      1.0000 0.06039  0.58689  0.72831  Biso   1.000  N
  N22      1.0000 0.43961  0.41311  0.22831  Biso   1.000  N
  N23      1.0000 0.93961  0.08689  0.77169  Biso   1.000  N
  N24      1.0000 0.56039  0.91311  0.27169  Biso   1.000  N
  N25      1.0000 0.97710  0.45149  0.23160  Biso   1.000  N
  N26      1.0000 0.52290  0.54851  0.73160  Biso   1.000  N
  N27      1.0000 0.02290  0.95149  0.26840  Biso   1.000  N
  N28      1.0000 0.47710  0.04851  0.76840  Biso   1.000  N
  N29      1.0000 0.02290  0.54851  0.76840  Biso   1.000  N
  N30      1.0000 0.47710  0.45149  0.26840  Biso   1.000  N
  N31      1.0000 0.97710  0.04851  0.73160  Biso   1.000  N
  N32      1.0000 0.52290  0.95149  0.23160  Biso   1.000  N
  C1       1.0000 0.86507  0.60598  0.14075  Biso   1.000  C
  C2       1.0000 0.63493  0.39402  0.64075  Biso   1.000  C
  C3       1.0000 0.13493  0.10598  0.35925  Biso   1.000  C
  C4       1.0000 0.36507  0.89402  0.85925  Biso   1.000  C
  C5       1.0000 0.13493  0.39402  0.85925  Biso   1.000  C
  C6       1.0000 0.36507  0.60598  0.35925  Biso   1.000  C
  C7       1.0000 0.86507  0.89402  0.64075  Biso   1.000  C
  C8       1.0000 0.63493  0.10598  0.14075  Biso   1.000  C
  C9       1.0000 0.80648  0.58846  0.10250  Biso   1.000  C
  C10      1.0000 0.69352  0.41154  0.60250  Biso   1.000  C
  C11      1.0000 0.19352  0.08846  0.39750  Biso   1.000  C
  C12      1.0000 0.30648  0.91154  0.89750  Biso   1.000  C
  C13      1.0000 0.19352  0.41154  0.89750  Biso   1.000  C
  C14      1.0000 0.30648  0.58846  0.39750  Biso   1.000  C
  C15      1.0000 0.80648  0.91154  0.60250  Biso   1.000  C
  C16      1.0000 0.69352  0.08846  0.10250  Biso   1.000  C
  H1       1.0000 0.78960  0.53830  0.09820  Biso   1.000  H
  H2       1.0000 0.71040  0.46170  0.59820  Biso   1.000  H
  H3       1.0000 0.21040  0.03830  0.40180  Biso   1.000  H
  H4       1.0000 0.28960  0.96170  0.90180  Biso   1.000  H
  H5       1.0000 0.21040  0.46170  0.90180  Biso   1.000  H
  H6       1.0000 0.28960  0.53830  0.40180  Biso   1.000  H
  H7       1.0000 0.78960  0.96170  0.59820  Biso   1.000  H
  H8       1.0000 0.71040  0.03830  0.09820  Biso   1.000  H
  C17      1.0000 0.77288  0.64102  0.07122  Biso   1.000  C
  C18      1.0000 0.72712  0.35898  0.57122  Biso   1.000  C
  C19      1.0000 0.22712  0.14102  0.42878  Biso   1.000  C
  C20      1.0000 0.27288  0.85898  0.92878  Biso   1.000  C
  C21      1.0000 0.22712  0.35898  0.92878  Biso   1.000  C
  C22      1.0000 0.27288  0.64102  0.42878  Biso   1.000  C
  C23      1.0000 0.77288  0.85898  0.57122  Biso   1.000  C
  C24      1.0000 0.72712  0.14102  0.07122  Biso   1.000  C
  H9       1.0000 0.73330  0.62730  0.04600  Biso   1.000  H
  H10      1.0000 0.76670  0.37270  0.54600  Biso   1.000  H
  H11      1.0000 0.26670  0.12730  0.45400  Biso   1.000  H
  H12      1.0000 0.23330  0.87270  0.95400  Biso   1.000  H
  H13      1.0000 0.26670  0.37270  0.95400  Biso   1.000  H
  H14      1.0000 0.23330  0.62730  0.45400  Biso   1.000  H
  H15      1.0000 0.73330  0.87270  0.54600  Biso   1.000  H
  H16      1.0000 0.76670  0.12730  0.04600  Biso   1.000  H
  C25      1.0000 0.79769  0.71490  0.07691  Biso   1.000  C
  C26      1.0000 0.70231  0.28510  0.57691  Biso   1.000  C
  C27      1.0000 0.20231  0.21490  0.42309  Biso   1.000  C
  C28      1.0000 0.29769  0.78510  0.92309  Biso   1.000  C
  C29      1.0000 0.20231  0.28510  0.92309  Biso   1.000  C
  C30      1.0000 0.29769  0.71490  0.42309  Biso   1.000  C
  C31      1.0000 0.79769  0.78510  0.57691  Biso   1.000  C
  C32      1.0000 0.70231  0.21490  0.07691  Biso   1.000  C
  C33      1.0000 0.85441  0.73515  0.11286  Biso   1.000  C
  C34      1.0000 0.64559  0.26485  0.61286  Biso   1.000  C
  C35      1.0000 0.14559  0.23515  0.38714  Biso   1.000  C
  C36      1.0000 0.35441  0.76485  0.88714  Biso   1.000  C
  C37      1.0000 0.14559  0.26485  0.88714  Biso   1.000  C
  C38      1.0000 0.35441  0.73515  0.38714  Biso   1.000  C
  C39      1.0000 0.85441  0.76485  0.61286  Biso   1.000  C
  C40      1.0000 0.64559  0.23515  0.11286  Biso   1.000  C
  H17      1.0000 0.87110  0.78550  0.11590  Biso   1.000  H
  H18      1.0000 0.62890  0.21450  0.61590  Biso   1.000  H
  H19      1.0000 0.12890  0.28550  0.38410  Biso   1.000  H
  H20      1.0000 0.37110  0.71450  0.88410  Biso   1.000  H
  H21      1.0000 0.12890  0.21450  0.88410  Biso   1.000  H
  H22      1.0000 0.37110  0.78550  0.38410  Biso   1.000  H
  H23      1.0000 0.87110  0.71450  0.61590  Biso   1.000  H
  H24      1.0000 0.62890  0.28550  0.11590  Biso   1.000  H
  C41      1.0000 0.88869  0.68209  0.14570  Biso   1.000  C
  C42      1.0000 0.61131  0.31791  0.64570  Biso   1.000  C
  C43      1.0000 0.11131  0.18209  0.35430  Biso   1.000  C
  C44      1.0000 0.38869  0.81791  0.85430  Biso   1.000  C
  C45      1.0000 0.11131  0.31791  0.85430  Biso   1.000  C
  C46      1.0000 0.38869  0.68209  0.35430  Biso   1.000  C
  C47      1.0000 0.88869  0.81791  0.64570  Biso   1.000  C
  C48      1.0000 0.61131  0.18209  0.14570  Biso   1.000  C
  C49      1.0000 0.94963  0.70880  0.18166  Biso   1.000  C
  C50      1.0000 0.55037  0.29120  0.68166  Biso   1.000  C
  C51      1.0000 0.05037  0.20880  0.31834  Biso   1.000  C
  C52      1.0000 0.44963  0.79120  0.81834  Biso   1.000  C
  C53      1.0000 0.05037  0.29120  0.81834  Biso   1.000  C
  C54      1.0000 0.44963  0.70880  0.31834  Biso   1.000  C
  C55      1.0000 0.94963  0.79120  0.68166  Biso   1.000  C
  C56      1.0000 0.55037  0.20880  0.18166  Biso   1.000  C
  H25      1.0000 0.96170  0.76030  0.18240  Biso   1.000  H
  H26      1.0000 0.53830  0.23970  0.68240  Biso   1.000  H
  H27      1.0000 0.03830  0.26030  0.31760  Biso   1.000  H
  H28      1.0000 0.46170  0.73970  0.81760  Biso   1.000  H
  H29      1.0000 0.03830  0.23970  0.81760  Biso   1.000  H
  H30      1.0000 0.46170  0.76030  0.31760  Biso   1.000  H
  H31      1.0000 0.96170  0.73970  0.68240  Biso   1.000  H
  H32      1.0000 0.53830  0.26030  0.18240  Biso   1.000  H
  C57      1.0000 0.07477  0.64957  0.27861  Biso   1.000  C
  C58      1.0000 0.42523  0.35043  0.77861  Biso   1.000  C
  C59      1.0000 0.92523  0.14957  0.22139  Biso   1.000  C
  C60      1.0000 0.57477  0.85043  0.72139  Biso   1.000  C
  C61      1.0000 0.92523  0.35043  0.72139  Biso   1.000  C
  C62      1.0000 0.57477  0.64957  0.22139  Biso   1.000  C
  C63      1.0000 0.07477  0.85043  0.77861  Biso   1.000  C
  C64      1.0000 0.42523  0.14957  0.27861  Biso   1.000  C
  C65      1.0000 0.13017  0.67472  0.32068  Biso   1.000  C
  C66      1.0000 0.36983  0.32528  0.82068  Biso   1.000  C
  C67      1.0000 0.86983  0.17472  0.17932  Biso   1.000  C
  C68      1.0000 0.63017  0.82528  0.67932  Biso   1.000  C
  C69      1.0000 0.86983  0.32528  0.67932  Biso   1.000  C
  C70      1.0000 0.63017  0.67472  0.17932  Biso   1.000  C
  C71      1.0000 0.13017  0.82528  0.82068  Biso   1.000  C
  C72      1.0000 0.36983  0.17472  0.32068  Biso   1.000  C
  H33      1.0000 0.16090  0.72060  0.31100  Biso   1.000  H
  H34      1.0000 0.33910  0.27940  0.81100  Biso   1.000  H
  H35      1.0000 0.83910  0.22060  0.18900  Biso   1.000  H
  H36      1.0000 0.66090  0.77940  0.68900  Biso   1.000  H
  H37      1.0000 0.83910  0.27940  0.68900  Biso   1.000  H
  H38      1.0000 0.66090  0.72060  0.18900  Biso   1.000  H
  H39      1.0000 0.16090  0.77940  0.81100  Biso   1.000  H
  H40      1.0000 0.33910  0.22060  0.31100  Biso   1.000  H
  H41      1.0000 0.17440  0.63640  0.32760  Biso   1.000  H
  H42      1.0000 0.32560  0.36360  0.82760  Biso   1.000  H
  H43      1.0000 0.82560  0.13640  0.17240  Biso   1.000  H
  H44      1.0000 0.67440  0.86360  0.67240  Biso   1.000  H
  H45      1.0000 0.82560  0.36360  0.67240  Biso   1.000  H
  H46      1.0000 0.67440  0.63640  0.17240  Biso   1.000  H
  H47      1.0000 0.17440  0.86360  0.82760  Biso   1.000  H
  H48      1.0000 0.32560  0.13640  0.32760  Biso   1.000  H
  C73      1.0000 0.07786  0.68948  0.36770  Biso   1.000  C
  C74      1.0000 0.42214  0.31052  0.86770  Biso   1.000  C
  C75      1.0000 0.92214  0.18948  0.13230  Biso   1.000  C
  C76      1.0000 0.57786  0.81052  0.63230  Biso   1.000  C
  C77      1.0000 0.92214  0.31052  0.63230  Biso   1.000  C
  C78      1.0000 0.57786  0.68948  0.13230  Biso   1.000  C
  C79      1.0000 0.07786  0.81052  0.86770  Biso   1.000  C
  C80      1.0000 0.42214  0.18948  0.36770  Biso   1.000  C
  H49      1.0000 0.11650  0.71330  0.39210  Biso   1.000  H
  H50      1.0000 0.38350  0.28670  0.89210  Biso   1.000  H
  H51      1.0000 0.88350  0.21330  0.10790  Biso   1.000  H
  H52      1.0000 0.61650  0.78670  0.60790  Biso   1.000  H
  H53      1.0000 0.88350  0.28670  0.60790  Biso   1.000  H
  H54      1.0000 0.61650  0.71330  0.10790  Biso   1.000  H
  H55      1.0000 0.11650  0.78670  0.89210  Biso   1.000  H
  H56      1.0000 0.38350  0.21330  0.39210  Biso   1.000  H
  H57      1.0000 0.03110  0.72510  0.35980  Biso   1.000  H
  H58      1.0000 0.46890  0.27490  0.85980  Biso   1.000  H
  H59      1.0000 0.96890  0.22510  0.14020  Biso   1.000  H
  H60      1.0000 0.53110  0.77490  0.64020  Biso   1.000  H
  H61      1.0000 0.96890  0.27490  0.64020  Biso   1.000  H
  H62      1.0000 0.53110  0.72510  0.14020  Biso   1.000  H
  H63      1.0000 0.03110  0.77490  0.85980  Biso   1.000  H
  H64      1.0000 0.46890  0.22510  0.35980  Biso   1.000  H
  C81      1.0000 0.03730  0.62157  0.39124  Biso   1.000  C
  C82      1.0000 0.46270  0.37843  0.89124  Biso   1.000  C
  C83      1.0000 0.96270  0.12157  0.10876  Biso   1.000  C
  C84      1.0000 0.53730  0.87843  0.60876  Biso   1.000  C
  C85      1.0000 0.96270  0.37843  0.60876  Biso   1.000  C
  C86      1.0000 0.53730  0.62157  0.10876  Biso   1.000  C
  C87      1.0000 0.03730  0.87843  0.89124  Biso   1.000  C
  C88      1.0000 0.46270  0.12157  0.39124  Biso   1.000  C
  H65      1.0000 0.07660  0.58050  0.38890  Biso   1.000  H
  H66      1.0000 0.42340  0.41950  0.88890  Biso   1.000  H
  H67      1.0000 0.92340  0.08050  0.11110  Biso   1.000  H
  H68      1.0000 0.57660  0.91950  0.61110  Biso   1.000  H
  H69      1.0000 0.92340  0.41950  0.61110  Biso   1.000  H
  H70      1.0000 0.57660  0.58050  0.11110  Biso   1.000  H
  H71      1.0000 0.07660  0.91950  0.88890  Biso   1.000  H
  H72      1.0000 0.42340  0.08050  0.38890  Biso   1.000  H
  H73      1.0000 0.98480  0.60880  0.37430  Biso   1.000  H
  H74      1.0000 0.51520  0.39120  0.87430  Biso   1.000  H
  H75      1.0000 0.01520  0.10880  0.12570  Biso   1.000  H
  H76      1.0000 0.48480  0.89120  0.62570  Biso   1.000  H
  H77      1.0000 0.01520  0.39120  0.62570  Biso   1.000  H
  H78      1.0000 0.48480  0.60880  0.12570  Biso   1.000  H
  H79      1.0000 0.98480  0.89120  0.87430  Biso   1.000  H
  H80      1.0000 0.51520  0.10880  0.37430  Biso   1.000  H
  C89      1.0000 0.97980  0.63870  0.43590  Biso   1.000  C
  C90      1.0000 0.52020  0.36130  0.93590  Biso   1.000  C
  C91      1.0000 0.02020  0.13870  0.06410  Biso   1.000  C
  C92      1.0000 0.47980  0.86130  0.56410  Biso   1.000  C
  C93      1.0000 0.02020  0.36130  0.56410  Biso   1.000  C
  C94      1.0000 0.47980  0.63870  0.06410  Biso   1.000  C
  C95      1.0000 0.97980  0.86130  0.93590  Biso   1.000  C
  C96      1.0000 0.52020  0.13870  0.43590  Biso   1.000  C
  H81      1.0000 0.94920  0.68630  0.43110  Biso   1.000  H
  H82      1.0000 0.55080  0.31370  0.93110  Biso   1.000  H
  H83      1.0000 0.05080  0.18630  0.06890  Biso   1.000  H
  H84      1.0000 0.44920  0.81370  0.56890  Biso   1.000  H
  H85      1.0000 0.05080  0.31370  0.56890  Biso   1.000  H
  H86      1.0000 0.44920  0.68630  0.06890  Biso   1.000  H
  H87      1.0000 0.94920  0.81370  0.93110  Biso   1.000  H
  H88      1.0000 0.55080  0.18630  0.43110  Biso   1.000  H
  H89      1.0000 0.93610  0.59920  0.44040  Biso   1.000  H
  H90      1.0000 0.56390  0.40080  0.94040  Biso   1.000  H
  H91      1.0000 0.06390  0.09920  0.05960  Biso   1.000  H
  H92      1.0000 0.43610  0.90080  0.55960  Biso   1.000  H
  H93      1.0000 0.06390  0.40080  0.55960  Biso   1.000  H
  H94      1.0000 0.43610  0.59920  0.05960  Biso   1.000  H
  H95      1.0000 0.93610  0.90080  0.94040  Biso   1.000  H
  H96      1.0000 0.56390  0.09920  0.44040  Biso   1.000  H
  C97      1.0000 0.03860  0.64310  0.48050  Biso   1.000  C
  C98      1.0000 0.46140  0.35690  0.98050  Biso   1.000  C
  C99      1.0000 0.96140  0.14310  0.01950  Biso   1.000  C
  C100     1.0000 0.53860  0.85690  0.51950  Biso   1.000  C
  C101     1.0000 0.96140  0.35690  0.51950  Biso   1.000  C
  C102     1.0000 0.53860  0.64310  0.01950  Biso   1.000  C
  C103     1.0000 0.03860  0.85690  0.98050  Biso   1.000  C
  C104     1.0000 0.46140  0.14310  0.48050  Biso   1.000  C
  H97      1.0000 0.08020  0.68420  0.47590  Biso   1.000  H
  H98      1.0000 0.41980  0.31580  0.97590  Biso   1.000  H
  H99      1.0000 0.91980  0.18420  0.02410  Biso   1.000  H
  H100     1.0000 0.58020  0.81580  0.52410  Biso   1.000  H
  H101     1.0000 0.91980  0.31580  0.52410  Biso   1.000  H
  H102     1.0000 0.58020  0.68420  0.02410  Biso   1.000  H
  H103     1.0000 0.08020  0.81580  0.97590  Biso   1.000  H
  H104     1.0000 0.41980  0.18420  0.47590  Biso   1.000  H
  H105     1.0000 0.07220  0.59670  0.48310  Biso   1.000  H
  H106     1.0000 0.42780  0.40330  0.98310  Biso   1.000  H
  H107     1.0000 0.92780  0.09670  0.01690  Biso   1.000  H
  H108     1.0000 0.57220  0.90330  0.51690  Biso   1.000  H
  H109     1.0000 0.92780  0.40330  0.51690  Biso   1.000  H
  H110     1.0000 0.57220  0.59670  0.01690  Biso   1.000  H
  H111     1.0000 0.07220  0.90330  0.98310  Biso   1.000  H
  H112     1.0000 0.42780  0.09670  0.48310  Biso   1.000  H
  C105     1.0000 0.98880  0.65540  0.52860  Biso   1.000  C
  C106     1.0000 0.51120  0.34460  0.02860  Biso   1.000  C
  C107     1.0000 0.01120  0.15540  0.97140  Biso   1.000  C
  C108     1.0000 0.48880  0.84460  0.47140  Biso   1.000  C
  C109     1.0000 0.01120  0.34460  0.47140  Biso   1.000  C
  C110     1.0000 0.48880  0.65540  0.97140  Biso   1.000  C
  C111     1.0000 0.98880  0.84460  0.02860  Biso   1.000  C
  C112     1.0000 0.51120  0.15540  0.52860  Biso   1.000  C
  H113     1.0000 0.02980  0.65850  0.55600  Biso   1.000  H
  H114     1.0000 0.47020  0.34150  0.05600  Biso   1.000  H
  H115     1.0000 0.97020  0.15850  0.94400  Biso   1.000  H
  H116     1.0000 0.52980  0.84150  0.44400  Biso   1.000  H
  H117     1.0000 0.97020  0.34150  0.44400  Biso   1.000  H
  H118     1.0000 0.52980  0.65850  0.94400  Biso   1.000  H
  H119     1.0000 0.02980  0.84150  0.05600  Biso   1.000  H
  H120     1.0000 0.47020  0.15850  0.55600  Biso   1.000  H
  H121     1.0000 0.94900  0.61390  0.53400  Biso   1.000  H
  H122     1.0000 0.55100  0.38610  0.03400  Biso   1.000  H
  H123     1.0000 0.05100  0.11390  0.96600  Biso   1.000  H
  H124     1.0000 0.44900  0.88610  0.46600  Biso   1.000  H
  H125     1.0000 0.05100  0.38610  0.46600  Biso   1.000  H
  H126     1.0000 0.44900  0.61390  0.96600  Biso   1.000  H
  H127     1.0000 0.94900  0.88610  0.03400  Biso   1.000  H
  H128     1.0000 0.55100  0.11390  0.53400  Biso   1.000  H
  H129     1.0000 0.95570  0.70150  0.52640  Biso   1.000  H
  H130     1.0000 0.54430  0.29850  0.02640  Biso   1.000  H
  H131     1.0000 0.04430  0.20150  0.97360  Biso   1.000  H
  H132     1.0000 0.45570  0.79850  0.47360  Biso   1.000  H
  H133     1.0000 0.04430  0.29850  0.47360  Biso   1.000  H
  H134     1.0000 0.45570  0.70150  0.97360  Biso   1.000  H
  H135     1.0000 0.95570  0.79850  0.02640  Biso   1.000  H
  H136     1.0000 0.54430  0.20150  0.52640  Biso   1.000  H
  C113     1.0000 0.83699  0.72662  0.31133  Biso   1.000  C
  C114     1.0000 0.66301  0.27338  0.81133  Biso   1.000  C
  C115     1.0000 0.16301  0.22662  0.18867  Biso   1.000  C
  C116     1.0000 0.33699  0.77338  0.68867  Biso   1.000  C
  C117     1.0000 0.16301  0.27338  0.68867  Biso   1.000  C
  C118     1.0000 0.33699  0.72662  0.18867  Biso   1.000  C
  C119     1.0000 0.83699  0.77338  0.81133  Biso   1.000  C
  C120     1.0000 0.66301  0.22662  0.31133  Biso   1.000  C
  H137     1.0000 0.88390  0.74820  0.29170  Biso   1.000  H
  H138     1.0000 0.61610  0.25180  0.79170  Biso   1.000  H
  H139     1.0000 0.11610  0.24820  0.20830  Biso   1.000  H
  H140     1.0000 0.38390  0.75180  0.70830  Biso   1.000  H
  H141     1.0000 0.11610  0.25180  0.70830  Biso   1.000  H
  H142     1.0000 0.38390  0.74820  0.20830  Biso   1.000  H
  H143     1.0000 0.88390  0.75180  0.79170  Biso   1.000  H
  H144     1.0000 0.61610  0.24820  0.29170  Biso   1.000  H
  H145     1.0000 0.86020  0.70960  0.34300  Biso   1.000  H
  H146     1.0000 0.63980  0.29040  0.84300  Biso   1.000  H
  H147     1.0000 0.13980  0.20960  0.15700  Biso   1.000  H
  H148     1.0000 0.36020  0.79040  0.65700  Biso   1.000  H
  H149     1.0000 0.13980  0.29040  0.65700  Biso   1.000  H
  H150     1.0000 0.36020  0.70960  0.15700  Biso   1.000  H
  H151     1.0000 0.86020  0.79040  0.84300  Biso   1.000  H
  H152     1.0000 0.63980  0.20960  0.34300  Biso   1.000  H
  H153     1.0000 0.79220  0.76400  0.31710  Biso   1.000  H
  H154     1.0000 0.70780  0.23600  0.81710  Biso   1.000  H
  H155     1.0000 0.20780  0.26400  0.18290  Biso   1.000  H
  H156     1.0000 0.29220  0.73600  0.68290  Biso   1.000  H
  H157     1.0000 0.20780  0.23600  0.68290  Biso   1.000  H
  H158     1.0000 0.29220  0.76400  0.18290  Biso   1.000  H
  H159     1.0000 0.79220  0.73600  0.81710  Biso   1.000  H
  H160     1.0000 0.70780  0.26400  0.31710  Biso   1.000  H
  C121     1.0000 0.71148  0.62586  0.32416  Biso   1.000  C
  C122     1.0000 0.78852  0.37414  0.82416  Biso   1.000  C
  C123     1.0000 0.28852  0.12586  0.17584  Biso   1.000  C
  C124     1.0000 0.21148  0.87414  0.67584  Biso   1.000  C
  C125     1.0000 0.28852  0.37414  0.67584  Biso   1.000  C
  C126     1.0000 0.21148  0.62586  0.17584  Biso   1.000  C
  C127     1.0000 0.71148  0.87414  0.82416  Biso   1.000  C
  C128     1.0000 0.78852  0.12586  0.32416  Biso   1.000  C
  H161     1.0000 0.67800  0.58320  0.31250  Biso   1.000  H
  H162     1.0000 0.82200  0.41680  0.81250  Biso   1.000  H
  H163     1.0000 0.32200  0.08320  0.18750  Biso   1.000  H
  H164     1.0000 0.17800  0.91680  0.68750  Biso   1.000  H
  H165     1.0000 0.32200  0.41680  0.68750  Biso   1.000  H
  H166     1.0000 0.17800  0.58320  0.18750  Biso   1.000  H
  H167     1.0000 0.67800  0.91680  0.81250  Biso   1.000  H
  H168     1.0000 0.82200  0.08320  0.31250  Biso   1.000  H
  H169     1.0000 0.67240  0.66790  0.32950  Biso   1.000  H
  H170     1.0000 0.82760  0.33210  0.82950  Biso   1.000  H
  H171     1.0000 0.32760  0.16790  0.17050  Biso   1.000  H
  H172     1.0000 0.17240  0.83210  0.67050  Biso   1.000  H
  H173     1.0000 0.32760  0.33210  0.67050  Biso   1.000  H
  H174     1.0000 0.17240  0.66790  0.17050  Biso   1.000  H
  H175     1.0000 0.67240  0.83210  0.82950  Biso   1.000  H
  H176     1.0000 0.82760  0.16790  0.32950  Biso   1.000  H
  H177     1.0000 0.74050  0.61320  0.35520  Biso   1.000  H
  H178     1.0000 0.75950  0.38680  0.85520  Biso   1.000  H
  H179     1.0000 0.25950  0.11320  0.14480  Biso   1.000  H
  H180     1.0000 0.24050  0.88680  0.64480  Biso   1.000  H
  H181     1.0000 0.25950  0.38680  0.64480  Biso   1.000  H
  H182     1.0000 0.24050  0.61320  0.14480  Biso   1.000  H
  H183     1.0000 0.74050  0.88680  0.85520  Biso   1.000  H
  H184     1.0000 0.75950  0.11320  0.35520  Biso   1.000  H
  C129     1.0000 0.85334  0.34204  0.35625  Biso   1.000  C
  C130     1.0000 0.64666  0.65796  0.85625  Biso   1.000  C
  C131     1.0000 0.14666  0.84204  0.14375  Biso   1.000  C
  C132     1.0000 0.35334  0.15796  0.64375  Biso   1.000  C
  C133     1.0000 0.14666  0.65796  0.64375  Biso   1.000  C
  C134     1.0000 0.35334  0.34204  0.14375  Biso   1.000  C
  C135     1.0000 0.85334  0.15796  0.85625  Biso   1.000  C
  C136     1.0000 0.64666  0.84204  0.35625  Biso   1.000  C
  C137     1.0000 0.80328  0.32134  0.39760  Biso   1.000  C
  C138     1.0000 0.69672  0.67866  0.89760  Biso   1.000  C
  C139     1.0000 0.19672  0.82134  0.10240  Biso   1.000  C
  C140     1.0000 0.30328  0.17866  0.60240  Biso   1.000  C
  C141     1.0000 0.19672  0.67866  0.60240  Biso   1.000  C
  C142     1.0000 0.30328  0.32134  0.10240  Biso   1.000  C
  C143     1.0000 0.80328  0.17866  0.89760  Biso   1.000  C
  C144     1.0000 0.69672  0.82134  0.39760  Biso   1.000  C
  H185     1.0000 0.78760  0.27090  0.40140  Biso   1.000  H
  H186     1.0000 0.71240  0.72910  0.90140  Biso   1.000  H
  H187     1.0000 0.21240  0.77090  0.09860  Biso   1.000  H
  H188     1.0000 0.28760  0.22910  0.59860  Biso   1.000  H
  H189     1.0000 0.21240  0.72910  0.59860  Biso   1.000  H
  H190     1.0000 0.28760  0.27090  0.09860  Biso   1.000  H
  H191     1.0000 0.78760  0.22910  0.90140  Biso   1.000  H
  H192     1.0000 0.71240  0.77090  0.40140  Biso   1.000  H
  C145     1.0000 0.77639  0.37124  0.43236  Biso   1.000  C
  C146     1.0000 0.72361  0.62876  0.93236  Biso   1.000  C
  C147     1.0000 0.22361  0.87124  0.06764  Biso   1.000  C
  C148     1.0000 0.27639  0.12876  0.56764  Biso   1.000  C
  C149     1.0000 0.22361  0.62876  0.56764  Biso   1.000  C
  C150     1.0000 0.27639  0.37124  0.06764  Biso   1.000  C
  C151     1.0000 0.77639  0.12876  0.93236  Biso   1.000  C
  C152     1.0000 0.72361  0.87124  0.43236  Biso   1.000  C
  H193     1.0000 0.74150  0.35550  0.45920  Biso   1.000  H
  H194     1.0000 0.75850  0.64450  0.95920  Biso   1.000  H
  H195     1.0000 0.25850  0.85550  0.04080  Biso   1.000  H
  H196     1.0000 0.24150  0.14450  0.54080  Biso   1.000  H
  H197     1.0000 0.25850  0.64450  0.54080  Biso   1.000  H
  H198     1.0000 0.24150  0.35550  0.04080  Biso   1.000  H
  H199     1.0000 0.74150  0.14450  0.95920  Biso   1.000  H
  H200     1.0000 0.75850  0.85550  0.45920  Biso   1.000  H
  C153     1.0000 0.80064  0.44561  0.42801  Biso   1.000  C
  C154     1.0000 0.69936  0.55439  0.92801  Biso   1.000  C
  C155     1.0000 0.19936  0.94561  0.07199  Biso   1.000  C
  C156     1.0000 0.30064  0.05439  0.57199  Biso   1.000  C
  C157     1.0000 0.19936  0.55439  0.57199  Biso   1.000  C
  C158     1.0000 0.30064  0.44561  0.07199  Biso   1.000  C
  C159     1.0000 0.80064  0.05439  0.92801  Biso   1.000  C
  C160     1.0000 0.69936  0.94561  0.42801  Biso   1.000  C
  C161     1.0000 0.84967  0.46836  0.38902  Biso   1.000  C
  C162     1.0000 0.65033  0.53164  0.88902  Biso   1.000  C
  C163     1.0000 0.15033  0.96836  0.11098  Biso   1.000  C
  C164     1.0000 0.34967  0.03164  0.61098  Biso   1.000  C
  C165     1.0000 0.15033  0.53164  0.61098  Biso   1.000  C
  C166     1.0000 0.34967  0.46836  0.11098  Biso   1.000  C
  C167     1.0000 0.84967  0.03164  0.88902  Biso   1.000  C
  C168     1.0000 0.65033  0.96836  0.38902  Biso   1.000  C
  H201     1.0000 0.86580  0.51890  0.38650  Biso   1.000  H
  H202     1.0000 0.63420  0.48110  0.88650  Biso   1.000  H
  H203     1.0000 0.13420  0.01890  0.11350  Biso   1.000  H
  H204     1.0000 0.36580  0.98110  0.61350  Biso   1.000  H
  H205     1.0000 0.13420  0.48110  0.61350  Biso   1.000  H
  H206     1.0000 0.36580  0.51890  0.11350  Biso   1.000  H
  H207     1.0000 0.86580  0.98110  0.88650  Biso   1.000  H
  H208     1.0000 0.63420  0.01890  0.38650  Biso   1.000  H
  C169     1.0000 0.87682  0.41804  0.35242  Biso   1.000  C
  C170     1.0000 0.62318  0.58196  0.85242  Biso   1.000  C
  C171     1.0000 0.12318  0.91804  0.14758  Biso   1.000  C
  C172     1.0000 0.37682  0.08196  0.64758  Biso   1.000  C
  C173     1.0000 0.12318  0.58196  0.64758  Biso   1.000  C
  C174     1.0000 0.37682  0.41804  0.14758  Biso   1.000  C
  C175     1.0000 0.87682  0.08196  0.85242  Biso   1.000  C
  C176     1.0000 0.62318  0.91804  0.35242  Biso   1.000  C
  C177     1.0000 0.92376  0.44938  0.31152  Biso   1.000  C
  C178     1.0000 0.57624  0.55062  0.81152  Biso   1.000  C
  C179     1.0000 0.07624  0.94938  0.18848  Biso   1.000  C
  C180     1.0000 0.42376  0.05062  0.68848  Biso   1.000  C
  C181     1.0000 0.07624  0.55062  0.68848  Biso   1.000  C
  C182     1.0000 0.42376  0.44938  0.18848  Biso   1.000  C
  C183     1.0000 0.92376  0.05062  0.81152  Biso   1.000  C
  C184     1.0000 0.57624  0.94938  0.31152  Biso   1.000  C
  H209     1.0000 0.94390  0.49890  0.31400  Biso   1.000  H
  H210     1.0000 0.55610  0.50110  0.81400  Biso   1.000  H
  H211     1.0000 0.05610  0.99890  0.18600  Biso   1.000  H
  H212     1.0000 0.44390  0.00110  0.68600  Biso   1.000  H
  H213     1.0000 0.05610  0.50110  0.68600  Biso   1.000  H
  H214     1.0000 0.44390  0.49890  0.18600  Biso   1.000  H
  H215     1.0000 0.94390  0.00110  0.81400  Biso   1.000  H
  H216     1.0000 0.55610  0.99890  0.31400  Biso   1.000  H
  C185     1.0000 0.99771  0.40341  0.19653  Biso   1.000  C
  C186     1.0000 0.50229  0.59659  0.69653  Biso   1.000  C
  C187     1.0000 0.00229  0.90341  0.30347  Biso   1.000  C
  C188     1.0000 0.49771  0.09659  0.80347  Biso   1.000  C
  C189     1.0000 0.00229  0.59659  0.80347  Biso   1.000  C
  C190     1.0000 0.49771  0.40341  0.30347  Biso   1.000  C
  C191     1.0000 0.99771  0.09659  0.69653  Biso   1.000  C
  C192     1.0000 0.50229  0.90341  0.19653  Biso   1.000  C
  C193     1.0000 0.03866  0.42959  0.14973  Biso   1.000  C
  C194     1.0000 0.46134  0.57041  0.64973  Biso   1.000  C
  C195     1.0000 0.96134  0.92959  0.35027  Biso   1.000  C
  C196     1.0000 0.53866  0.07041  0.85027  Biso   1.000  C
  C197     1.0000 0.96134  0.57041  0.85027  Biso   1.000  C
  C198     1.0000 0.53866  0.42959  0.35027  Biso   1.000  C
  C199     1.0000 0.03866  0.07041  0.64973  Biso   1.000  C
  C200     1.0000 0.46134  0.92959  0.14973  Biso   1.000  C
  H217     1.0000 0.09600  0.40580  0.14570  Biso   1.000  H
  H218     1.0000 0.40400  0.59420  0.64570  Biso   1.000  H
  H219     1.0000 0.90400  0.90580  0.35430  Biso   1.000  H
  H220     1.0000 0.59600  0.09420  0.85430  Biso   1.000  H
  H221     1.0000 0.90400  0.59420  0.85430  Biso   1.000  H
  H222     1.0000 0.59600  0.40580  0.35430  Biso   1.000  H
  H223     1.0000 0.09600  0.09420  0.64570  Biso   1.000  H
  H224     1.0000 0.40400  0.90580  0.14570  Biso   1.000  H
  H225     1.0000 0.04770  0.48370  0.15140  Biso   1.000  H
  H226     1.0000 0.45230  0.51630  0.65140  Biso   1.000  H
  H227     1.0000 0.95230  0.98370  0.34860  Biso   1.000  H
  H228     1.0000 0.54770  0.01630  0.84860  Biso   1.000  H
  H229     1.0000 0.95230  0.51630  0.84860  Biso   1.000  H
  H230     1.0000 0.54770  0.48370  0.34860  Biso   1.000  H
  H231     1.0000 0.04770  0.01630  0.65140  Biso   1.000  H
  H232     1.0000 0.45230  0.98370  0.15140  Biso   1.000  H
  C201     1.0000 0.98140  0.41106  0.10516  Biso   1.000  C
  C202     1.0000 0.51860  0.58894  0.60516  Biso   1.000  C
  C203     1.0000 0.01860  0.91106  0.39484  Biso   1.000  C
  C204     1.0000 0.48140  0.08894  0.89484  Biso   1.000  C
  C205     1.0000 0.01860  0.58894  0.89484  Biso   1.000  C
  C206     1.0000 0.48140  0.41106  0.39484  Biso   1.000  C
  C207     1.0000 0.98140  0.08894  0.60516  Biso   1.000  C
  C208     1.0000 0.51860  0.91106  0.10516  Biso   1.000  C
  H233     1.0000 0.95350  0.36250  0.11100  Biso   1.000  H
  H234     1.0000 0.54650  0.63750  0.61100  Biso   1.000  H
  H235     1.0000 0.04650  0.86250  0.38900  Biso   1.000  H
  H236     1.0000 0.45350  0.13750  0.88900  Biso   1.000  H
  H237     1.0000 0.04650  0.63750  0.88900  Biso   1.000  H
  H238     1.0000 0.45350  0.36250  0.38900  Biso   1.000  H
  H239     1.0000 0.95350  0.13750  0.61100  Biso   1.000  H
  H240     1.0000 0.54650  0.86250  0.11100  Biso   1.000  H
  H241     1.0000 0.93480  0.44850  0.10290  Biso   1.000  H
  H242     1.0000 0.56520  0.55150  0.60290  Biso   1.000  H
  H243     1.0000 0.06520  0.94850  0.39710  Biso   1.000  H
  H244     1.0000 0.43480  0.05150  0.89710  Biso   1.000  H
  H245     1.0000 0.06520  0.55150  0.89710  Biso   1.000  H
  H246     1.0000 0.43480  0.44850  0.39710  Biso   1.000  H
  H247     1.0000 0.93480  0.05150  0.60290  Biso   1.000  H
  H248     1.0000 0.56520  0.94850  0.10290  Biso   1.000  H
  C209     1.0000 0.02780  0.40810  0.05683  Biso   1.000  C
  C210     1.0000 0.47220  0.59190  0.55683  Biso   1.000  C
  C211     1.0000 0.97220  0.90810  0.44317  Biso   1.000  C
  C212     1.0000 0.52780  0.09190  0.94317  Biso   1.000  C
  C213     1.0000 0.97220  0.59190  0.94317  Biso   1.000  C
  C214     1.0000 0.52780  0.40810  0.44317  Biso   1.000  C
  C215     1.0000 0.02780  0.09190  0.55683  Biso   1.000  C
  C216     1.0000 0.47220  0.90810  0.05683  Biso   1.000  C
  H249     1.0000 0.05670  0.36110  0.05680  Biso   1.000  H
  H250     1.0000 0.44330  0.63890  0.55680  Biso   1.000  H
  H251     1.0000 0.94330  0.86110  0.44320  Biso   1.000  H
  H252     1.0000 0.55670  0.13890  0.94320  Biso   1.000  H
  H253     1.0000 0.94330  0.63890  0.94320  Biso   1.000  H
  H254     1.0000 0.55670  0.36110  0.44320  Biso   1.000  H
  H255     1.0000 0.05670  0.13890  0.55680  Biso   1.000  H
  H256     1.0000 0.44330  0.86110  0.05680  Biso   1.000  H
  H257     1.0000 0.07270  0.44450  0.05980  Biso   1.000  H
  H258     1.0000 0.42730  0.55550  0.55980  Biso   1.000  H
  H259     1.0000 0.92730  0.94450  0.44020  Biso   1.000  H
  H260     1.0000 0.57270  0.05550  0.94020  Biso   1.000  H
  H261     1.0000 0.92730  0.55550  0.94020  Biso   1.000  H
  H262     1.0000 0.57270  0.44450  0.44020  Biso   1.000  H
  H263     1.0000 0.07270  0.05550  0.55980  Biso   1.000  H
  H264     1.0000 0.42730  0.94450  0.05980  Biso   1.000  H
  C217     1.0000 0.96060  0.38790  0.01557  Biso   1.000  C
  C218     1.0000 0.53940  0.61210  0.51557  Biso   1.000  C
  C219     1.0000 0.03940  0.88790  0.48443  Biso   1.000  C
  C220     1.0000 0.46060  0.11210  0.98443  Biso   1.000  C
  C221     1.0000 0.03940  0.61210  0.98443  Biso   1.000  C
  C222     1.0000 0.46060  0.38790  0.48443  Biso   1.000  C
  C223     1.0000 0.96060  0.11210  0.51557  Biso   1.000  C
  C224     1.0000 0.53940  0.88790  0.01557  Biso   1.000  C
  H265     1.0000 0.93490  0.33900  0.02310  Biso   1.000  H
  H266     1.0000 0.56510  0.66100  0.52310  Biso   1.000  H
  H267     1.0000 0.06510  0.83900  0.47690  Biso   1.000  H
  H268     1.0000 0.43490  0.16100  0.97690  Biso   1.000  H
  H269     1.0000 0.06510  0.66100  0.97690  Biso   1.000  H
  H270     1.0000 0.43490  0.33900  0.47690  Biso   1.000  H
  H271     1.0000 0.93490  0.16100  0.52310  Biso   1.000  H
  H272     1.0000 0.56510  0.83900  0.02310  Biso   1.000  H
  H273     1.0000 0.91330  0.42480  0.01580  Biso   1.000  H
  H274     1.0000 0.58670  0.57520  0.51580  Biso   1.000  H
  H275     1.0000 0.08670  0.92480  0.48420  Biso   1.000  H
  H276     1.0000 0.41330  0.07520  0.98420  Biso   1.000  H
  H277     1.0000 0.08670  0.57520  0.98420  Biso   1.000  H
  H278     1.0000 0.41330  0.42480  0.48420  Biso   1.000  H
  H279     1.0000 0.91330  0.07520  0.51580  Biso   1.000  H
  H280     1.0000 0.58670  0.92480  0.01580  Biso   1.000  H
  C225     1.0000 0.00080  0.38530  0.96399  Biso   1.000  C
  C226     1.0000 0.49920  0.61470  0.46399  Biso   1.000  C
  C227     1.0000 0.99920  0.88530  0.53601  Biso   1.000  C
  C228     1.0000 0.50080  0.11470  0.03601  Biso   1.000  C
  C229     1.0000 0.99920  0.61470  0.03601  Biso   1.000  C
  C230     1.0000 0.50080  0.38530  0.53601  Biso   1.000  C
  C231     1.0000 0.00080  0.11470  0.46399  Biso   1.000  C
  C232     1.0000 0.49920  0.88530  0.96399  Biso   1.000  C
  H281     1.0000 0.02890  0.43340  0.95680  Biso   1.000  H
  H282     1.0000 0.47110  0.56660  0.45680  Biso   1.000  H
  H283     1.0000 0.97110  0.93340  0.54320  Biso   1.000  H
  H284     1.0000 0.52890  0.06660  0.04320  Biso   1.000  H
  H285     1.0000 0.97110  0.56660  0.04320  Biso   1.000  H
  H286     1.0000 0.52890  0.43340  0.54320  Biso   1.000  H
  H287     1.0000 0.02890  0.06660  0.45680  Biso   1.000  H
  H288     1.0000 0.47110  0.93340  0.95680  Biso   1.000  H
  H289     1.0000 0.04600  0.34650  0.96300  Biso   1.000  H
  H290     1.0000 0.45400  0.65350  0.46300  Biso   1.000  H
  H291     1.0000 0.95400  0.84650  0.53700  Biso   1.000  H
  H292     1.0000 0.54600  0.15350  0.03700  Biso   1.000  H
  H293     1.0000 0.95400  0.65350  0.03700  Biso   1.000  H
  H294     1.0000 0.54600  0.34650  0.53700  Biso   1.000  H
  H295     1.0000 0.04600  0.15350  0.46300  Biso   1.000  H
  H296     1.0000 0.45400  0.84650  0.96300  Biso   1.000  H
  C233     1.0000 0.93300  0.36930  0.92490  Biso   1.000  C
  C234     1.0000 0.56700  0.63070  0.42490  Biso   1.000  C
  C235     1.0000 0.06700  0.86930  0.57510  Biso   1.000  C
  C236     1.0000 0.43300  0.13070  0.07510  Biso   1.000  C
  C237     1.0000 0.06700  0.63070  0.07510  Biso   1.000  C
  C238     1.0000 0.43300  0.36930  0.57510  Biso   1.000  C
  C239     1.0000 0.93300  0.13070  0.42490  Biso   1.000  C
  C240     1.0000 0.56700  0.86930  0.92490  Biso   1.000  C
  H297     1.0000 0.96070  0.36770  0.89250  Biso   1.000  H
  H298     1.0000 0.53930  0.63230  0.39250  Biso   1.000  H
  H299     1.0000 0.03930  0.86770  0.60750  Biso   1.000  H
  H300     1.0000 0.46070  0.13230  0.10750  Biso   1.000  H
  H301     1.0000 0.03930  0.63230  0.10750  Biso   1.000  H
  H302     1.0000 0.46070  0.36770  0.60750  Biso   1.000  H
  H303     1.0000 0.96070  0.13230  0.39250  Biso   1.000  H
  H304     1.0000 0.53930  0.86770  0.89250  Biso   1.000  H
  H305     1.0000 0.88900  0.40840  0.92530  Biso   1.000  H
  H306     1.0000 0.61100  0.59160  0.42530  Biso   1.000  H
  H307     1.0000 0.11100  0.90840  0.57470  Biso   1.000  H
  H308     1.0000 0.38900  0.09160  0.07470  Biso   1.000  H
  H309     1.0000 0.11100  0.59160  0.07470  Biso   1.000  H
  H310     1.0000 0.38900  0.40840  0.57470  Biso   1.000  H
  H311     1.0000 0.88900  0.09160  0.42530  Biso   1.000  H
  H312     1.0000 0.61100  0.90840  0.92530  Biso   1.000  H
  H313     1.0000 0.90550  0.32160  0.93180  Biso   1.000  H
  H314     1.0000 0.59450  0.67840  0.43180  Biso   1.000  H
  H315     1.0000 0.09450  0.82160  0.56820  Biso   1.000  H
  H316     1.0000 0.40550  0.17840  0.06820  Biso   1.000  H
  H317     1.0000 0.09450  0.67840  0.06820  Biso   1.000  H
  H318     1.0000 0.40550  0.32160  0.56820  Biso   1.000  H
  H319     1.0000 0.90550  0.17840  0.43180  Biso   1.000  H
  H320     1.0000 0.59450  0.82160  0.93180  Biso   1.000  H
  C241     1.0000 0.74370  0.41360  0.15805  Biso   1.000  C
  C242     1.0000 0.75630  0.58640  0.65805  Biso   1.000  C
  C243     1.0000 0.25630  0.91360  0.34195  Biso   1.000  C
  C244     1.0000 0.24370  0.08640  0.84195  Biso   1.000  C
  C245     1.0000 0.25630  0.58640  0.84195  Biso   1.000  C
  C246     1.0000 0.24370  0.41360  0.34195  Biso   1.000  C
  C247     1.0000 0.74370  0.08640  0.65805  Biso   1.000  C
  C248     1.0000 0.75630  0.91360  0.15805  Biso   1.000  C
  H321     1.0000 0.74710  0.37730  0.13130  Biso   1.000  H
  H322     1.0000 0.75290  0.62270  0.63130  Biso   1.000  H
  H323     1.0000 0.25290  0.87730  0.36870  Biso   1.000  H
  H324     1.0000 0.24710  0.12270  0.86870  Biso   1.000  H
  H325     1.0000 0.25290  0.62270  0.86870  Biso   1.000  H
  H326     1.0000 0.24710  0.37730  0.36870  Biso   1.000  H
  H327     1.0000 0.74710  0.12270  0.63130  Biso   1.000  H
  H328     1.0000 0.75290  0.87730  0.13130  Biso   1.000  H
  H329     1.0000 0.80080  0.43590  0.16320  Biso   1.000  H
  H330     1.0000 0.69920  0.56410  0.66320  Biso   1.000  H
  H331     1.0000 0.19920  0.93590  0.33680  Biso   1.000  H
  H332     1.0000 0.30080  0.06410  0.83680  Biso   1.000  H
  H333     1.0000 0.19920  0.56410  0.83680  Biso   1.000  H
  H334     1.0000 0.30080  0.43590  0.33680  Biso   1.000  H
  H335     1.0000 0.80080  0.06410  0.66320  Biso   1.000  H
  H336     1.0000 0.69920  0.93590  0.16320  Biso   1.000  H
  H337     1.0000 0.70180  0.45220  0.14930  Biso   1.000  H
  H338     1.0000 0.79820  0.54780  0.64930  Biso   1.000  H
  H339     1.0000 0.29820  0.95220  0.35070  Biso   1.000  H
  H340     1.0000 0.20180  0.04780  0.85070  Biso   1.000  H
  H341     1.0000 0.29820  0.54780  0.85070  Biso   1.000  H
  H342     1.0000 0.20180  0.45220  0.35070  Biso   1.000  H
  H343     1.0000 0.70180  0.04780  0.64930  Biso   1.000  H
  H344     1.0000 0.79820  0.95220  0.14930  Biso   1.000  H
  C249     1.0000 0.71050  0.44842  0.25173  Biso   1.000  C
  C250     1.0000 0.78950  0.55158  0.75173  Biso   1.000  C
  C251     1.0000 0.28950  0.94842  0.24827  Biso   1.000  C
  C252     1.0000 0.21050  0.05158  0.74827  Biso   1.000  C
  C253     1.0000 0.28950  0.55158  0.74827  Biso   1.000  C
  C254     1.0000 0.21050  0.44842  0.24827  Biso   1.000  C
  C255     1.0000 0.71050  0.05158  0.75173  Biso   1.000  C
  C256     1.0000 0.78950  0.94842  0.25173  Biso   1.000  C
  H345     1.0000 0.69240  0.43440  0.28510  Biso   1.000  H
  H346     1.0000 0.80760  0.56560  0.78510  Biso   1.000  H
  H347     1.0000 0.30760  0.93440  0.21490  Biso   1.000  H
  H348     1.0000 0.19240  0.06560  0.71490  Biso   1.000  H
  H349     1.0000 0.30760  0.56560  0.71490  Biso   1.000  H
  H350     1.0000 0.19240  0.43440  0.21490  Biso   1.000  H
  H351     1.0000 0.69240  0.06560  0.78510  Biso   1.000  H
  H352     1.0000 0.80760  0.93440  0.28510  Biso   1.000  H
  H353     1.0000 0.67030  0.48550  0.23860  Biso   1.000  H
  H354     1.0000 0.82970  0.51450  0.73860  Biso   1.000  H
  H355     1.0000 0.32970  0.98550  0.26140  Biso   1.000  H
  H356     1.0000 0.17030  0.01450  0.76140  Biso   1.000  H
  H357     1.0000 0.32970  0.51450  0.76140  Biso   1.000  H
  H358     1.0000 0.17030  0.48550  0.26140  Biso   1.000  H
  H359     1.0000 0.67030  0.01450  0.73860  Biso   1.000  H
  H360     1.0000 0.82970  0.98550  0.23860  Biso   1.000  H
  H361     1.0000 0.76910  0.46910  0.25280  Biso   1.000  H
  H362     1.0000 0.73090  0.53090  0.75280  Biso   1.000  H
  H363     1.0000 0.23090  0.96910  0.24720  Biso   1.000  H
  H364     1.0000 0.26910  0.03090  0.74720  Biso   1.000  H
  H365     1.0000 0.23090  0.53090  0.74720  Biso   1.000  H
  H366     1.0000 0.26910  0.46910  0.24720  Biso   1.000  H
  H367     1.0000 0.76910  0.03090  0.75280  Biso   1.000  H
  H368     1.0000 0.73090  0.96910  0.25280  Biso   1.000  H
  H369     1.0000 0.08260  0.58890  0.40200  Biso   1.000  H
  H370     1.0000 0.41740  0.41110  0.90200  Biso   1.000  H
  H371     1.0000 0.91740  0.08890  0.09800  Biso   1.000  H
  H372     1.0000 0.58260  0.91110  0.59800  Biso   1.000  H
  H373     1.0000 0.91740  0.41110  0.59800  Biso   1.000  H
  H374     1.0000 0.58260  0.58890  0.09800  Biso   1.000  H
  H375     1.0000 0.08260  0.91110  0.90200  Biso   1.000  H
  H376     1.0000 0.41740  0.08890  0.40200  Biso   1.000  H
  H377     1.0000 0.00380  0.59600  0.36680  Biso   1.000  H
  H378     1.0000 0.49620  0.40400  0.86680  Biso   1.000  H
  H379     1.0000 0.99620  0.09600  0.13320  Biso   1.000  H
  H380     1.0000 0.50380  0.90400  0.63320  Biso   1.000  H
  H381     1.0000 0.99620  0.40400  0.63320  Biso   1.000  H
  H382     1.0000 0.50380  0.59600  0.13320  Biso   1.000  H
  H383     1.0000 0.00380  0.90400  0.86680  Biso   1.000  H
  H384     1.0000 0.49620  0.09600  0.36680  Biso   1.000  H
  C257     1.0000 0.01890  0.63820  0.44790  Biso   1.000  C
  C258     1.0000 0.48110  0.36180  0.94790  Biso   1.000  C
  C259     1.0000 0.98110  0.13820  0.05210  Biso   1.000  C
  C260     1.0000 0.51890  0.86180  0.55210  Biso   1.000  C
  C261     1.0000 0.98110  0.36180  0.55210  Biso   1.000  C
  C262     1.0000 0.51890  0.63820  0.05210  Biso   1.000  C
  C263     1.0000 0.01890  0.86180  0.94790  Biso   1.000  C
  C264     1.0000 0.48110  0.13820  0.44790  Biso   1.000  C
  H385     1.0000 0.06750  0.66820  0.46090  Biso   1.000  H
  H386     1.0000 0.43250  0.33180  0.96090  Biso   1.000  H
  H387     1.0000 0.93250  0.16820  0.03910  Biso   1.000  H
  H388     1.0000 0.56750  0.83180  0.53910  Biso   1.000  H
  H389     1.0000 0.93250  0.33180  0.53910  Biso   1.000  H
  H390     1.0000 0.56750  0.66820  0.03910  Biso   1.000  H
  H391     1.0000 0.06750  0.83180  0.96090  Biso   1.000  H
  H392     1.0000 0.43250  0.16820  0.46090  Biso   1.000  H
  H393     1.0000 0.96580  0.66860  0.45020  Biso   1.000  H
  H394     1.0000 0.53420  0.33140  0.95020  Biso   1.000  H
  H395     1.0000 0.03420  0.16860  0.04980  Biso   1.000  H
  H396     1.0000 0.46580  0.83140  0.54980  Biso   1.000  H
  H397     1.0000 0.03420  0.33140  0.54980  Biso   1.000  H
  H398     1.0000 0.46580  0.66860  0.04980  Biso   1.000  H
  H399     1.0000 0.96580  0.83140  0.95020  Biso   1.000  H
  H400     1.0000 0.53420  0.16860  0.45020  Biso   1.000  H
  C265     1.0000 0.00780  0.57130  0.48080  Biso   1.000  C
  C266     1.0000 0.49220  0.42870  0.98080  Biso   1.000  C
  C267     1.0000 0.99220  0.07130  0.01920  Biso   1.000  C
  C268     1.0000 0.50780  0.92870  0.51920  Biso   1.000  C
  C269     1.0000 0.99220  0.42870  0.51920  Biso   1.000  C
  C270     1.0000 0.50780  0.57130  0.01920  Biso   1.000  C
  C271     1.0000 0.00780  0.92870  0.98080  Biso   1.000  C
  C272     1.0000 0.49220  0.07130  0.48080  Biso   1.000  C
  H401     1.0000 0.06360  0.54440  0.48280  Biso   1.000  H
  H402     1.0000 0.43640  0.45560  0.98280  Biso   1.000  H
  H403     1.0000 0.93640  0.04440  0.01720  Biso   1.000  H
  H404     1.0000 0.56360  0.95560  0.51720  Biso   1.000  H
  H405     1.0000 0.93640  0.45560  0.51720  Biso   1.000  H
  H406     1.0000 0.56360  0.54440  0.01720  Biso   1.000  H
  H407     1.0000 0.06360  0.95560  0.98280  Biso   1.000  H
  H408     1.0000 0.43640  0.04440  0.48280  Biso   1.000  H
  H409     1.0000 0.96450  0.53760  0.46590  Biso   1.000  H
  H410     1.0000 0.53550  0.46240  0.96590  Biso   1.000  H
  H411     1.0000 0.03550  0.03760  0.03410  Biso   1.000  H
  H412     1.0000 0.46450  0.96240  0.53410  Biso   1.000  H
  H413     1.0000 0.03550  0.46240  0.53410  Biso   1.000  H
  H414     1.0000 0.46450  0.53760  0.03410  Biso   1.000  H
  H415     1.0000 0.96450  0.96240  0.96590  Biso   1.000  H
  H416     1.0000 0.53550  0.03760  0.46590  Biso   1.000  H
  C273     1.0000 0.97820  0.59220  0.53300  Biso   1.000  C
  C274     1.0000 0.52180  0.40780  0.03300  Biso   1.000  C
  C275     1.0000 0.02180  0.09220  0.96700  Biso   1.000  C
  C276     1.0000 0.47820  0.90780  0.46700  Biso   1.000  C
  C277     1.0000 0.02180  0.40780  0.46700  Biso   1.000  C
  C278     1.0000 0.47820  0.59220  0.96700  Biso   1.000  C
  C279     1.0000 0.97820  0.90780  0.03300  Biso   1.000  C
  C280     1.0000 0.52180  0.09220  0.53300  Biso   1.000  C
  H417     1.0000 0.98880  0.55060  0.55540  Biso   1.000  H
  H418     1.0000 0.51120  0.44940  0.05540  Biso   1.000  H
  H419     1.0000 0.01120  0.05060  0.94460  Biso   1.000  H
  H420     1.0000 0.48880  0.94940  0.44460  Biso   1.000  H
  H421     1.0000 0.01120  0.44940  0.44460  Biso   1.000  H
  H422     1.0000 0.48880  0.55060  0.94460  Biso   1.000  H
  H423     1.0000 0.98880  0.94940  0.05540  Biso   1.000  H
  H424     1.0000 0.51120  0.05060  0.55540  Biso   1.000  H
  H425     1.0000 0.91620  0.60380  0.53260  Biso   1.000  H
  H426     1.0000 0.58380  0.39620  0.03260  Biso   1.000  H
  H427     1.0000 0.08380  0.10380  0.96740  Biso   1.000  H
  H428     1.0000 0.41620  0.89620  0.46740  Biso   1.000  H
  H429     1.0000 0.08380  0.39620  0.46740  Biso   1.000  H
  H430     1.0000 0.41620  0.60380  0.96740  Biso   1.000  H
  H431     1.0000 0.91620  0.89620  0.03260  Biso   1.000  H
  H432     1.0000 0.58380  0.10380  0.53260  Biso   1.000  H
  H433     1.0000 0.01080  0.63550  0.54430  Biso   1.000  H
  H434     1.0000 0.48920  0.36450  0.04430  Biso   1.000  H
  H435     1.0000 0.98920  0.13550  0.95570  Biso   1.000  H
  H436     1.0000 0.51080  0.86450  0.45570  Biso   1.000  H
  H437     1.0000 0.98920  0.36450  0.45570  Biso   1.000  H
  H438     1.0000 0.51080  0.63550  0.95570  Biso   1.000  H
  H439     1.0000 0.01080  0.86450  0.04430  Biso   1.000  H
  H440     1.0000 0.48920  0.13550  0.54430  Biso   1.000  H
  H441     1.0000 0.07250  0.37130  0.05790  Biso   1.000  H
  H442     1.0000 0.42750  0.62870  0.55790  Biso   1.000  H
  H443     1.0000 0.92750  0.87130  0.44210  Biso   1.000  H
  H444     1.0000 0.57250  0.12870  0.94210  Biso   1.000  H
  H445     1.0000 0.92750  0.62870  0.94210  Biso   1.000  H
  H446     1.0000 0.57250  0.37130  0.44210  Biso   1.000  H
  H447     1.0000 0.07250  0.12870  0.55790  Biso   1.000  H
  H448     1.0000 0.42750  0.87130  0.05790  Biso   1.000  H
  H449     1.0000 0.05400  0.45510  0.05000  Biso   1.000  H
  H450     1.0000 0.44600  0.54490  0.55000  Biso   1.000  H
  H451     1.0000 0.94600  0.95510  0.45000  Biso   1.000  H
  H452     1.0000 0.55400  0.04490  0.95000  Biso   1.000  H
  H453     1.0000 0.94600  0.54490  0.95000  Biso   1.000  H
  H454     1.0000 0.55400  0.45510  0.45000  Biso   1.000  H
  H455     1.0000 0.05400  0.04490  0.55000  Biso   1.000  H
  H456     1.0000 0.44600  0.95510  0.05000  Biso   1.000  H
  C281     1.0000 0.99420  0.41410  0.00950  Biso   1.000  C
  C282     1.0000 0.50580  0.58590  0.50950  Biso   1.000  C
  C283     1.0000 0.00580  0.91410  0.49050  Biso   1.000  C
  C284     1.0000 0.49420  0.08590  0.99050  Biso   1.000  C
  C285     1.0000 0.00580  0.58590  0.99050  Biso   1.000  C
  C286     1.0000 0.49420  0.41410  0.49050  Biso   1.000  C
  C287     1.0000 0.99420  0.08590  0.50950  Biso   1.000  C
  C288     1.0000 0.50580  0.91410  0.00950  Biso   1.000  C
  H457     1.0000 0.03370  0.44320  0.98830  Biso   1.000  H
  H458     1.0000 0.46630  0.55680  0.48830  Biso   1.000  H
  H459     1.0000 0.96630  0.94320  0.51170  Biso   1.000  H
  H460     1.0000 0.53370  0.05680  0.01170  Biso   1.000  H
  H461     1.0000 0.96630  0.55680  0.01170  Biso   1.000  H
  H462     1.0000 0.53370  0.44320  0.51170  Biso   1.000  H
  H463     1.0000 0.03370  0.05680  0.48830  Biso   1.000  H
  H464     1.0000 0.46630  0.94320  0.98830  Biso   1.000  H
  H465     1.0000 0.93690  0.43870  0.01020  Biso   1.000  H
  H466     1.0000 0.56310  0.56130  0.51020  Biso   1.000  H
  H467     1.0000 0.06310  0.93870  0.48980  Biso   1.000  H
  H468     1.0000 0.43690  0.06130  0.98980  Biso   1.000  H
  H469     1.0000 0.06310  0.56130  0.98980  Biso   1.000  H
  H470     1.0000 0.43690  0.43870  0.48980  Biso   1.000  H
  H471     1.0000 0.93690  0.06130  0.51020  Biso   1.000  H
  H472     1.0000 0.56310  0.93870  0.01020  Biso   1.000  H
  C289     1.0000 0.98620  0.33960  0.99140  Biso   1.000  C
  C290     1.0000 0.51380  0.66040  0.49140  Biso   1.000  C
  C291     1.0000 0.01380  0.83960  0.50860  Biso   1.000  C
  C292     1.0000 0.48620  0.16040  0.00860  Biso   1.000  C
  C293     1.0000 0.01380  0.66040  0.00860  Biso   1.000  C
  C294     1.0000 0.48620  0.33960  0.50860  Biso   1.000  C
  C295     1.0000 0.98620  0.16040  0.49140  Biso   1.000  C
  C296     1.0000 0.51380  0.83960  0.99140  Biso   1.000  C
  H473     1.0000 0.95850  0.30950  0.01740  Biso   1.000  H
  H474     1.0000 0.54150  0.69050  0.51740  Biso   1.000  H
  H475     1.0000 0.04150  0.80950  0.48260  Biso   1.000  H
  H476     1.0000 0.45850  0.19050  0.98260  Biso   1.000  H
  H477     1.0000 0.04150  0.69050  0.98260  Biso   1.000  H
  H478     1.0000 0.45850  0.30950  0.48260  Biso   1.000  H
  H479     1.0000 0.95850  0.19050  0.51740  Biso   1.000  H
  H480     1.0000 0.54150  0.80950  0.01740  Biso   1.000  H
  H481     1.0000 0.04540  0.31970  0.98640  Biso   1.000  H
  H482     1.0000 0.45460  0.68030  0.48640  Biso   1.000  H
  H483     1.0000 0.95460  0.81970  0.51360  Biso   1.000  H
  H484     1.0000 0.54540  0.18030  0.01360  Biso   1.000  H
  H485     1.0000 0.95460  0.68030  0.01360  Biso   1.000  H
  H486     1.0000 0.54540  0.31970  0.51360  Biso   1.000  H
  H487     1.0000 0.04540  0.18030  0.48640  Biso   1.000  H
  H488     1.0000 0.45460  0.81970  0.98640  Biso   1.000  H
  C297     1.0000 0.93500  0.32780  0.94330  Biso   1.000  C
  C298     1.0000 0.56500  0.67220  0.44330  Biso   1.000  C
  C299     1.0000 0.06500  0.82780  0.55670  Biso   1.000  C
  C300     1.0000 0.43500  0.17220  0.05670  Biso   1.000  C
  C301     1.0000 0.06500  0.67220  0.05670  Biso   1.000  C
  C302     1.0000 0.43500  0.32780  0.55670  Biso   1.000  C
  C303     1.0000 0.93500  0.17220  0.44330  Biso   1.000  C
  C304     1.0000 0.56500  0.82780  0.94330  Biso   1.000  C
  H489     1.0000 0.93310  0.27490  0.93550  Biso   1.000  H
  H490     1.0000 0.56690  0.72510  0.43550  Biso   1.000  H
  H491     1.0000 0.06690  0.77490  0.56450  Biso   1.000  H
  H492     1.0000 0.43310  0.22510  0.06450  Biso   1.000  H
  H493     1.0000 0.06690  0.72510  0.06450  Biso   1.000  H
  H494     1.0000 0.43310  0.27490  0.56450  Biso   1.000  H
  H495     1.0000 0.93310  0.22510  0.43550  Biso   1.000  H
  H496     1.0000 0.56690  0.77490  0.93550  Biso   1.000  H
  H497     1.0000 0.96340  0.35450  0.91630  Biso   1.000  H
  H498     1.0000 0.53660  0.64550  0.41630  Biso   1.000  H
  H499     1.0000 0.03660  0.85450  0.58370  Biso   1.000  H
  H500     1.0000 0.46340  0.14550  0.08370  Biso   1.000  H
  H501     1.0000 0.03660  0.64550  0.08370  Biso   1.000  H
  H502     1.0000 0.46340  0.35450  0.58370  Biso   1.000  H
  H503     1.0000 0.96340  0.14550  0.41630  Biso   1.000  H
  H504     1.0000 0.53660  0.85450  0.91630  Biso   1.000  H
  H505     1.0000 0.87580  0.34640  0.94740  Biso   1.000  H
  H506     1.0000 0.62420  0.65360  0.44740  Biso   1.000  H
  H507     1.0000 0.12420  0.84640  0.55260  Biso   1.000  H
  H508     1.0000 0.37580  0.15360  0.05260  Biso   1.000  H
  H509     1.0000 0.12420  0.65360  0.05260  Biso   1.000  H
  H510     1.0000 0.37580  0.34640  0.55260  Biso   1.000  H
  H511     1.0000 0.87580  0.15360  0.44740  Biso   1.000  H
  H512     1.0000 0.62420  0.84640  0.94740  Biso   1.000  H
