data_image0
_cell_length_a       15.266
_cell_length_b       15.266
_cell_length_c       34.953
_cell_angle_alpha    90
_cell_angle_beta     90
_cell_angle_gamma    120

_symmetry_space_group_name_H-M    "P 1"
_symmetry_int_tables_number       1

loop_
  _symmetry_equiv_pos_as_xyz
  'x, y, z'

loop_
  _atom_site_label
  _atom_site_occupancy
  _atom_site_fract_x
  _atom_site_fract_y
  _atom_site_fract_z
  _atom_site_thermal_displace_type
  _atom_site_B_iso_or_equiv
  _atom_site_type_symbol
  Cu1      1.0000 0.85080  0.34630  0.03690  Biso   1.000  Cu
  Cu2      1.0000 0.65370  0.50450  0.03690  Biso   1.000  Cu
  Cu3      1.0000 0.34630  0.85080  0.46310  Biso   1.000  Cu
  Cu4      1.0000 0.49550  0.14920  0.03690  Biso   1.000  Cu
  Cu5      1.0000 0.14920  0.49550  0.46310  Biso   1.000  Cu
  Cu6      1.0000 0.50450  0.65370  0.46310  Biso   1.000  Cu
  Cu7      1.0000 0.18413  0.01297  0.70357  Biso   1.000  Cu
  Cu8      1.0000 0.98703  0.17117  0.70357  Biso   1.000  Cu
  Cu9      1.0000 0.67963  0.51747  0.12977  Biso   1.000  Cu
  Cu10     1.0000 0.82883  0.81587  0.70357  Biso   1.000  Cu
  Cu11     1.0000 0.48253  0.16217  0.12977  Biso   1.000  Cu
  Cu12     1.0000 0.83783  0.32037  0.12977  Biso   1.000  Cu
  Cu13     1.0000 0.51747  0.67963  0.37023  Biso   1.000  Cu
  Cu14     1.0000 0.32037  0.83783  0.37023  Biso   1.000  Cu
  Cu15     1.0000 0.01297  0.18413  0.79643  Biso   1.000  Cu
  Cu16     1.0000 0.16217  0.48253  0.37023  Biso   1.000  Cu
  Cu17     1.0000 0.81587  0.82883  0.79643  Biso   1.000  Cu
  Cu18     1.0000 0.17117  0.98703  0.79643  Biso   1.000  Cu
  Cu19     1.0000 0.14920  0.65370  0.96310  Biso   1.000  Cu
  Cu20     1.0000 0.34630  0.49550  0.96310  Biso   1.000  Cu
  Cu21     1.0000 0.65370  0.14920  0.53690  Biso   1.000  Cu
  Cu22     1.0000 0.50450  0.85080  0.96310  Biso   1.000  Cu
  Cu23     1.0000 0.85080  0.50450  0.53690  Biso   1.000  Cu
  Cu24     1.0000 0.49550  0.34630  0.53690  Biso   1.000  Cu
  Cu25     1.0000 0.48253  0.32037  0.62977  Biso   1.000  Cu
  Cu26     1.0000 0.67963  0.16217  0.62977  Biso   1.000  Cu
  Cu27     1.0000 0.98703  0.81587  0.20357  Biso   1.000  Cu
  Cu28     1.0000 0.83783  0.51747  0.62977  Biso   1.000  Cu
  Cu29     1.0000 0.18413  0.17117  0.20357  Biso   1.000  Cu
  Cu30     1.0000 0.82883  0.01297  0.20357  Biso   1.000  Cu
  Cu31     1.0000 0.81587  0.98703  0.29643  Biso   1.000  Cu
  Cu32     1.0000 0.01297  0.82883  0.29643  Biso   1.000  Cu
  Cu33     1.0000 0.32037  0.48253  0.87023  Biso   1.000  Cu
  Cu34     1.0000 0.17117  0.18413  0.29643  Biso   1.000  Cu
  Cu35     1.0000 0.51747  0.83783  0.87023  Biso   1.000  Cu
  Cu36     1.0000 0.16217  0.67963  0.87023  Biso   1.000  Cu
  O1       1.0000 0.93940  0.49700  0.04330  Biso   1.000  O
  O2       1.0000 0.50300  0.44240  0.04330  Biso   1.000  O
  O3       1.0000 0.49700  0.93940  0.45670  Biso   1.000  O
  O4       1.0000 0.55760  0.06060  0.04330  Biso   1.000  O
  O5       1.0000 0.06060  0.55760  0.45670  Biso   1.000  O
  O6       1.0000 0.44240  0.50300  0.45670  Biso   1.000  O
  O7       1.0000 0.27273  0.16367  0.70997  Biso   1.000  O
  O8       1.0000 0.83633  0.10907  0.70997  Biso   1.000  O
  O9       1.0000 0.83033  0.60607  0.12337  Biso   1.000  O
  O10      1.0000 0.89093  0.72727  0.70997  Biso   1.000  O
  O11      1.0000 0.39393  0.22427  0.12337  Biso   1.000  O
  O12      1.0000 0.77573  0.16967  0.12337  Biso   1.000  O
  O13      1.0000 0.60607  0.83033  0.37663  Biso   1.000  O
  O14      1.0000 0.16967  0.77573  0.37663  Biso   1.000  O
  O15      1.0000 0.16367  0.27273  0.79003  Biso   1.000  O
  O16      1.0000 0.22427  0.39393  0.37663  Biso   1.000  O
  O17      1.0000 0.72727  0.89093  0.79003  Biso   1.000  O
  O18      1.0000 0.10907  0.83633  0.79003  Biso   1.000  O
  O19      1.0000 0.06060  0.50300  0.95670  Biso   1.000  O
  O20      1.0000 0.49700  0.55760  0.95670  Biso   1.000  O
  O21      1.0000 0.50300  0.06060  0.54330  Biso   1.000  O
  O22      1.0000 0.44240  0.93940  0.95670  Biso   1.000  O
  O23      1.0000 0.93940  0.44240  0.54330  Biso   1.000  O
  O24      1.0000 0.55760  0.49700  0.54330  Biso   1.000  O
  O25      1.0000 0.39393  0.16967  0.62337  Biso   1.000  O
  O26      1.0000 0.83033  0.22427  0.62337  Biso   1.000  O
  O27      1.0000 0.83633  0.72727  0.20997  Biso   1.000  O
  O28      1.0000 0.77573  0.60607  0.62337  Biso   1.000  O
  O29      1.0000 0.27273  0.10907  0.20997  Biso   1.000  O
  O30      1.0000 0.89093  0.16367  0.20997  Biso   1.000  O
  O31      1.0000 0.72727  0.83633  0.29003  Biso   1.000  O
  O32      1.0000 0.16367  0.89093  0.29003  Biso   1.000  O
  O33      1.0000 0.16967  0.39393  0.87663  Biso   1.000  O
  O34      1.0000 0.10907  0.27273  0.29003  Biso   1.000  O
  O35      1.0000 0.60607  0.77573  0.87663  Biso   1.000  O
  O36      1.0000 0.22427  0.83033  0.87663  Biso   1.000  O
  O37      1.0000 0.77630  0.33330  0.08330  Biso   1.000  O
  O38      1.0000 0.66670  0.44300  0.08330  Biso   1.000  O
  O39      1.0000 0.33330  0.77630  0.41670  Biso   1.000  O
  O40      1.0000 0.55700  0.22370  0.08330  Biso   1.000  O
  O41      1.0000 0.22370  0.55700  0.41670  Biso   1.000  O
  O42      1.0000 0.44300  0.66670  0.41670  Biso   1.000  O
  O43      1.0000 0.10963  0.99997  0.74997  Biso   1.000  O
  O44      1.0000 0.00003  0.10967  0.74997  Biso   1.000  O
  O45      1.0000 0.89033  0.89037  0.74997  Biso   1.000  O
  O46      1.0000 0.22370  0.66670  0.91670  Biso   1.000  O
  O47      1.0000 0.33330  0.55700  0.91670  Biso   1.000  O
  O48      1.0000 0.66670  0.22370  0.58330  Biso   1.000  O
  O49      1.0000 0.44300  0.77630  0.91670  Biso   1.000  O
  O50      1.0000 0.77630  0.44300  0.58330  Biso   1.000  O
  O51      1.0000 0.55700  0.33330  0.58330  Biso   1.000  O
  O52      1.0000 0.00003  0.89037  0.24997  Biso   1.000  O
  O53      1.0000 0.10963  0.10967  0.24997  Biso   1.000  O
  O54      1.0000 0.89033  0.99997  0.24997  Biso   1.000  O
  O55      1.0000 0.98320  0.33330  0.08330  Biso   1.000  O
  O56      1.0000 0.66670  0.64990  0.08330  Biso   1.000  O
  O57      1.0000 0.33330  0.98320  0.41670  Biso   1.000  O
  O58      1.0000 0.35010  0.01680  0.08330  Biso   1.000  O
  O59      1.0000 0.01680  0.35010  0.41670  Biso   1.000  O
  O60      1.0000 0.64990  0.66670  0.41670  Biso   1.000  O
  O61      1.0000 0.31653  0.99997  0.74997  Biso   1.000  O
  O62      1.0000 0.00003  0.31657  0.74997  Biso   1.000  O
  O63      1.0000 0.68343  0.68347  0.74997  Biso   1.000  O
  O64      1.0000 0.01680  0.66670  0.91670  Biso   1.000  O
  O65      1.0000 0.33330  0.35010  0.91670  Biso   1.000  O
  O66      1.0000 0.66670  0.01680  0.58330  Biso   1.000  O
  O67      1.0000 0.64990  0.98320  0.91670  Biso   1.000  O
  O68      1.0000 0.98320  0.64990  0.58330  Biso   1.000  O
  O69      1.0000 0.35010  0.33330  0.58330  Biso   1.000  O
  O70      1.0000 0.00003  0.68347  0.24997  Biso   1.000  O
  O71      1.0000 0.31653  0.31657  0.24997  Biso   1.000  O
  O72      1.0000 0.68343  0.99997  0.24997  Biso   1.000  O
  N1       1.0000 0.92550  0.37170  0.98900  Biso   1.000  N
  N2       1.0000 0.62830  0.55380  0.98900  Biso   1.000  N
  N3       1.0000 0.37170  0.92550  0.51100  Biso   1.000  N
  N4       1.0000 0.44620  0.07450  0.98900  Biso   1.000  N
  N5       1.0000 0.07450  0.44620  0.51100  Biso   1.000  N
  N6       1.0000 0.55380  0.62830  0.51100  Biso   1.000  N
  N7       1.0000 0.25883  0.03837  0.65567  Biso   1.000  N
  N8       1.0000 0.96163  0.22047  0.65567  Biso   1.000  N
  N9       1.0000 0.70503  0.59217  0.17767  Biso   1.000  N
  N10      1.0000 0.77953  0.74117  0.65567  Biso   1.000  N
  N11      1.0000 0.40783  0.11287  0.17767  Biso   1.000  N
  N12      1.0000 0.88713  0.29497  0.17767  Biso   1.000  N
  N13      1.0000 0.59217  0.70503  0.32233  Biso   1.000  N
  N14      1.0000 0.29497  0.88713  0.32233  Biso   1.000  N
  N15      1.0000 0.03837  0.25883  0.84433  Biso   1.000  N
  N16      1.0000 0.11287  0.40783  0.32233  Biso   1.000  N
  N17      1.0000 0.74117  0.77953  0.84433  Biso   1.000  N
  N18      1.0000 0.22047  0.96163  0.84433  Biso   1.000  N
  N19      1.0000 0.07450  0.62830  0.01100  Biso   1.000  N
  N20      1.0000 0.37170  0.44620  0.01100  Biso   1.000  N
  N21      1.0000 0.62830  0.07450  0.48900  Biso   1.000  N
  N22      1.0000 0.55380  0.92550  0.01100  Biso   1.000  N
  N23      1.0000 0.92550  0.55380  0.48900  Biso   1.000  N
  N24      1.0000 0.44620  0.37170  0.48900  Biso   1.000  N
  N25      1.0000 0.40783  0.29497  0.67767  Biso   1.000  N
  N26      1.0000 0.70503  0.11287  0.67767  Biso   1.000  N
  N27      1.0000 0.96163  0.74117  0.15567  Biso   1.000  N
  N28      1.0000 0.88713  0.59217  0.67767  Biso   1.000  N
  N29      1.0000 0.25883  0.22047  0.15567  Biso   1.000  N
  N30      1.0000 0.77953  0.03837  0.15567  Biso   1.000  N
  N31      1.0000 0.74117  0.96163  0.34433  Biso   1.000  N
  N32      1.0000 0.03837  0.77953  0.34433  Biso   1.000  N
  N33      1.0000 0.29497  0.40783  0.82233  Biso   1.000  N
  N34      1.0000 0.22047  0.25883  0.34433  Biso   1.000  N
  N35      1.0000 0.59217  0.88713  0.82233  Biso   1.000  N
  N36      1.0000 0.11287  0.70503  0.82233  Biso   1.000  N
  N37      1.0000 0.78750  0.19590  0.03430  Biso   1.000  N
  N38      1.0000 0.80410  0.59160  0.03430  Biso   1.000  N
  N39      1.0000 0.19590  0.78750  0.46570  Biso   1.000  N
  N40      1.0000 0.40840  0.21250  0.03430  Biso   1.000  N
  N41      1.0000 0.21250  0.40840  0.46570  Biso   1.000  N
  N42      1.0000 0.59160  0.80410  0.46570  Biso   1.000  N
  N43      1.0000 0.12083  0.86257  0.70097  Biso   1.000  N
  N44      1.0000 0.13743  0.25827  0.70097  Biso   1.000  N
  N45      1.0000 0.52923  0.45417  0.13237  Biso   1.000  N
  N46      1.0000 0.74173  0.87917  0.70097  Biso   1.000  N
  N47      1.0000 0.54583  0.07507  0.13237  Biso   1.000  N
  N48      1.0000 0.92493  0.47077  0.13237  Biso   1.000  N
  N49      1.0000 0.45417  0.52923  0.36763  Biso   1.000  N
  N50      1.0000 0.47077  0.92493  0.36763  Biso   1.000  N
  N51      1.0000 0.86257  0.12083  0.79903  Biso   1.000  N
  N52      1.0000 0.07507  0.54583  0.36763  Biso   1.000  N
  N53      1.0000 0.87917  0.74173  0.79903  Biso   1.000  N
  N54      1.0000 0.25827  0.13743  0.79903  Biso   1.000  N
  N55      1.0000 0.21250  0.80410  0.96570  Biso   1.000  N
  N56      1.0000 0.19590  0.40840  0.96570  Biso   1.000  N
  N57      1.0000 0.80410  0.21250  0.53430  Biso   1.000  N
  N58      1.0000 0.59160  0.78750  0.96570  Biso   1.000  N
  N59      1.0000 0.78750  0.59160  0.53430  Biso   1.000  N
  N60      1.0000 0.40840  0.19590  0.53430  Biso   1.000  N
  N61      1.0000 0.54583  0.47077  0.63237  Biso   1.000  N
  N62      1.0000 0.52923  0.07507  0.63237  Biso   1.000  N
  N63      1.0000 0.13743  0.87917  0.20097  Biso   1.000  N
  N64      1.0000 0.92493  0.45417  0.63237  Biso   1.000  N
  N65      1.0000 0.12083  0.25827  0.20097  Biso   1.000  N
  N66      1.0000 0.74173  0.86257  0.20097  Biso   1.000  N
  N67      1.0000 0.87917  0.13743  0.29903  Biso   1.000  N
  N68      1.0000 0.86257  0.74173  0.29903  Biso   1.000  N
  N69      1.0000 0.47077  0.54583  0.86763  Biso   1.000  N
  N70      1.0000 0.25827  0.12083  0.29903  Biso   1.000  N
  N71      1.0000 0.45417  0.92493  0.86763  Biso   1.000  N
  N72      1.0000 0.07507  0.52923  0.86763  Biso   1.000  N
  C1       1.0000 0.00270  0.53480  0.01610  Biso   1.000  C
  C2       1.0000 0.46520  0.46790  0.01610  Biso   1.000  C
  C3       1.0000 0.53480  0.00270  0.48390  Biso   1.000  C
  C4       1.0000 0.53210  0.99730  0.01610  Biso   1.000  C
  C5       1.0000 0.99730  0.53210  0.48390  Biso   1.000  C
  C6       1.0000 0.46790  0.46520  0.48390  Biso   1.000  C
  C7       1.0000 0.33603  0.20147  0.68277  Biso   1.000  C
  C8       1.0000 0.79853  0.13457  0.68277  Biso   1.000  C
  C9       1.0000 0.86813  0.66937  0.15057  Biso   1.000  C
  C10      1.0000 0.86543  0.66397  0.68277  Biso   1.000  C
  C11      1.0000 0.33063  0.19877  0.15057  Biso   1.000  C
  C12      1.0000 0.80123  0.13187  0.15057  Biso   1.000  C
  C13      1.0000 0.66937  0.86813  0.34943  Biso   1.000  C
  C14      1.0000 0.13187  0.80123  0.34943  Biso   1.000  C
  C15      1.0000 0.20147  0.33603  0.81723  Biso   1.000  C
  C16      1.0000 0.19877  0.33063  0.34943  Biso   1.000  C
  C17      1.0000 0.66397  0.86543  0.81723  Biso   1.000  C
  C18      1.0000 0.13457  0.79853  0.81723  Biso   1.000  C
  C19      1.0000 0.99730  0.46520  0.98390  Biso   1.000  C
  C20      1.0000 0.53480  0.53210  0.98390  Biso   1.000  C
  C21      1.0000 0.46520  0.99730  0.51610  Biso   1.000  C
  C22      1.0000 0.46790  0.00270  0.98390  Biso   1.000  C
  C23      1.0000 0.00270  0.46790  0.51610  Biso   1.000  C
  C24      1.0000 0.53210  0.53480  0.51610  Biso   1.000  C
  C25      1.0000 0.33063  0.13187  0.65057  Biso   1.000  C
  C26      1.0000 0.86813  0.19877  0.65057  Biso   1.000  C
  C27      1.0000 0.79853  0.66397  0.18277  Biso   1.000  C
  C28      1.0000 0.80123  0.66937  0.65057  Biso   1.000  C
  C29      1.0000 0.33603  0.13457  0.18277  Biso   1.000  C
  C30      1.0000 0.86543  0.20147  0.18277  Biso   1.000  C
  C31      1.0000 0.66397  0.79853  0.31723  Biso   1.000  C
  C32      1.0000 0.20147  0.86543  0.31723  Biso   1.000  C
  C33      1.0000 0.13187  0.33063  0.84943  Biso   1.000  C
  C34      1.0000 0.13457  0.33603  0.31723  Biso   1.000  C
  C35      1.0000 0.66937  0.80123  0.84943  Biso   1.000  C
  C36      1.0000 0.19877  0.86813  0.84943  Biso   1.000  C
  C37      1.0000 0.91110  0.29910  0.95950  Biso   1.000  C
  C38      1.0000 0.70090  0.61200  0.95950  Biso   1.000  C
  C39      1.0000 0.29910  0.91110  0.54050  Biso   1.000  C
  C40      1.0000 0.38800  0.08890  0.95950  Biso   1.000  C
  C41      1.0000 0.08890  0.38800  0.54050  Biso   1.000  C
  C42      1.0000 0.61200  0.70090  0.54050  Biso   1.000  C
  C43      1.0000 0.24443  0.96577  0.62617  Biso   1.000  C
  C44      1.0000 0.03423  0.27867  0.62617  Biso   1.000  C
  C45      1.0000 0.63243  0.57777  0.20717  Biso   1.000  C
  C46      1.0000 0.72133  0.75557  0.62617  Biso   1.000  C
  C47      1.0000 0.42223  0.05467  0.20717  Biso   1.000  C
  C48      1.0000 0.94533  0.36757  0.20717  Biso   1.000  C
  C49      1.0000 0.57777  0.63243  0.29283  Biso   1.000  C
  C50      1.0000 0.36757  0.94533  0.29283  Biso   1.000  C
  C51      1.0000 0.96577  0.24443  0.87383  Biso   1.000  C
  C52      1.0000 0.05467  0.42223  0.29283  Biso   1.000  C
  C53      1.0000 0.75557  0.72133  0.87383  Biso   1.000  C
  C54      1.0000 0.27867  0.03423  0.87383  Biso   1.000  C
  C55      1.0000 0.08890  0.70090  0.04050  Biso   1.000  C
  C56      1.0000 0.29910  0.38800  0.04050  Biso   1.000  C
  C57      1.0000 0.70090  0.08890  0.45950  Biso   1.000  C
  C58      1.0000 0.61200  0.91110  0.04050  Biso   1.000  C
  C59      1.0000 0.91110  0.61200  0.45950  Biso   1.000  C
  C60      1.0000 0.38800  0.29910  0.45950  Biso   1.000  C
  C61      1.0000 0.42223  0.36757  0.70717  Biso   1.000  C
  C62      1.0000 0.63243  0.05467  0.70717  Biso   1.000  C
  C63      1.0000 0.03423  0.75557  0.12617  Biso   1.000  C
  C64      1.0000 0.94533  0.57777  0.70717  Biso   1.000  C
  C65      1.0000 0.24443  0.27867  0.12617  Biso   1.000  C
  C66      1.0000 0.72133  0.96577  0.12617  Biso   1.000  C
  C67      1.0000 0.75557  0.03423  0.37383  Biso   1.000  C
  C68      1.0000 0.96577  0.72133  0.37383  Biso   1.000  C
  C69      1.0000 0.36757  0.42223  0.79283  Biso   1.000  C
  C70      1.0000 0.27867  0.24443  0.37383  Biso   1.000  C
  C71      1.0000 0.57777  0.94533  0.79283  Biso   1.000  C
  C72      1.0000 0.05467  0.63243  0.79283  Biso   1.000  C
  C73      1.0000 0.83010  0.19260  0.96810  Biso   1.000  C
  C74      1.0000 0.80740  0.63750  0.96810  Biso   1.000  C
  C75      1.0000 0.19260  0.83010  0.53190  Biso   1.000  C
  C76      1.0000 0.36250  0.16990  0.96810  Biso   1.000  C
  C77      1.0000 0.16990  0.36250  0.53190  Biso   1.000  C
  C78      1.0000 0.63750  0.80740  0.53190  Biso   1.000  C
  C79      1.0000 0.16343  0.85927  0.63477  Biso   1.000  C
  C80      1.0000 0.14073  0.30417  0.63477  Biso   1.000  C
  C81      1.0000 0.52593  0.49677  0.19857  Biso   1.000  C
  C82      1.0000 0.69583  0.83657  0.63477  Biso   1.000  C
  C83      1.0000 0.50323  0.02917  0.19857  Biso   1.000  C
  C84      1.0000 0.97083  0.47407  0.19857  Biso   1.000  C
  C85      1.0000 0.49677  0.52593  0.30143  Biso   1.000  C
  C86      1.0000 0.47407  0.97083  0.30143  Biso   1.000  C
  C87      1.0000 0.85927  0.16343  0.86523  Biso   1.000  C
  C88      1.0000 0.02917  0.50323  0.30143  Biso   1.000  C
  C89      1.0000 0.83657  0.69583  0.86523  Biso   1.000  C
  C90      1.0000 0.30417  0.14073  0.86523  Biso   1.000  C
  C91      1.0000 0.16990  0.80740  0.03190  Biso   1.000  C
  C92      1.0000 0.19260  0.36250  0.03190  Biso   1.000  C
  C93      1.0000 0.80740  0.16990  0.46810  Biso   1.000  C
  C94      1.0000 0.63750  0.83010  0.03190  Biso   1.000  C
  C95      1.0000 0.83010  0.63750  0.46810  Biso   1.000  C
  C96      1.0000 0.36250  0.19260  0.46810  Biso   1.000  C
  C97      1.0000 0.50323  0.47407  0.69857  Biso   1.000  C
  C98      1.0000 0.52593  0.02917  0.69857  Biso   1.000  C
  C99      1.0000 0.14073  0.83657  0.13477  Biso   1.000  C
  C100     1.0000 0.97083  0.49677  0.69857  Biso   1.000  C
  C101     1.0000 0.16343  0.30417  0.13477  Biso   1.000  C
  C102     1.0000 0.69583  0.85927  0.13477  Biso   1.000  C
  C103     1.0000 0.83657  0.14073  0.36523  Biso   1.000  C
  C104     1.0000 0.85927  0.69583  0.36523  Biso   1.000  C
  C105     1.0000 0.47407  0.50323  0.80143  Biso   1.000  C
  C106     1.0000 0.30417  0.16343  0.36523  Biso   1.000  C
  C107     1.0000 0.49677  0.97083  0.80143  Biso   1.000  C
  C108     1.0000 0.02917  0.52593  0.80143  Biso   1.000  C
  C109     1.0000 0.83500  0.15670  0.00670  Biso   1.000  C
  C110     1.0000 0.84330  0.67830  0.00670  Biso   1.000  C
  C111     1.0000 0.15670  0.83500  0.49330  Biso   1.000  C
  C112     1.0000 0.32170  0.16500  0.00670  Biso   1.000  C
  C113     1.0000 0.16500  0.32170  0.49330  Biso   1.000  C
  C114     1.0000 0.67830  0.84330  0.49330  Biso   1.000  C
  C115     1.0000 0.16833  0.82337  0.67337  Biso   1.000  C
  C116     1.0000 0.17663  0.34497  0.67337  Biso   1.000  C
  C117     1.0000 0.49003  0.50167  0.15997  Biso   1.000  C
  C118     1.0000 0.65503  0.83167  0.67337  Biso   1.000  C
  C119     1.0000 0.49833  0.98837  0.15997  Biso   1.000  C
  C120     1.0000 0.01163  0.50997  0.15997  Biso   1.000  C
  C121     1.0000 0.50167  0.49003  0.34003  Biso   1.000  C
  C122     1.0000 0.50997  0.01163  0.34003  Biso   1.000  C
  C123     1.0000 0.82337  0.16833  0.82663  Biso   1.000  C
  C124     1.0000 0.98837  0.49833  0.34003  Biso   1.000  C
  C125     1.0000 0.83167  0.65503  0.82663  Biso   1.000  C
  C126     1.0000 0.34497  0.17663  0.82663  Biso   1.000  C
  C127     1.0000 0.16500  0.84330  0.99330  Biso   1.000  C
  C128     1.0000 0.15670  0.32170  0.99330  Biso   1.000  C
  C129     1.0000 0.84330  0.16500  0.50670  Biso   1.000  C
  C130     1.0000 0.67830  0.83500  0.99330  Biso   1.000  C
  C131     1.0000 0.83500  0.67830  0.50670  Biso   1.000  C
  C132     1.0000 0.32170  0.15670  0.50670  Biso   1.000  C
  C133     1.0000 0.49833  0.50997  0.65997  Biso   1.000  C
  C134     1.0000 0.49003  0.98837  0.65997  Biso   1.000  C
  C135     1.0000 0.17663  0.83167  0.17337  Biso   1.000  C
  C136     1.0000 0.01163  0.50167  0.65997  Biso   1.000  C
  C137     1.0000 0.16833  0.34497  0.17337  Biso   1.000  C
  C138     1.0000 0.65503  0.82337  0.17337  Biso   1.000  C
  C139     1.0000 0.83167  0.17663  0.32663  Biso   1.000  C
  C140     1.0000 0.82337  0.65503  0.32663  Biso   1.000  C
  C141     1.0000 0.50997  0.49833  0.84003  Biso   1.000  C
  C142     1.0000 0.34497  0.16833  0.32663  Biso   1.000  C
  C143     1.0000 0.50167  0.01163  0.84003  Biso   1.000  C
  C144     1.0000 0.98837  0.49003  0.84003  Biso   1.000  C
  H1       1.0000 0.76470  0.18780  0.96500  Biso   1.000  H
  H2       1.0000 0.81220  0.57690  0.96500  Biso   1.000  H
  H3       1.0000 0.18780  0.76470  0.53500  Biso   1.000  H
  H4       1.0000 0.42310  0.23530  0.96500  Biso   1.000  H
  H5       1.0000 0.23530  0.42310  0.53500  Biso   1.000  H
  H6       1.0000 0.57690  0.81220  0.53500  Biso   1.000  H
  H7       1.0000 0.09803  0.85447  0.63167  Biso   1.000  H
  H8       1.0000 0.14553  0.24357  0.63167  Biso   1.000  H
  H9       1.0000 0.52113  0.43137  0.20167  Biso   1.000  H
  H10      1.0000 0.75643  0.90197  0.63167  Biso   1.000  H
  H11      1.0000 0.56863  0.08977  0.20167  Biso   1.000  H
  H12      1.0000 0.91023  0.47887  0.20167  Biso   1.000  H
  H13      1.0000 0.43137  0.52113  0.29833  Biso   1.000  H
  H14      1.0000 0.47887  0.91023  0.29833  Biso   1.000  H
  H15      1.0000 0.85447  0.09803  0.86833  Biso   1.000  H
  H16      1.0000 0.08977  0.56863  0.29833  Biso   1.000  H
  H17      1.0000 0.90197  0.75643  0.86833  Biso   1.000  H
  H18      1.0000 0.24357  0.14553  0.86833  Biso   1.000  H
  H19      1.0000 0.23530  0.81220  0.03500  Biso   1.000  H
  H20      1.0000 0.18780  0.42310  0.03500  Biso   1.000  H
  H21      1.0000 0.81220  0.23530  0.46500  Biso   1.000  H
  H22      1.0000 0.57690  0.76470  0.03500  Biso   1.000  H
  H23      1.0000 0.76470  0.57690  0.46500  Biso   1.000  H
  H24      1.0000 0.42310  0.18780  0.46500  Biso   1.000  H
  H25      1.0000 0.56863  0.47887  0.70167  Biso   1.000  H
  H26      1.0000 0.52113  0.08977  0.70167  Biso   1.000  H
  H27      1.0000 0.14553  0.90197  0.13167  Biso   1.000  H
  H28      1.0000 0.91023  0.43137  0.70167  Biso   1.000  H
  H29      1.0000 0.09803  0.24357  0.13167  Biso   1.000  H
  H30      1.0000 0.75643  0.85447  0.13167  Biso   1.000  H
  H31      1.0000 0.90197  0.14553  0.36833  Biso   1.000  H
  H32      1.0000 0.85447  0.75643  0.36833  Biso   1.000  H
  H33      1.0000 0.47887  0.56863  0.79833  Biso   1.000  H
  H34      1.0000 0.24357  0.09803  0.36833  Biso   1.000  H
  H35      1.0000 0.43137  0.91023  0.79833  Biso   1.000  H
  H36      1.0000 0.08977  0.52113  0.79833  Biso   1.000  H
  H37      1.0000 0.83450  0.14790  0.94950  Biso   1.000  H
  H38      1.0000 0.85210  0.68660  0.94950  Biso   1.000  H
  H39      1.0000 0.14790  0.83450  0.55050  Biso   1.000  H
  H40      1.0000 0.31340  0.16550  0.94950  Biso   1.000  H
  H41      1.0000 0.16550  0.31340  0.55050  Biso   1.000  H
  H42      1.0000 0.68660  0.85210  0.55050  Biso   1.000  H
  H43      1.0000 0.16783  0.81457  0.61617  Biso   1.000  H
  H44      1.0000 0.18543  0.35327  0.61617  Biso   1.000  H
  H45      1.0000 0.48123  0.50117  0.21717  Biso   1.000  H
  H46      1.0000 0.64673  0.83217  0.61617  Biso   1.000  H
  H47      1.0000 0.49883  0.98007  0.21717  Biso   1.000  H
  H48      1.0000 0.01993  0.51877  0.21717  Biso   1.000  H
  H49      1.0000 0.50117  0.48123  0.28283  Biso   1.000  H
  H50      1.0000 0.51877  0.01993  0.28283  Biso   1.000  H
  H51      1.0000 0.81457  0.16783  0.88383  Biso   1.000  H
  H52      1.0000 0.98007  0.49883  0.28283  Biso   1.000  H
  H53      1.0000 0.83217  0.64673  0.88383  Biso   1.000  H
  H54      1.0000 0.35327  0.18543  0.88383  Biso   1.000  H
  H55      1.0000 0.16550  0.85210  0.05050  Biso   1.000  H
  H56      1.0000 0.14790  0.31340  0.05050  Biso   1.000  H
  H57      1.0000 0.85210  0.16550  0.44950  Biso   1.000  H
  H58      1.0000 0.68660  0.83450  0.05050  Biso   1.000  H
  H59      1.0000 0.83450  0.68660  0.44950  Biso   1.000  H
  H60      1.0000 0.31340  0.14790  0.44950  Biso   1.000  H
  H61      1.0000 0.49883  0.51877  0.71717  Biso   1.000  H
  H62      1.0000 0.48123  0.98007  0.71717  Biso   1.000  H
  H63      1.0000 0.18543  0.83217  0.11617  Biso   1.000  H
  H64      1.0000 0.01993  0.50117  0.71717  Biso   1.000  H
  H65      1.0000 0.16783  0.35327  0.11617  Biso   1.000  H
  H66      1.0000 0.64673  0.81457  0.11617  Biso   1.000  H
  H67      1.0000 0.83217  0.18543  0.38383  Biso   1.000  H
  H68      1.0000 0.81457  0.64673  0.38383  Biso   1.000  H
  H69      1.0000 0.51877  0.49883  0.78283  Biso   1.000  H
  H70      1.0000 0.35327  0.16783  0.38383  Biso   1.000  H
  H71      1.0000 0.50117  0.01993  0.78283  Biso   1.000  H
  H72      1.0000 0.98007  0.48123  0.78283  Biso   1.000  H
  H73      1.0000 0.90490  0.18100  0.01380  Biso   1.000  H
  H74      1.0000 0.81900  0.72390  0.01380  Biso   1.000  H
  H75      1.0000 0.18100  0.90490  0.48620  Biso   1.000  H
  H76      1.0000 0.27610  0.09510  0.01380  Biso   1.000  H
  H77      1.0000 0.09510  0.27610  0.48620  Biso   1.000  H
  H78      1.0000 0.72390  0.81900  0.48620  Biso   1.000  H
  H79      1.0000 0.23823  0.84767  0.68047  Biso   1.000  H
  H80      1.0000 0.15233  0.39057  0.68047  Biso   1.000  H
  H81      1.0000 0.51433  0.57157  0.15287  Biso   1.000  H
  H82      1.0000 0.60943  0.76177  0.68047  Biso   1.000  H
  H83      1.0000 0.42843  0.94277  0.15287  Biso   1.000  H
  H84      1.0000 0.05723  0.48567  0.15287  Biso   1.000  H
  H85      1.0000 0.57157  0.51433  0.34713  Biso   1.000  H
  H86      1.0000 0.48567  0.05723  0.34713  Biso   1.000  H
  H87      1.0000 0.84767  0.23823  0.81953  Biso   1.000  H
  H88      1.0000 0.94277  0.42843  0.34713  Biso   1.000  H
  H89      1.0000 0.76177  0.60943  0.81953  Biso   1.000  H
  H90      1.0000 0.39057  0.15233  0.81953  Biso   1.000  H
  H91      1.0000 0.09510  0.81900  0.98620  Biso   1.000  H
  H92      1.0000 0.18100  0.27610  0.98620  Biso   1.000  H
  H93      1.0000 0.81900  0.09510  0.51380  Biso   1.000  H
  H94      1.0000 0.72390  0.90490  0.98620  Biso   1.000  H
  H95      1.0000 0.90490  0.72390  0.51380  Biso   1.000  H
  H96      1.0000 0.27610  0.18100  0.51380  Biso   1.000  H
  H97      1.0000 0.42843  0.48567  0.65287  Biso   1.000  H
  H98      1.0000 0.51433  0.94277  0.65287  Biso   1.000  H
  H99      1.0000 0.15233  0.76177  0.18047  Biso   1.000  H
  H100     1.0000 0.05723  0.57157  0.65287  Biso   1.000  H
  H101     1.0000 0.23823  0.39057  0.18047  Biso   1.000  H
  H102     1.0000 0.60943  0.84767  0.18047  Biso   1.000  H
  H103     1.0000 0.76177  0.15233  0.31953  Biso   1.000  H
  H104     1.0000 0.84767  0.60943  0.31953  Biso   1.000  H
  H105     1.0000 0.48567  0.42843  0.84713  Biso   1.000  H
  H106     1.0000 0.39057  0.23823  0.31953  Biso   1.000  H
  H107     1.0000 0.57157  0.05723  0.84713  Biso   1.000  H
  H108     1.0000 0.94277  0.51433  0.84713  Biso   1.000  H
  H109     1.0000 0.79920  0.08340  0.00730  Biso   1.000  H
  H110     1.0000 0.91660  0.71580  0.00730  Biso   1.000  H
  H111     1.0000 0.08340  0.79920  0.49270  Biso   1.000  H
  H112     1.0000 0.28420  0.20080  0.00730  Biso   1.000  H
  H113     1.0000 0.20080  0.28420  0.49270  Biso   1.000  H
  H114     1.0000 0.71580  0.91660  0.49270  Biso   1.000  H
  H115     1.0000 0.13253  0.75007  0.67397  Biso   1.000  H
  H116     1.0000 0.24993  0.38247  0.67397  Biso   1.000  H
  H117     1.0000 0.41673  0.46587  0.15937  Biso   1.000  H
  H118     1.0000 0.61753  0.86747  0.67397  Biso   1.000  H
  H119     1.0000 0.53413  0.95087  0.15937  Biso   1.000  H
  H120     1.0000 0.04913  0.58327  0.15937  Biso   1.000  H
  H121     1.0000 0.46587  0.41673  0.34063  Biso   1.000  H
  H122     1.0000 0.58327  0.04913  0.34063  Biso   1.000  H
  H123     1.0000 0.75007  0.13253  0.82603  Biso   1.000  H
  H124     1.0000 0.95087  0.53413  0.34063  Biso   1.000  H
  H125     1.0000 0.86747  0.61753  0.82603  Biso   1.000  H
  H126     1.0000 0.38247  0.24993  0.82603  Biso   1.000  H
  H127     1.0000 0.20080  0.91660  0.99270  Biso   1.000  H
  H128     1.0000 0.08340  0.28420  0.99270  Biso   1.000  H
  H129     1.0000 0.91660  0.20080  0.50730  Biso   1.000  H
  H130     1.0000 0.71580  0.79920  0.99270  Biso   1.000  H
  H131     1.0000 0.79920  0.71580  0.50730  Biso   1.000  H
  H132     1.0000 0.28420  0.08340  0.50730  Biso   1.000  H
  H133     1.0000 0.53413  0.58327  0.65937  Biso   1.000  H
  H134     1.0000 0.41673  0.95087  0.65937  Biso   1.000  H
  H135     1.0000 0.24993  0.86747  0.17397  Biso   1.000  H
  H136     1.0000 0.04913  0.46587  0.65937  Biso   1.000  H
  H137     1.0000 0.13253  0.38247  0.17397  Biso   1.000  H
  H138     1.0000 0.61753  0.75007  0.17397  Biso   1.000  H
  H139     1.0000 0.86747  0.24993  0.32603  Biso   1.000  H
  H140     1.0000 0.75007  0.61753  0.32603  Biso   1.000  H
  H141     1.0000 0.58327  0.53413  0.84063  Biso   1.000  H
  H142     1.0000 0.38247  0.13253  0.32603  Biso   1.000  H
  H143     1.0000 0.46587  0.04913  0.84063  Biso   1.000  H
  H144     1.0000 0.95087  0.41673  0.84063  Biso   1.000  H
  H145     1.0000 0.04460  0.38020  0.08350  Biso   1.000  H
  H146     1.0000 0.61980  0.66440  0.08350  Biso   1.000  H
  H147     1.0000 0.38020  0.04460  0.41650  Biso   1.000  H
  H148     1.0000 0.33560  0.95540  0.08350  Biso   1.000  H
  H149     1.0000 0.95540  0.33560  0.41650  Biso   1.000  H
  H150     1.0000 0.66440  0.61980  0.41650  Biso   1.000  H
  H151     1.0000 0.37793  0.04687  0.75017  Biso   1.000  H
  H152     1.0000 0.95313  0.33107  0.75017  Biso   1.000  H
  H153     1.0000 0.71353  0.71127  0.08317  Biso   1.000  H
  H154     1.0000 0.66893  0.62207  0.75017  Biso   1.000  H
  H155     1.0000 0.28873  0.00227  0.08317  Biso   1.000  H
  H156     1.0000 0.99773  0.28647  0.08317  Biso   1.000  H
  H157     1.0000 0.71127  0.71353  0.41683  Biso   1.000  H
  H158     1.0000 0.28647  0.99773  0.41683  Biso   1.000  H
  H159     1.0000 0.04687  0.37793  0.74983  Biso   1.000  H
  H160     1.0000 0.00227  0.28873  0.41683  Biso   1.000  H
  H161     1.0000 0.62207  0.66893  0.74983  Biso   1.000  H
  H162     1.0000 0.33107  0.95313  0.74983  Biso   1.000  H
  H163     1.0000 0.95540  0.61980  0.91650  Biso   1.000  H
  H164     1.0000 0.38020  0.33560  0.91650  Biso   1.000  H
  H165     1.0000 0.61980  0.95540  0.58350  Biso   1.000  H
  H166     1.0000 0.66440  0.04460  0.91650  Biso   1.000  H
  H167     1.0000 0.04460  0.66440  0.58350  Biso   1.000  H
  H168     1.0000 0.33560  0.38020  0.58350  Biso   1.000  H
  H169     1.0000 0.28873  0.28647  0.58317  Biso   1.000  H
  H170     1.0000 0.71353  0.00227  0.58317  Biso   1.000  H
  H171     1.0000 0.95313  0.62207  0.25017  Biso   1.000  H
  H172     1.0000 0.99773  0.71127  0.58317  Biso   1.000  H
  H173     1.0000 0.37793  0.33107  0.25017  Biso   1.000  H
  H174     1.0000 0.66893  0.04687  0.25017  Biso   1.000  H
  H175     1.0000 0.62207  0.95313  0.24983  Biso   1.000  H
  H176     1.0000 0.04687  0.66893  0.24983  Biso   1.000  H
  H177     1.0000 0.28647  0.28873  0.91683  Biso   1.000  H
  H178     1.0000 0.33107  0.37793  0.24983  Biso   1.000  H
  H179     1.0000 0.71127  0.99773  0.91683  Biso   1.000  H
  H180     1.0000 0.00227  0.71353  0.91683  Biso   1.000  H
  H181     1.0000 0.72690  0.17050  0.04350  Biso   1.000  H
  H182     1.0000 0.82950  0.55640  0.04350  Biso   1.000  H
  H183     1.0000 0.17050  0.72690  0.45650  Biso   1.000  H
  H184     1.0000 0.44360  0.27310  0.04350  Biso   1.000  H
  H185     1.0000 0.27310  0.44360  0.45650  Biso   1.000  H
  H186     1.0000 0.55640  0.82950  0.45650  Biso   1.000  H
  H187     1.0000 0.06023  0.83717  0.71017  Biso   1.000  H
  H188     1.0000 0.16283  0.22307  0.71017  Biso   1.000  H
  H189     1.0000 0.50383  0.39357  0.12317  Biso   1.000  H
  H190     1.0000 0.77693  0.93977  0.71017  Biso   1.000  H
  H191     1.0000 0.60643  0.11027  0.12317  Biso   1.000  H
  H192     1.0000 0.88973  0.49617  0.12317  Biso   1.000  H
  H193     1.0000 0.39357  0.50383  0.37683  Biso   1.000  H
  H194     1.0000 0.49617  0.88973  0.37683  Biso   1.000  H
  H195     1.0000 0.83717  0.06023  0.78983  Biso   1.000  H
  H196     1.0000 0.11027  0.60643  0.37683  Biso   1.000  H
  H197     1.0000 0.93977  0.77693  0.78983  Biso   1.000  H
  H198     1.0000 0.22307  0.16283  0.78983  Biso   1.000  H
  H199     1.0000 0.27310  0.82950  0.95650  Biso   1.000  H
  H200     1.0000 0.17050  0.44360  0.95650  Biso   1.000  H
  H201     1.0000 0.82950  0.27310  0.54350  Biso   1.000  H
  H202     1.0000 0.55640  0.72690  0.95650  Biso   1.000  H
  H203     1.0000 0.72690  0.55640  0.54350  Biso   1.000  H
  H204     1.0000 0.44360  0.17050  0.54350  Biso   1.000  H
  H205     1.0000 0.60643  0.49617  0.62317  Biso   1.000  H
  H206     1.0000 0.50383  0.11027  0.62317  Biso   1.000  H
  H207     1.0000 0.16283  0.93977  0.21017  Biso   1.000  H
  H208     1.0000 0.88973  0.39357  0.62317  Biso   1.000  H
  H209     1.0000 0.06023  0.22307  0.21017  Biso   1.000  H
  H210     1.0000 0.77693  0.83717  0.21017  Biso   1.000  H
  H211     1.0000 0.93977  0.16283  0.28983  Biso   1.000  H
  H212     1.0000 0.83717  0.77693  0.28983  Biso   1.000  H
  H213     1.0000 0.49617  0.60643  0.87683  Biso   1.000  H
  H214     1.0000 0.22307  0.06023  0.28983  Biso   1.000  H
  H215     1.0000 0.39357  0.88973  0.87683  Biso   1.000  H
  H216     1.0000 0.11027  0.50383  0.87683  Biso   1.000  H
  H217     1.0000 0.80980  0.17610  0.04880  Biso   1.000  H
  H218     1.0000 0.82390  0.63370  0.04880  Biso   1.000  H
  H219     1.0000 0.17610  0.80980  0.45120  Biso   1.000  H
  H220     1.0000 0.36630  0.19020  0.04880  Biso   1.000  H
  H221     1.0000 0.19020  0.36630  0.45120  Biso   1.000  H
  H222     1.0000 0.63370  0.82390  0.45120  Biso   1.000  H
  H223     1.0000 0.14313  0.84277  0.71547  Biso   1.000  H
  H224     1.0000 0.15723  0.30037  0.71547  Biso   1.000  H
  H225     1.0000 0.50943  0.47647  0.11787  Biso   1.000  H
  H226     1.0000 0.69963  0.85687  0.71547  Biso   1.000  H
  H227     1.0000 0.52353  0.03297  0.11787  Biso   1.000  H
  H228     1.0000 0.96703  0.49057  0.11787  Biso   1.000  H
  H229     1.0000 0.47647  0.50943  0.38213  Biso   1.000  H
  H230     1.0000 0.49057  0.96703  0.38213  Biso   1.000  H
  H231     1.0000 0.84277  0.14313  0.78453  Biso   1.000  H
  H232     1.0000 0.03297  0.52353  0.38213  Biso   1.000  H
  H233     1.0000 0.85687  0.69963  0.78453  Biso   1.000  H
  H234     1.0000 0.30037  0.15723  0.78453  Biso   1.000  H
  H235     1.0000 0.19020  0.82390  0.95120  Biso   1.000  H
  H236     1.0000 0.17610  0.36630  0.95120  Biso   1.000  H
  H237     1.0000 0.82390  0.19020  0.54880  Biso   1.000  H
  H238     1.0000 0.63370  0.80980  0.95120  Biso   1.000  H
  H239     1.0000 0.80980  0.63370  0.54880  Biso   1.000  H
  H240     1.0000 0.36630  0.17610  0.54880  Biso   1.000  H
  H241     1.0000 0.52353  0.49057  0.61787  Biso   1.000  H
  H242     1.0000 0.50943  0.03297  0.61787  Biso   1.000  H
  H243     1.0000 0.15723  0.85687  0.21547  Biso   1.000  H
  H244     1.0000 0.96703  0.47647  0.61787  Biso   1.000  H
  H245     1.0000 0.14313  0.30037  0.21547  Biso   1.000  H
  H246     1.0000 0.69963  0.84277  0.21547  Biso   1.000  H
  H247     1.0000 0.85687  0.15723  0.28453  Biso   1.000  H
  H248     1.0000 0.84277  0.69963  0.28453  Biso   1.000  H
  H249     1.0000 0.49057  0.52353  0.88213  Biso   1.000  H
  H250     1.0000 0.30037  0.14313  0.28453  Biso   1.000  H
  H251     1.0000 0.47647  0.96703  0.88213  Biso   1.000  H
  H252     1.0000 0.03297  0.50943  0.88213  Biso   1.000  H
  H253     1.0000 0.96920  0.31450  0.95370  Biso   1.000  H
  H254     1.0000 0.68550  0.65470  0.95370  Biso   1.000  H
  H255     1.0000 0.31450  0.96920  0.54630  Biso   1.000  H
  H256     1.0000 0.34530  0.03080  0.95370  Biso   1.000  H
  H257     1.0000 0.03080  0.34530  0.54630  Biso   1.000  H
  H258     1.0000 0.65470  0.68550  0.54630  Biso   1.000  H
  H259     1.0000 0.30253  0.98117  0.62037  Biso   1.000  H
  H260     1.0000 0.01883  0.32137  0.62037  Biso   1.000  H
  H261     1.0000 0.64783  0.63587  0.21297  Biso   1.000  H
  H262     1.0000 0.67863  0.69747  0.62037  Biso   1.000  H
  H263     1.0000 0.36413  0.01197  0.21297  Biso   1.000  H
  H264     1.0000 0.98803  0.35217  0.21297  Biso   1.000  H
  H265     1.0000 0.63587  0.64783  0.28703  Biso   1.000  H
  H266     1.0000 0.35217  0.98803  0.28703  Biso   1.000  H
  H267     1.0000 0.98117  0.30253  0.87963  Biso   1.000  H
  H268     1.0000 0.01197  0.36413  0.28703  Biso   1.000  H
  H269     1.0000 0.69747  0.67863  0.87963  Biso   1.000  H
  H270     1.0000 0.32137  0.01883  0.87963  Biso   1.000  H
  H271     1.0000 0.03080  0.68550  0.04630  Biso   1.000  H
  H272     1.0000 0.31450  0.34530  0.04630  Biso   1.000  H
  H273     1.0000 0.68550  0.03080  0.45370  Biso   1.000  H
  H274     1.0000 0.65470  0.96920  0.04630  Biso   1.000  H
  H275     1.0000 0.96920  0.65470  0.45370  Biso   1.000  H
  H276     1.0000 0.34530  0.31450  0.45370  Biso   1.000  H
  H277     1.0000 0.36413  0.35217  0.71297  Biso   1.000  H
  H278     1.0000 0.64783  0.01197  0.71297  Biso   1.000  H
  H279     1.0000 0.01883  0.69747  0.12037  Biso   1.000  H
  H280     1.0000 0.98803  0.63587  0.71297  Biso   1.000  H
  H281     1.0000 0.30253  0.32137  0.12037  Biso   1.000  H
  H282     1.0000 0.67863  0.98117  0.12037  Biso   1.000  H
  H283     1.0000 0.69747  0.01883  0.37963  Biso   1.000  H
  H284     1.0000 0.98117  0.67863  0.37963  Biso   1.000  H
  H285     1.0000 0.35217  0.36413  0.78703  Biso   1.000  H
  H286     1.0000 0.32137  0.30253  0.37963  Biso   1.000  H
  H287     1.0000 0.63587  0.98803  0.78703  Biso   1.000  H
  H288     1.0000 0.01197  0.64783  0.78703  Biso   1.000  H
  H289     1.0000 0.86370  0.30170  0.94560  Biso   1.000  H
  H290     1.0000 0.69830  0.56200  0.94560  Biso   1.000  H
  H291     1.0000 0.30170  0.86370  0.55440  Biso   1.000  H
  H292     1.0000 0.43800  0.13630  0.94560  Biso   1.000  H
  H293     1.0000 0.13630  0.43800  0.55440  Biso   1.000  H
  H294     1.0000 0.56200  0.69830  0.55440  Biso   1.000  H
  H295     1.0000 0.19703  0.96837  0.61227  Biso   1.000  H
  H296     1.0000 0.03163  0.22867  0.61227  Biso   1.000  H
  H297     1.0000 0.63503  0.53037  0.22107  Biso   1.000  H
  H298     1.0000 0.77133  0.80297  0.61227  Biso   1.000  H
  H299     1.0000 0.46963  0.10467  0.22107  Biso   1.000  H
  H300     1.0000 0.89533  0.36497  0.22107  Biso   1.000  H
  H301     1.0000 0.53037  0.63503  0.27893  Biso   1.000  H
  H302     1.0000 0.36497  0.89533  0.27893  Biso   1.000  H
  H303     1.0000 0.96837  0.19703  0.88773  Biso   1.000  H
  H304     1.0000 0.10467  0.46963  0.27893  Biso   1.000  H
  H305     1.0000 0.80297  0.77133  0.88773  Biso   1.000  H
  H306     1.0000 0.22867  0.03163  0.88773  Biso   1.000  H
  H307     1.0000 0.13630  0.69830  0.05440  Biso   1.000  H
  H308     1.0000 0.30170  0.43800  0.05440  Biso   1.000  H
  H309     1.0000 0.69830  0.13630  0.44560  Biso   1.000  H
  H310     1.0000 0.56200  0.86370  0.05440  Biso   1.000  H
  H311     1.0000 0.86370  0.56200  0.44560  Biso   1.000  H
  H312     1.0000 0.43800  0.30170  0.44560  Biso   1.000  H
  H313     1.0000 0.46963  0.36497  0.72107  Biso   1.000  H
  H314     1.0000 0.63503  0.10467  0.72107  Biso   1.000  H
  H315     1.0000 0.03163  0.80297  0.11227  Biso   1.000  H
  H316     1.0000 0.89533  0.53037  0.72107  Biso   1.000  H
  H317     1.0000 0.19703  0.22867  0.11227  Biso   1.000  H
  H318     1.0000 0.77133  0.96837  0.11227  Biso   1.000  H
  H319     1.0000 0.80297  0.03163  0.38773  Biso   1.000  H
  H320     1.0000 0.96837  0.77133  0.38773  Biso   1.000  H
  H321     1.0000 0.36497  0.46963  0.77893  Biso   1.000  H
  H322     1.0000 0.22867  0.19703  0.38773  Biso   1.000  H
  H323     1.0000 0.53037  0.89533  0.77893  Biso   1.000  H
  H324     1.0000 0.10467  0.63503  0.77893  Biso   1.000  H
  Br1      1.0000 0.66670  0.33330  0.98600  Biso   1.000  Br
  Br2      1.0000 0.33330  0.66670  0.51400  Biso   1.000  Br
  Br3      1.0000 0.00003  0.99997  0.65267  Biso   1.000  Br
  Br4      1.0000 0.66663  0.33337  0.18067  Biso   1.000  Br
  Br5      1.0000 0.33337  0.66663  0.31933  Biso   1.000  Br
  Br6      1.0000 0.99997  0.00003  0.84733  Biso   1.000  Br
  Br7      1.0000 0.33330  0.66670  0.01400  Biso   1.000  Br
  Br8      1.0000 0.66670  0.33330  0.48600  Biso   1.000  Br
  Br9      1.0000 0.66663  0.33337  0.68067  Biso   1.000  Br
  Br10     1.0000 0.00003  0.99997  0.15267  Biso   1.000  Br
  Br11     1.0000 0.99997  0.00003  0.34733  Biso   1.000  Br
  Br12     1.0000 0.33337  0.66663  0.81933  Biso   1.000  Br
  Br13     1.0000 0.00000  0.00000  0.00000  Biso   1.000  Br
  Br14     1.0000 0.00000  0.00000  0.50000  Biso   1.000  Br
  Br15     1.0000 0.33333  0.66667  0.66667  Biso   1.000  Br
  Br16     1.0000 0.33333  0.66667  0.16667  Biso   1.000  Br
  Br17     1.0000 0.66667  0.33333  0.33333  Biso   1.000  Br
  Br18     1.0000 0.66667  0.33333  0.83333  Biso   1.000  Br
  O73      1.0000 0.96230  0.13050  0.07610  Biso   1.000  O
  O74      1.0000 0.86950  0.83180  0.07610  Biso   1.000  O
  O75      1.0000 0.13050  0.96230  0.42390  Biso   1.000  O
  O76      1.0000 0.16820  0.03770  0.07610  Biso   1.000  O
  O77      1.0000 0.03770  0.16820  0.42390  Biso   1.000  O
  O78      1.0000 0.83180  0.86950  0.42390  Biso   1.000  O
  O79      1.0000 0.29563  0.79717  0.74277  Biso   1.000  O
  O80      1.0000 0.20283  0.49847  0.74277  Biso   1.000  O
  O81      1.0000 0.46383  0.62897  0.09057  Biso   1.000  O
  O82      1.0000 0.50153  0.70437  0.74277  Biso   1.000  O
  O83      1.0000 0.37103  0.83487  0.09057  Biso   1.000  O
  O84      1.0000 0.16513  0.53617  0.09057  Biso   1.000  O
  O85      1.0000 0.62897  0.46383  0.40943  Biso   1.000  O
  O86      1.0000 0.53617  0.16513  0.40943  Biso   1.000  O
  O87      1.0000 0.79717  0.29563  0.75723  Biso   1.000  O
  O88      1.0000 0.83487  0.37103  0.40943  Biso   1.000  O
  O89      1.0000 0.70437  0.50153  0.75723  Biso   1.000  O
  O90      1.0000 0.49847  0.20283  0.75723  Biso   1.000  O
  O91      1.0000 0.03770  0.86950  0.92390  Biso   1.000  O
  O92      1.0000 0.13050  0.16820  0.92390  Biso   1.000  O
  O93      1.0000 0.86950  0.03770  0.57610  Biso   1.000  O
  O94      1.0000 0.83180  0.96230  0.92390  Biso   1.000  O
  O95      1.0000 0.96230  0.83180  0.57610  Biso   1.000  O
  O96      1.0000 0.16820  0.13050  0.57610  Biso   1.000  O
  O97      1.0000 0.37103  0.53617  0.59057  Biso   1.000  O
  O98      1.0000 0.46383  0.83487  0.59057  Biso   1.000  O
  O99      1.0000 0.20283  0.70437  0.24277  Biso   1.000  O
  O100     1.0000 0.16513  0.62897  0.59057  Biso   1.000  O
  O101     1.0000 0.29563  0.49847  0.24277  Biso   1.000  O
  O102     1.0000 0.50153  0.79717  0.24277  Biso   1.000  O
  O103     1.0000 0.70437  0.20283  0.25723  Biso   1.000  O
  O104     1.0000 0.79717  0.50153  0.25723  Biso   1.000  O
  O105     1.0000 0.53617  0.37103  0.90943  Biso   1.000  O
  O106     1.0000 0.49847  0.29563  0.25723  Biso   1.000  O
  O107     1.0000 0.62897  0.16513  0.90943  Biso   1.000  O
  O108     1.0000 0.83487  0.46383  0.90943  Biso   1.000  O
  C145     1.0000 0.87680  0.19400  0.97640  Biso   1.000  C
  C146     1.0000 0.80600  0.68280  0.97640  Biso   1.000  C
  C147     1.0000 0.19400  0.87680  0.52360  Biso   1.000  C
  C148     1.0000 0.31720  0.12320  0.97640  Biso   1.000  C
  C149     1.0000 0.12320  0.31720  0.52360  Biso   1.000  C
  C150     1.0000 0.68280  0.80600  0.52360  Biso   1.000  C
  C151     1.0000 0.21013  0.86067  0.64307  Biso   1.000  C
  C152     1.0000 0.13933  0.34947  0.64307  Biso   1.000  C
  C153     1.0000 0.52733  0.54347  0.19027  Biso   1.000  C
  C154     1.0000 0.65053  0.78987  0.64307  Biso   1.000  C
  C155     1.0000 0.45653  0.98387  0.19027  Biso   1.000  C
  C156     1.0000 0.01613  0.47267  0.19027  Biso   1.000  C
  C157     1.0000 0.54347  0.52733  0.30973  Biso   1.000  C
  C158     1.0000 0.47267  0.01613  0.30973  Biso   1.000  C
  C159     1.0000 0.86067  0.21013  0.85693  Biso   1.000  C
  C160     1.0000 0.98387  0.45653  0.30973  Biso   1.000  C
  C161     1.0000 0.78987  0.65053  0.85693  Biso   1.000  C
  C162     1.0000 0.34947  0.13933  0.85693  Biso   1.000  C
  C163     1.0000 0.12320  0.80600  0.02360  Biso   1.000  C
  C164     1.0000 0.19400  0.31720  0.02360  Biso   1.000  C
  C165     1.0000 0.80600  0.12320  0.47640  Biso   1.000  C
  C166     1.0000 0.68280  0.87680  0.02360  Biso   1.000  C
  C167     1.0000 0.87680  0.68280  0.47640  Biso   1.000  C
  C168     1.0000 0.31720  0.19400  0.47640  Biso   1.000  C
  C169     1.0000 0.45653  0.47267  0.69027  Biso   1.000  C
  C170     1.0000 0.52733  0.98387  0.69027  Biso   1.000  C
  C171     1.0000 0.13933  0.78987  0.14307  Biso   1.000  C
  C172     1.0000 0.01613  0.54347  0.69027  Biso   1.000  C
  C173     1.0000 0.21013  0.34947  0.14307  Biso   1.000  C
  C174     1.0000 0.65053  0.86067  0.14307  Biso   1.000  C
  C175     1.0000 0.78987  0.13933  0.35693  Biso   1.000  C
  C176     1.0000 0.86067  0.65053  0.35693  Biso   1.000  C
  C177     1.0000 0.47267  0.45653  0.80973  Biso   1.000  C
  C178     1.0000 0.34947  0.21013  0.35693  Biso   1.000  C
  C179     1.0000 0.54347  0.01613  0.80973  Biso   1.000  C
  C180     1.0000 0.98387  0.52733  0.80973  Biso   1.000  C
  C181     1.0000 0.77680  0.15190  0.99510  Biso   1.000  C
  C182     1.0000 0.84810  0.62490  0.99510  Biso   1.000  C
  C183     1.0000 0.15190  0.77680  0.50490  Biso   1.000  C
  C184     1.0000 0.37510  0.22320  0.99510  Biso   1.000  C
  C185     1.0000 0.22320  0.37510  0.50490  Biso   1.000  C
  C186     1.0000 0.62490  0.84810  0.50490  Biso   1.000  C
  C187     1.0000 0.11013  0.81857  0.66177  Biso   1.000  C
  C188     1.0000 0.18143  0.29157  0.66177  Biso   1.000  C
  C189     1.0000 0.48523  0.44347  0.17157  Biso   1.000  C
  C190     1.0000 0.70843  0.88987  0.66177  Biso   1.000  C
  C191     1.0000 0.55653  0.04177  0.17157  Biso   1.000  C
  C192     1.0000 0.95823  0.51477  0.17157  Biso   1.000  C
  C193     1.0000 0.44347  0.48523  0.32843  Biso   1.000  C
  C194     1.0000 0.51477  0.95823  0.32843  Biso   1.000  C
  C195     1.0000 0.81857  0.11013  0.83823  Biso   1.000  C
  C196     1.0000 0.04177  0.55653  0.32843  Biso   1.000  C
  C197     1.0000 0.88987  0.70843  0.83823  Biso   1.000  C
  C198     1.0000 0.29157  0.18143  0.83823  Biso   1.000  C
  C199     1.0000 0.22320  0.84810  0.00490  Biso   1.000  C
  C200     1.0000 0.15190  0.37510  0.00490  Biso   1.000  C
  C201     1.0000 0.84810  0.22320  0.49510  Biso   1.000  C
  C202     1.0000 0.62490  0.77680  0.00490  Biso   1.000  C
  C203     1.0000 0.77680  0.62490  0.49510  Biso   1.000  C
  C204     1.0000 0.37510  0.15190  0.49510  Biso   1.000  C
  C205     1.0000 0.55653  0.51477  0.67157  Biso   1.000  C
  C206     1.0000 0.48523  0.04177  0.67157  Biso   1.000  C
  C207     1.0000 0.18143  0.88987  0.16177  Biso   1.000  C
  C208     1.0000 0.95823  0.44347  0.67157  Biso   1.000  C
  C209     1.0000 0.11013  0.29157  0.16177  Biso   1.000  C
  C210     1.0000 0.70843  0.81857  0.16177  Biso   1.000  C
  C211     1.0000 0.88987  0.18143  0.33823  Biso   1.000  C
  C212     1.0000 0.81857  0.70843  0.33823  Biso   1.000  C
  C213     1.0000 0.51477  0.55653  0.82843  Biso   1.000  C
  C214     1.0000 0.29157  0.11013  0.33823  Biso   1.000  C
  C215     1.0000 0.44347  0.95823  0.82843  Biso   1.000  C
  C216     1.0000 0.04177  0.48523  0.82843  Biso   1.000  C
  H325     1.0000 0.87310  0.14870  0.95620  Biso   1.000  H
  H326     1.0000 0.85130  0.72440  0.95620  Biso   1.000  H
  H327     1.0000 0.14870  0.87310  0.54380  Biso   1.000  H
  H328     1.0000 0.27560  0.12690  0.95620  Biso   1.000  H
  H329     1.0000 0.12690  0.27560  0.54380  Biso   1.000  H
  H330     1.0000 0.72440  0.85130  0.54380  Biso   1.000  H
  H331     1.0000 0.20643  0.81537  0.62287  Biso   1.000  H
  H332     1.0000 0.18463  0.39107  0.62287  Biso   1.000  H
  H333     1.0000 0.48203  0.53977  0.21047  Biso   1.000  H
  H334     1.0000 0.60893  0.79357  0.62287  Biso   1.000  H
  H335     1.0000 0.46023  0.94227  0.21047  Biso   1.000  H
  H336     1.0000 0.05773  0.51797  0.21047  Biso   1.000  H
  H337     1.0000 0.53977  0.48203  0.28953  Biso   1.000  H
  H338     1.0000 0.51797  0.05773  0.28953  Biso   1.000  H
  H339     1.0000 0.81537  0.20643  0.87713  Biso   1.000  H
  H340     1.0000 0.94227  0.46023  0.28953  Biso   1.000  H
  H341     1.0000 0.79357  0.60893  0.87713  Biso   1.000  H
  H342     1.0000 0.39107  0.18463  0.87713  Biso   1.000  H
  H343     1.0000 0.12690  0.85130  0.04380  Biso   1.000  H
  H344     1.0000 0.14870  0.27560  0.04380  Biso   1.000  H
  H345     1.0000 0.85130  0.12690  0.45620  Biso   1.000  H
  H346     1.0000 0.72440  0.87310  0.04380  Biso   1.000  H
  H347     1.0000 0.87310  0.72440  0.45620  Biso   1.000  H
  H348     1.0000 0.27560  0.14870  0.45620  Biso   1.000  H
  H349     1.0000 0.46023  0.51797  0.71047  Biso   1.000  H
  H350     1.0000 0.48203  0.94227  0.71047  Biso   1.000  H
  H351     1.0000 0.18463  0.79357  0.12287  Biso   1.000  H
  H352     1.0000 0.05773  0.53977  0.71047  Biso   1.000  H
  H353     1.0000 0.20643  0.39107  0.12287  Biso   1.000  H
  H354     1.0000 0.60893  0.81537  0.12287  Biso   1.000  H
  H355     1.0000 0.79357  0.18463  0.37713  Biso   1.000  H
  H356     1.0000 0.81537  0.60893  0.37713  Biso   1.000  H
  H357     1.0000 0.51797  0.46023  0.78953  Biso   1.000  H
  H358     1.0000 0.39107  0.20643  0.37713  Biso   1.000  H
  H359     1.0000 0.53977  0.05773  0.78953  Biso   1.000  H
  H360     1.0000 0.94227  0.48203  0.78953  Biso   1.000  H
  H361     1.0000 0.92630  0.19890  0.99500  Biso   1.000  H
  H362     1.0000 0.80110  0.72740  0.99500  Biso   1.000  H
  H363     1.0000 0.19890  0.92630  0.50500  Biso   1.000  H
  H364     1.0000 0.27260  0.07370  0.99500  Biso   1.000  H
  H365     1.0000 0.07370  0.27260  0.50500  Biso   1.000  H
  H366     1.0000 0.72740  0.80110  0.50500  Biso   1.000  H
  H367     1.0000 0.25963  0.86557  0.66167  Biso   1.000  H
  H368     1.0000 0.13443  0.39407  0.66167  Biso   1.000  H
  H369     1.0000 0.53223  0.59297  0.17167  Biso   1.000  H
  H370     1.0000 0.60593  0.74037  0.66167  Biso   1.000  H
  H371     1.0000 0.40703  0.93927  0.17167  Biso   1.000  H
  H372     1.0000 0.06073  0.46777  0.17167  Biso   1.000  H
  H373     1.0000 0.59297  0.53223  0.32833  Biso   1.000  H
  H374     1.0000 0.46777  0.06073  0.32833  Biso   1.000  H
  H375     1.0000 0.86557  0.25963  0.83833  Biso   1.000  H
  H376     1.0000 0.93927  0.40703  0.32833  Biso   1.000  H
  H377     1.0000 0.74037  0.60593  0.83833  Biso   1.000  H
  H378     1.0000 0.39407  0.13443  0.83833  Biso   1.000  H
  H379     1.0000 0.07370  0.80110  0.00500  Biso   1.000  H
  H380     1.0000 0.19890  0.27260  0.00500  Biso   1.000  H
  H381     1.0000 0.80110  0.07370  0.49500  Biso   1.000  H
  H382     1.0000 0.72740  0.92630  0.00500  Biso   1.000  H
  H383     1.0000 0.92630  0.72740  0.49500  Biso   1.000  H
  H384     1.0000 0.27260  0.19890  0.49500  Biso   1.000  H
  H385     1.0000 0.40703  0.46777  0.67167  Biso   1.000  H
  H386     1.0000 0.53223  0.93927  0.67167  Biso   1.000  H
  H387     1.0000 0.13443  0.74037  0.16167  Biso   1.000  H
  H388     1.0000 0.06073  0.59297  0.67167  Biso   1.000  H
  H389     1.0000 0.25963  0.39407  0.16167  Biso   1.000  H
  H390     1.0000 0.60593  0.86557  0.16167  Biso   1.000  H
  H391     1.0000 0.74037  0.13443  0.33833  Biso   1.000  H
  H392     1.0000 0.86557  0.60593  0.33833  Biso   1.000  H
  H393     1.0000 0.46777  0.40703  0.82833  Biso   1.000  H
  H394     1.0000 0.39407  0.25963  0.33833  Biso   1.000  H
  H395     1.0000 0.59297  0.06073  0.82833  Biso   1.000  H
  H396     1.0000 0.93927  0.53223  0.82833  Biso   1.000  H
  H397     1.0000 0.74560  0.07900  0.99700  Biso   1.000  H
  H398     1.0000 0.92100  0.66660  0.99700  Biso   1.000  H
  H399     1.0000 0.07900  0.74560  0.50300  Biso   1.000  H
  H400     1.0000 0.33340  0.25440  0.99700  Biso   1.000  H
  H401     1.0000 0.25440  0.33340  0.50300  Biso   1.000  H
  H402     1.0000 0.66660  0.92100  0.50300  Biso   1.000  H
  H403     1.0000 0.07893  0.74567  0.66367  Biso   1.000  H
  H404     1.0000 0.25433  0.33327  0.66367  Biso   1.000  H
  H405     1.0000 0.41233  0.41227  0.16967  Biso   1.000  H
  H406     1.0000 0.66673  0.92107  0.66367  Biso   1.000  H
  H407     1.0000 0.58773  0.00007  0.16967  Biso   1.000  H
  H408     1.0000 0.99993  0.58767  0.16967  Biso   1.000  H
  H409     1.0000 0.41227  0.41233  0.33033  Biso   1.000  H
  H410     1.0000 0.58767  0.99993  0.33033  Biso   1.000  H
  H411     1.0000 0.74567  0.07893  0.83633  Biso   1.000  H
  H412     1.0000 0.00007  0.58773  0.33033  Biso   1.000  H
  H413     1.0000 0.92107  0.66673  0.83633  Biso   1.000  H
  H414     1.0000 0.33327  0.25433  0.83633  Biso   1.000  H
  H415     1.0000 0.25440  0.92100  0.00300  Biso   1.000  H
  H416     1.0000 0.07900  0.33340  0.00300  Biso   1.000  H
  H417     1.0000 0.92100  0.25440  0.49700  Biso   1.000  H
  H418     1.0000 0.66660  0.74560  0.00300  Biso   1.000  H
  H419     1.0000 0.74560  0.66660  0.49700  Biso   1.000  H
  H420     1.0000 0.33340  0.07900  0.49700  Biso   1.000  H
  H421     1.0000 0.58773  0.58767  0.66967  Biso   1.000  H
  H422     1.0000 0.41233  0.00007  0.66967  Biso   1.000  H
  H423     1.0000 0.25433  0.92107  0.16367  Biso   1.000  H
  H424     1.0000 0.99993  0.41227  0.66967  Biso   1.000  H
  H425     1.0000 0.07893  0.33327  0.16367  Biso   1.000  H
  H426     1.0000 0.66673  0.74567  0.16367  Biso   1.000  H
  H427     1.0000 0.92107  0.25433  0.33633  Biso   1.000  H
  H428     1.0000 0.74567  0.66673  0.33633  Biso   1.000  H
  H429     1.0000 0.58767  0.58773  0.83033  Biso   1.000  H
  H430     1.0000 0.33327  0.07893  0.33633  Biso   1.000  H
  H431     1.0000 0.41227  0.99993  0.83033  Biso   1.000  H
  H432     1.0000 0.00007  0.41233  0.83033  Biso   1.000  H
  H433     1.0000 0.73310  0.16710  0.97970  Biso   1.000  H
  H434     1.0000 0.83290  0.56600  0.97970  Biso   1.000  H
  H435     1.0000 0.16710  0.73310  0.52030  Biso   1.000  H
  H436     1.0000 0.43400  0.26690  0.97970  Biso   1.000  H
  H437     1.0000 0.26690  0.43400  0.52030  Biso   1.000  H
  H438     1.0000 0.56600  0.83290  0.52030  Biso   1.000  H
  H439     1.0000 0.06643  0.83377  0.64637  Biso   1.000  H
  H440     1.0000 0.16623  0.23267  0.64637  Biso   1.000  H
  H441     1.0000 0.50043  0.39977  0.18697  Biso   1.000  H
  H442     1.0000 0.76733  0.93357  0.64637  Biso   1.000  H
  H443     1.0000 0.60023  0.10067  0.18697  Biso   1.000  H
  H444     1.0000 0.89933  0.49957  0.18697  Biso   1.000  H
  H445     1.0000 0.39977  0.50043  0.31303  Biso   1.000  H
  H446     1.0000 0.49957  0.89933  0.31303  Biso   1.000  H
  H447     1.0000 0.83377  0.06643  0.85363  Biso   1.000  H
  H448     1.0000 0.10067  0.60023  0.31303  Biso   1.000  H
  H449     1.0000 0.93357  0.76733  0.85363  Biso   1.000  H
  H450     1.0000 0.23267  0.16623  0.85363  Biso   1.000  H
  H451     1.0000 0.26690  0.83290  0.02030  Biso   1.000  H
  H452     1.0000 0.16710  0.43400  0.02030  Biso   1.000  H
  H453     1.0000 0.83290  0.26690  0.47970  Biso   1.000  H
  H454     1.0000 0.56600  0.73310  0.02030  Biso   1.000  H
  H455     1.0000 0.73310  0.56600  0.47970  Biso   1.000  H
  H456     1.0000 0.43400  0.16710  0.47970  Biso   1.000  H
  H457     1.0000 0.60023  0.49957  0.68697  Biso   1.000  H
  H458     1.0000 0.50043  0.10067  0.68697  Biso   1.000  H
  H459     1.0000 0.16623  0.93357  0.14637  Biso   1.000  H
  H460     1.0000 0.89933  0.39977  0.68697  Biso   1.000  H
  H461     1.0000 0.06643  0.23267  0.14637  Biso   1.000  H
  H462     1.0000 0.76733  0.83377  0.14637  Biso   1.000  H
  H463     1.0000 0.93357  0.16623  0.35363  Biso   1.000  H
  H464     1.0000 0.83377  0.76733  0.35363  Biso   1.000  H
  H465     1.0000 0.49957  0.60023  0.81303  Biso   1.000  H
  H466     1.0000 0.23267  0.06643  0.35363  Biso   1.000  H
  H467     1.0000 0.39977  0.89933  0.81303  Biso   1.000  H
  H468     1.0000 0.10067  0.50043  0.81303  Biso   1.000  H
  H469     1.0000 0.71650  0.28360  0.08120  Biso   1.000  H
  H470     1.0000 0.71640  0.43290  0.08120  Biso   1.000  H
  H471     1.0000 0.28360  0.71650  0.41880  Biso   1.000  H
  H472     1.0000 0.56710  0.28350  0.08120  Biso   1.000  H
  H473     1.0000 0.28350  0.56710  0.41880  Biso   1.000  H
  H474     1.0000 0.43290  0.71640  0.41880  Biso   1.000  H
  H475     1.0000 0.04983  0.95027  0.74787  Biso   1.000  H
  H476     1.0000 0.04973  0.09957  0.74787  Biso   1.000  H
  H477     1.0000 0.61693  0.38317  0.08547  Biso   1.000  H
  H478     1.0000 0.90043  0.95017  0.74787  Biso   1.000  H
  H479     1.0000 0.61683  0.23377  0.08547  Biso   1.000  H
  H480     1.0000 0.76623  0.38307  0.08547  Biso   1.000  H
  H481     1.0000 0.38317  0.61693  0.41453  Biso   1.000  H
  H482     1.0000 0.38307  0.76623  0.41453  Biso   1.000  H
  H483     1.0000 0.95027  0.04983  0.75213  Biso   1.000  H
  H484     1.0000 0.23377  0.61683  0.41453  Biso   1.000  H
  H485     1.0000 0.95017  0.90043  0.75213  Biso   1.000  H
  H486     1.0000 0.09957  0.04973  0.75213  Biso   1.000  H
  H487     1.0000 0.28350  0.71640  0.91880  Biso   1.000  H
  H488     1.0000 0.28360  0.56710  0.91880  Biso   1.000  H
  H489     1.0000 0.71640  0.28350  0.58120  Biso   1.000  H
  H490     1.0000 0.43290  0.71650  0.91880  Biso   1.000  H
  H491     1.0000 0.71650  0.43290  0.58120  Biso   1.000  H
  H492     1.0000 0.56710  0.28360  0.58120  Biso   1.000  H
  H493     1.0000 0.61683  0.38307  0.58547  Biso   1.000  H
  H494     1.0000 0.61693  0.23377  0.58547  Biso   1.000  H
  H495     1.0000 0.04973  0.95017  0.24787  Biso   1.000  H
  H496     1.0000 0.76623  0.38317  0.58547  Biso   1.000  H
  H497     1.0000 0.04983  0.09957  0.24787  Biso   1.000  H
  H498     1.0000 0.90043  0.95027  0.24787  Biso   1.000  H
  H499     1.0000 0.95017  0.04973  0.25213  Biso   1.000  H
  H500     1.0000 0.95027  0.90043  0.25213  Biso   1.000  H
  H501     1.0000 0.38307  0.61683  0.91453  Biso   1.000  H
  H502     1.0000 0.09957  0.04983  0.25213  Biso   1.000  H
  H503     1.0000 0.38317  0.76623  0.91453  Biso   1.000  H
  H504     1.0000 0.23377  0.61693  0.91453  Biso   1.000  H
