data_image0
_cell_length_a       15.257
_cell_length_b       25.26
_cell_length_c       24.87
_cell_angle_alpha    90
_cell_angle_beta     90.297
_cell_angle_gamma    90

_symmetry_space_group_name_H-M    "P 1"
_symmetry_int_tables_number       1

loop_
  _symmetry_equiv_pos_as_xyz
  'x, y, z'

loop_
  _atom_site_label
  _atom_site_occupancy
  _atom_site_fract_x
  _atom_site_fract_y
  _atom_site_fract_z
  _atom_site_thermal_displace_type
  _atom_site_B_iso_or_equiv
  _atom_site_type_symbol
  Cu1      1.0000 0.80408  0.32609  0.68940  Biso   1.000  Cu
  Cu2      1.0000 0.69592  0.82609  0.81060  Biso   1.000  Cu
  Cu3      1.0000 0.19592  0.67391  0.31060  Biso   1.000  Cu
  Cu4      1.0000 0.30408  0.17391  0.18940  Biso   1.000  Cu
  Cu5      1.0000 0.67953  0.09473  0.80947  Biso   1.000  Cu
  Cu6      1.0000 0.82047  0.59473  0.69053  Biso   1.000  Cu
  Cu7      1.0000 0.32047  0.90527  0.19053  Biso   1.000  Cu
  Cu8      1.0000 0.17953  0.40527  0.30947  Biso   1.000  Cu
  K1       1.0000 0.54745  0.18168  0.73818  Biso   1.000  K
  K2       1.0000 0.95255  0.68168  0.76182  Biso   1.000  K
  K3       1.0000 0.45255  0.81832  0.26182  Biso   1.000  K
  K4       1.0000 0.04745  0.31832  0.23818  Biso   1.000  K
  K5       1.0000 0.76517  0.46007  0.70983  Biso   1.000  K
  K6       1.0000 0.73483  0.96007  0.79017  Biso   1.000  K
  K7       1.0000 0.23483  0.53993  0.29017  Biso   1.000  K
  K8       1.0000 0.26517  0.03993  0.20983  Biso   1.000  K
  K9       1.0000 0.69687  0.22216  0.62422  Biso   1.000  K
  K10      1.0000 0.80313  0.72216  0.87578  Biso   1.000  K
  K11      1.0000 0.30313  0.77784  0.37578  Biso   1.000  K
  K12      1.0000 0.19687  0.27784  0.12422  Biso   1.000  K
  K13      1.0000 0.97432  0.40735  0.63817  Biso   1.000  K
  K14      1.0000 0.52568  0.90735  0.86183  Biso   1.000  K
  K15      1.0000 0.02568  0.59265  0.36183  Biso   1.000  K
  K16      1.0000 0.47432  0.09265  0.13817  Biso   1.000  K
  K17      1.0000 0.85288  0.52002  0.57346  Biso   1.000  K
  K18      1.0000 0.64712  0.02002  0.92654  Biso   1.000  K
  K19      1.0000 0.14712  0.47998  0.42654  Biso   1.000  K
  K20      1.0000 0.35288  0.97998  0.07346  Biso   1.000  K
  K21      1.0000 0.78475  0.21071  0.76874  Biso   1.000  K
  K22      1.0000 0.71525  0.71071  0.73126  Biso   1.000  K
  K23      1.0000 0.21525  0.78929  0.23126  Biso   1.000  K
  K24      1.0000 0.28475  0.28929  0.26874  Biso   1.000  K
  O1       1.0000 0.03640  0.55570  0.58230  Biso   1.000  O
  O2       1.0000 0.46360  0.05570  0.91770  Biso   1.000  O
  O3       1.0000 0.96360  0.44430  0.41770  Biso   1.000  O
  O4       1.0000 0.53640  0.94430  0.08230  Biso   1.000  O
  H1       1.0000 0.06480  0.56920  0.55230  Biso   1.000  H
  H2       1.0000 0.43520  0.06920  0.94770  Biso   1.000  H
  H3       1.0000 0.93520  0.43080  0.44770  Biso   1.000  H
  H4       1.0000 0.56480  0.93080  0.05230  Biso   1.000  H
  H5       1.0000 0.06580  0.55340  0.61500  Biso   1.000  H
  H6       1.0000 0.43420  0.05340  0.88500  Biso   1.000  H
  H7       1.0000 0.93420  0.44660  0.38500  Biso   1.000  H
  H8       1.0000 0.56580  0.94660  0.11500  Biso   1.000  H
  O5       1.0000 0.97130  0.44231  0.53306  Biso   1.000  O
  O6       1.0000 0.52870  0.94231  0.96694  Biso   1.000  O
  O7       1.0000 0.02870  0.55769  0.46694  Biso   1.000  O
  O8       1.0000 0.47130  0.05769  0.03306  Biso   1.000  O
  H9       1.0000 0.94550  0.41760  0.50760  Biso   1.000  H
  H10      1.0000 0.55450  0.91760  0.99240  Biso   1.000  H
  H11      1.0000 0.05450  0.58240  0.49240  Biso   1.000  H
  H12      1.0000 0.44550  0.08240  0.00760  Biso   1.000  H
  H13      1.0000 0.02660  0.45630  0.52030  Biso   1.000  H
  H14      1.0000 0.47340  0.95630  0.97970  Biso   1.000  H
  H15      1.0000 0.97340  0.54370  0.47970  Biso   1.000  H
  H16      1.0000 0.52660  0.04370  0.02030  Biso   1.000  H
  O9       1.0000 0.73830  0.18880  0.52350  Biso   1.000  O
  O10      1.0000 0.76170  0.68880  0.97650  Biso   1.000  O
  O11      1.0000 0.26170  0.81120  0.47650  Biso   1.000  O
  O12      1.0000 0.23830  0.31120  0.02350  Biso   1.000  O
  C1       1.0000 0.66260  0.16980  0.48540  Biso   1.000  C
  C2       1.0000 0.83740  0.66980  0.01460  Biso   1.000  C
  C3       1.0000 0.33740  0.83020  0.51460  Biso   1.000  C
  C4       1.0000 0.16260  0.33020  0.98540  Biso   1.000  C
  H17      1.0000 0.63340  0.19950  0.46830  Biso   1.000  H
  H18      1.0000 0.86660  0.69950  0.03170  Biso   1.000  H
  H19      1.0000 0.36660  0.80050  0.53170  Biso   1.000  H
  H20      1.0000 0.13340  0.30050  0.96830  Biso   1.000  H
  H21      1.0000 0.61980  0.14890  0.50470  Biso   1.000  H
  H22      1.0000 0.88020  0.64890  0.99530  Biso   1.000  H
  H23      1.0000 0.38020  0.85110  0.49530  Biso   1.000  H
  H24      1.0000 0.11980  0.35110  0.00470  Biso   1.000  H
  C5       1.0000 0.71890  0.13170  0.43890  Biso   1.000  C
  C6       1.0000 0.78110  0.63170  0.06110  Biso   1.000  C
  C7       1.0000 0.28110  0.86830  0.56110  Biso   1.000  C
  C8       1.0000 0.21890  0.36830  0.93890  Biso   1.000  C
  H25      1.0000 0.70260  0.09470  0.44150  Biso   1.000  H
  H26      1.0000 0.79740  0.59470  0.05850  Biso   1.000  H
  H27      1.0000 0.29740  0.90530  0.55850  Biso   1.000  H
  H28      1.0000 0.20260  0.40530  0.94150  Biso   1.000  H
  H29      1.0000 0.70800  0.14400  0.40250  Biso   1.000  H
  H30      1.0000 0.79200  0.64400  0.09750  Biso   1.000  H
  H31      1.0000 0.29200  0.85600  0.59750  Biso   1.000  H
  H32      1.0000 0.20800  0.35600  0.90250  Biso   1.000  H
  C9       1.0000 0.80120  0.13890  0.45280  Biso   1.000  C
  C10      1.0000 0.69880  0.63890  0.04720  Biso   1.000  C
  C11      1.0000 0.19880  0.86110  0.54720  Biso   1.000  C
  C12      1.0000 0.30120  0.36110  0.95280  Biso   1.000  C
  H33      1.0000 0.83270  0.14890  0.42050  Biso   1.000  H
  H34      1.0000 0.66730  0.64890  0.07950  Biso   1.000  H
  H35      1.0000 0.16730  0.85110  0.57950  Biso   1.000  H
  H36      1.0000 0.33270  0.35110  0.92050  Biso   1.000  H
  H37      1.0000 0.82410  0.10480  0.46400  Biso   1.000  H
  H38      1.0000 0.67590  0.60480  0.03600  Biso   1.000  H
  H39      1.0000 0.17590  0.89520  0.53600  Biso   1.000  H
  H40      1.0000 0.32410  0.39520  0.96400  Biso   1.000  H
  C13      1.0000 0.82550  0.17850  0.49600  Biso   1.000  C
  C14      1.0000 0.67450  0.67850  0.00400  Biso   1.000  C
  C15      1.0000 0.17450  0.82150  0.50400  Biso   1.000  C
  C16      1.0000 0.32550  0.32150  0.99600  Biso   1.000  C
  H41      1.0000 0.84910  0.21070  0.48040  Biso   1.000  H
  H42      1.0000 0.65090  0.71070  0.01960  Biso   1.000  H
  H43      1.0000 0.15090  0.78930  0.51960  Biso   1.000  H
  H44      1.0000 0.34910  0.28930  0.98040  Biso   1.000  H
  H45      1.0000 0.86800  0.16370  0.52090  Biso   1.000  H
  H46      1.0000 0.63200  0.66370  0.97910  Biso   1.000  H
  H47      1.0000 0.13200  0.83630  0.47910  Biso   1.000  H
  H48      1.0000 0.36800  0.33630  0.02090  Biso   1.000  H
  O13      1.0000 0.53980  0.19600  0.60530  Biso   1.000  O
  O14      1.0000 0.96020  0.69600  0.89470  Biso   1.000  O
  O15      1.0000 0.46020  0.80400  0.39470  Biso   1.000  O
  O16      1.0000 0.03980  0.30400  0.10530  Biso   1.000  O
  C17      1.0000 0.47640  0.19560  0.61400  Biso   1.000  C
  C18      1.0000 0.02360  0.69560  0.88600  Biso   1.000  C
  C19      1.0000 0.52360  0.80440  0.38600  Biso   1.000  C
  C20      1.0000 0.97640  0.30440  0.11400  Biso   1.000  C
  C21      1.0000 0.39670  0.20650  0.57320  Biso   1.000  C
  C22      1.0000 0.10330  0.70650  0.92680  Biso   1.000  C
  C23      1.0000 0.60330  0.79350  0.42680  Biso   1.000  C
  C24      1.0000 0.89670  0.29350  0.07320  Biso   1.000  C
  C25      1.0000 0.38690  0.17040  0.53160  Biso   1.000  C
  C26      1.0000 0.11310  0.67040  0.96840  Biso   1.000  C
  C27      1.0000 0.61310  0.82960  0.46840  Biso   1.000  C
  C28      1.0000 0.88690  0.32960  0.03160  Biso   1.000  C
  H49      1.0000 0.33630  0.17950  0.51040  Biso   1.000  H
  H50      1.0000 0.16370  0.67950  0.98960  Biso   1.000  H
  H51      1.0000 0.66370  0.82050  0.48960  Biso   1.000  H
  H52      1.0000 0.83630  0.32050  0.01040  Biso   1.000  H
  H53      1.0000 0.37960  0.13550  0.54620  Biso   1.000  H
  H54      1.0000 0.12040  0.63550  0.95380  Biso   1.000  H
  H55      1.0000 0.62040  0.86450  0.45380  Biso   1.000  H
  H56      1.0000 0.87960  0.36450  0.04620  Biso   1.000  H
  H57      1.0000 0.43810  0.17110  0.50930  Biso   1.000  H
  H58      1.0000 0.06190  0.67110  0.99070  Biso   1.000  H
  H59      1.0000 0.56190  0.82890  0.49070  Biso   1.000  H
  H60      1.0000 0.93810  0.32890  0.00930  Biso   1.000  H
  O17      1.0000 0.43190  0.18250  0.65970  Biso   1.000  O
  O18      1.0000 0.06810  0.68250  0.84030  Biso   1.000  O
  O19      1.0000 0.56810  0.81750  0.34030  Biso   1.000  O
  O20      1.0000 0.93190  0.31750  0.15970  Biso   1.000  O
  C29      1.0000 0.43980  0.23950  0.52990  Biso   1.000  C
  C30      1.0000 0.06020  0.73950  0.97010  Biso   1.000  C
  C31      1.0000 0.56020  0.76050  0.47010  Biso   1.000  C
  C32      1.0000 0.93980  0.26050  0.02990  Biso   1.000  C
  H61      1.0000 0.39710  0.24890  0.50320  Biso   1.000  H
  H62      1.0000 0.10290  0.74890  0.99680  Biso   1.000  H
  H63      1.0000 0.60290  0.75110  0.49680  Biso   1.000  H
  H64      1.0000 0.89710  0.25110  0.00320  Biso   1.000  H
  H65      1.0000 0.48590  0.21940  0.51350  Biso   1.000  H
  H66      1.0000 0.01410  0.71940  0.98650  Biso   1.000  H
  H67      1.0000 0.51410  0.78060  0.48650  Biso   1.000  H
  H68      1.0000 0.98590  0.28060  0.01350  Biso   1.000  H
  H69      1.0000 0.46390  0.27100  0.54570  Biso   1.000  H
  H70      1.0000 0.03610  0.77100  0.95430  Biso   1.000  H
  H71      1.0000 0.53610  0.72900  0.45430  Biso   1.000  H
  H72      1.0000 0.96390  0.22900  0.04570  Biso   1.000  H
  C33      1.0000 0.32830  0.23120  0.59410  Biso   1.000  C
  C34      1.0000 0.17170  0.73120  0.90590  Biso   1.000  C
  C35      1.0000 0.67170  0.76880  0.40590  Biso   1.000  C
  C36      1.0000 0.82830  0.26880  0.09410  Biso   1.000  C
  H73      1.0000 0.28360  0.23510  0.56700  Biso   1.000  H
  H74      1.0000 0.21640  0.73510  0.93300  Biso   1.000  H
  H75      1.0000 0.71640  0.76490  0.43300  Biso   1.000  H
  H76      1.0000 0.78360  0.26490  0.06700  Biso   1.000  H
  H77      1.0000 0.34590  0.26550  0.60680  Biso   1.000  H
  H78      1.0000 0.15410  0.76550  0.89320  Biso   1.000  H
  H79      1.0000 0.65410  0.73450  0.39320  Biso   1.000  H
  H80      1.0000 0.84590  0.23450  0.10680  Biso   1.000  H
  H81      1.0000 0.30570  0.21080  0.62350  Biso   1.000  H
  H82      1.0000 0.19430  0.71080  0.87650  Biso   1.000  H
  H83      1.0000 0.69430  0.78920  0.37650  Biso   1.000  H
  H84      1.0000 0.80570  0.28920  0.12350  Biso   1.000  H
  O21      1.0000 0.64040  0.12023  0.87966  Biso   1.000  O
  O22      1.0000 0.85960  0.62023  0.62034  Biso   1.000  O
  O23      1.0000 0.35960  0.87977  0.12034  Biso   1.000  O
  O24      1.0000 0.14040  0.37977  0.37966  Biso   1.000  O
  C37      1.0000 0.63480  0.17030  0.87580  Biso   1.000  C
  C38      1.0000 0.86520  0.67030  0.62420  Biso   1.000  C
  C39      1.0000 0.36520  0.82970  0.12420  Biso   1.000  C
  C40      1.0000 0.13480  0.32970  0.37580  Biso   1.000  C
  O25      1.0000 0.64410  0.19432  0.83274  Biso   1.000  O
  O26      1.0000 0.85590  0.69432  0.66726  Biso   1.000  O
  O27      1.0000 0.35590  0.80568  0.16726  Biso   1.000  O
  O28      1.0000 0.14410  0.30568  0.33274  Biso   1.000  O
  C41      1.0000 0.61580  0.20060  0.92790  Biso   1.000  C
  C42      1.0000 0.88420  0.70060  0.57210  Biso   1.000  C
  C43      1.0000 0.38420  0.79940  0.07210  Biso   1.000  C
  C44      1.0000 0.11580  0.29940  0.42790  Biso   1.000  C
  C45      1.0000 0.60840  0.25430  0.92170  Biso   1.000  C
  C46      1.0000 0.89160  0.75430  0.57830  Biso   1.000  C
  C47      1.0000 0.39160  0.74570  0.07830  Biso   1.000  C
  C48      1.0000 0.10840  0.24570  0.42170  Biso   1.000  C
  H85      1.0000 0.59740  0.27040  0.95590  Biso   1.000  H
  H86      1.0000 0.90260  0.77040  0.54410  Biso   1.000  H
  H87      1.0000 0.40260  0.72960  0.04410  Biso   1.000  H
  H88      1.0000 0.09740  0.22960  0.45590  Biso   1.000  H
  H89      1.0000 0.56080  0.26200  0.89750  Biso   1.000  H
  H90      1.0000 0.93920  0.76200  0.60250  Biso   1.000  H
  H91      1.0000 0.43920  0.73800  0.10250  Biso   1.000  H
  H92      1.0000 0.06080  0.23800  0.39750  Biso   1.000  H
  H93      1.0000 0.66190  0.26810  0.90710  Biso   1.000  H
  H94      1.0000 0.83810  0.76810  0.59290  Biso   1.000  H
  H95      1.0000 0.33810  0.73190  0.09290  Biso   1.000  H
  H96      1.0000 0.16190  0.23190  0.40710  Biso   1.000  H
  C49      1.0000 0.67870  0.19100  0.96560  Biso   1.000  C
  C50      1.0000 0.82130  0.69100  0.53440  Biso   1.000  C
  C51      1.0000 0.32130  0.80900  0.03440  Biso   1.000  C
  C52      1.0000 0.17870  0.30900  0.46560  Biso   1.000  C
  H97      1.0000 0.66540  0.21020  0.99790  Biso   1.000  H
  H98      1.0000 0.83460  0.71020  0.50210  Biso   1.000  H
  H99      1.0000 0.33460  0.78980  0.00210  Biso   1.000  H
  H100     1.0000 0.16540  0.28980  0.49790  Biso   1.000  H
  H101     1.0000 0.73460  0.20220  0.95220  Biso   1.000  H
  H102     1.0000 0.76540  0.70220  0.54780  Biso   1.000  H
  H103     1.0000 0.26540  0.79780  0.04780  Biso   1.000  H
  H104     1.0000 0.23460  0.29780  0.45220  Biso   1.000  H
  H105     1.0000 0.68050  0.15380  0.97340  Biso   1.000  H
  H106     1.0000 0.81950  0.65380  0.52660  Biso   1.000  H
  H107     1.0000 0.31950  0.84620  0.02660  Biso   1.000  H
  H108     1.0000 0.18050  0.34620  0.47340  Biso   1.000  H
  C53      1.0000 0.53560  0.18240  0.95060  Biso   1.000  C
  C54      1.0000 0.96440  0.68240  0.54940  Biso   1.000  C
  C55      1.0000 0.46440  0.81760  0.04940  Biso   1.000  C
  C56      1.0000 0.03560  0.31760  0.45060  Biso   1.000  C
  H109     1.0000 0.52410  0.20150  0.98320  Biso   1.000  H
  H110     1.0000 0.97590  0.70150  0.51680  Biso   1.000  H
  H111     1.0000 0.47590  0.79850  0.01680  Biso   1.000  H
  H112     1.0000 0.02410  0.29850  0.48320  Biso   1.000  H
  H113     1.0000 0.54030  0.14530  0.95850  Biso   1.000  H
  H114     1.0000 0.95970  0.64530  0.54150  Biso   1.000  H
  H115     1.0000 0.45970  0.85470  0.04150  Biso   1.000  H
  H116     1.0000 0.04030  0.35470  0.45850  Biso   1.000  H
  H117     1.0000 0.48860  0.18810  0.92550  Biso   1.000  H
  H118     1.0000 0.01140  0.68810  0.57450  Biso   1.000  H
  H119     1.0000 0.51140  0.81190  0.07450  Biso   1.000  H
  H120     1.0000 0.98860  0.31190  0.42550  Biso   1.000  H
  O29      1.0000 0.92000  0.30922  0.66148  Biso   1.000  O
  O30      1.0000 0.58000  0.80922  0.83852  Biso   1.000  O
  O31      1.0000 0.08000  0.69078  0.33852  Biso   1.000  O
  O32      1.0000 0.42000  0.19078  0.16148  Biso   1.000  O
  C57      1.0000 0.92550  0.25870  0.66000  Biso   1.000  C
  C58      1.0000 0.57450  0.75870  0.84000  Biso   1.000  C
  C59      1.0000 0.07450  0.74130  0.34000  Biso   1.000  C
  C60      1.0000 0.42550  0.24130  0.16000  Biso   1.000  C
  O33      1.0000 0.86450  0.22896  0.67040  Biso   1.000  O
  O34      1.0000 0.63550  0.72896  0.82960  Biso   1.000  O
  O35      1.0000 0.13550  0.77104  0.32960  Biso   1.000  O
  O36      1.0000 0.36450  0.27104  0.17040  Biso   1.000  O
  C61      1.0000 0.01570  0.23590  0.64490  Biso   1.000  C
  C62      1.0000 0.48430  0.73590  0.85510  Biso   1.000  C
  C63      1.0000 0.98430  0.76410  0.35510  Biso   1.000  C
  C64      1.0000 0.51570  0.26410  0.14490  Biso   1.000  C
  C65      1.0000 0.03700  0.19290  0.68180  Biso   1.000  C
  C66      1.0000 0.46300  0.69290  0.81820  Biso   1.000  C
  C67      1.0000 0.96300  0.80710  0.31820  Biso   1.000  C
  C68      1.0000 0.53700  0.30710  0.18180  Biso   1.000  C
  H121     1.0000 0.04420  0.20690  0.71750  Biso   1.000  H
  H122     1.0000 0.45580  0.70690  0.78250  Biso   1.000  H
  H123     1.0000 0.95580  0.79310  0.28250  Biso   1.000  H
  H124     1.0000 0.54420  0.29310  0.21750  Biso   1.000  H
  H125     1.0000 0.09050  0.17630  0.67070  Biso   1.000  H
  H126     1.0000 0.40950  0.67630  0.82930  Biso   1.000  H
  H127     1.0000 0.90950  0.82370  0.32930  Biso   1.000  H
  H128     1.0000 0.59050  0.32370  0.17070  Biso   1.000  H
  H129     1.0000 0.99040  0.16740  0.68150  Biso   1.000  H
  H130     1.0000 0.50960  0.66740  0.81850  Biso   1.000  H
  H131     1.0000 0.00960  0.83260  0.31850  Biso   1.000  H
  H132     1.0000 0.49040  0.33260  0.18150  Biso   1.000  H
  C69      1.0000 0.08450  0.27680  0.64400  Biso   1.000  C
  C70      1.0000 0.41550  0.77680  0.85600  Biso   1.000  C
  C71      1.0000 0.91550  0.72320  0.35600  Biso   1.000  C
  C72      1.0000 0.58450  0.22320  0.14400  Biso   1.000  C
  H133     1.0000 0.09220  0.29110  0.67950  Biso   1.000  H
  H134     1.0000 0.40780  0.79110  0.82050  Biso   1.000  H
  H135     1.0000 0.90780  0.70890  0.32050  Biso   1.000  H
  H136     1.0000 0.59220  0.20890  0.17950  Biso   1.000  H
  H137     1.0000 0.06770  0.30460  0.61970  Biso   1.000  H
  H138     1.0000 0.43230  0.80460  0.88030  Biso   1.000  H
  H139     1.0000 0.93230  0.69540  0.38030  Biso   1.000  H
  H140     1.0000 0.56770  0.19540  0.11970  Biso   1.000  H
  H141     1.0000 0.13860  0.26140  0.63220  Biso   1.000  H
  H142     1.0000 0.36140  0.76140  0.86780  Biso   1.000  H
  H143     1.0000 0.86140  0.73860  0.36780  Biso   1.000  H
  H144     1.0000 0.63860  0.23860  0.13220  Biso   1.000  H
  C73      1.0000 0.00210  0.21050  0.58940  Biso   1.000  C
  C74      1.0000 0.49790  0.71050  0.91060  Biso   1.000  C
  C75      1.0000 0.99790  0.78950  0.41060  Biso   1.000  C
  C76      1.0000 0.50210  0.28950  0.08940  Biso   1.000  C
  H145     1.0000 0.05630  0.19540  0.57740  Biso   1.000  H
  H146     1.0000 0.44370  0.69540  0.92260  Biso   1.000  H
  H147     1.0000 0.94370  0.80460  0.42260  Biso   1.000  H
  H148     1.0000 0.55630  0.30460  0.07740  Biso   1.000  H
  H149     1.0000 0.98310  0.23700  0.56430  Biso   1.000  H
  H150     1.0000 0.51690  0.73700  0.93570  Biso   1.000  H
  H151     1.0000 0.01690  0.76300  0.43570  Biso   1.000  H
  H152     1.0000 0.48310  0.26300  0.06430  Biso   1.000  H
  H153     1.0000 0.95840  0.18330  0.59180  Biso   1.000  H
  H154     1.0000 0.54160  0.68330  0.90820  Biso   1.000  H
  H155     1.0000 0.04160  0.81670  0.40820  Biso   1.000  H
  H156     1.0000 0.45840  0.31670  0.09180  Biso   1.000  H
  O37      1.0000 0.12050  0.46320  0.61090  Biso   1.000  O
  O38      1.0000 0.37950  0.96320  0.88910  Biso   1.000  O
  O39      1.0000 0.87950  0.53680  0.38910  Biso   1.000  O
  O40      1.0000 0.62050  0.03680  0.11090  Biso   1.000  O
  C77      1.0000 0.17770  0.45260  0.57590  Biso   1.000  C
  C78      1.0000 0.32230  0.95260  0.92410  Biso   1.000  C
  C79      1.0000 0.82230  0.54740  0.42410  Biso   1.000  C
  C80      1.0000 0.67770  0.04740  0.07590  Biso   1.000  C
  O41      1.0000 0.16340  0.45750  0.52740  Biso   1.000  O
  O42      1.0000 0.33660  0.95750  0.97260  Biso   1.000  O
  O43      1.0000 0.83660  0.54250  0.47260  Biso   1.000  O
  O44      1.0000 0.66340  0.04250  0.02740  Biso   1.000  O
  C81      1.0000 0.26760  0.43690  0.59570  Biso   1.000  C
  C82      1.0000 0.23240  0.93690  0.90430  Biso   1.000  C
  C83      1.0000 0.73240  0.56310  0.40430  Biso   1.000  C
  C84      1.0000 0.76760  0.06310  0.09570  Biso   1.000  C
  C85      1.0000 0.32870  0.42910  0.55000  Biso   1.000  C
  C86      1.0000 0.17130  0.92910  0.95000  Biso   1.000  C
  C87      1.0000 0.67130  0.57090  0.45000  Biso   1.000  C
  C88      1.0000 0.82870  0.07090  0.05000  Biso   1.000  C
  H157     1.0000 0.33550  0.46190  0.53100  Biso   1.000  H
  H158     1.0000 0.16450  0.96190  0.96900  Biso   1.000  H
  H159     1.0000 0.66450  0.53810  0.46900  Biso   1.000  H
  H160     1.0000 0.83550  0.03810  0.03100  Biso   1.000  H
  H161     1.0000 0.30550  0.40270  0.52610  Biso   1.000  H
  H162     1.0000 0.19450  0.90270  0.97390  Biso   1.000  H
  H163     1.0000 0.69450  0.59730  0.47390  Biso   1.000  H
  H164     1.0000 0.80550  0.09730  0.02610  Biso   1.000  H
  H165     1.0000 0.38470  0.41770  0.56350  Biso   1.000  H
  H166     1.0000 0.11530  0.91770  0.93650  Biso   1.000  H
  H167     1.0000 0.61530  0.58230  0.43650  Biso   1.000  H
  H168     1.0000 0.88470  0.08230  0.06350  Biso   1.000  H
  C89      1.0000 0.30080  0.48000  0.63210  Biso   1.000  C
  C90      1.0000 0.19920  0.98000  0.86790  Biso   1.000  C
  C91      1.0000 0.69920  0.52000  0.36790  Biso   1.000  C
  C92      1.0000 0.80080  0.02000  0.13210  Biso   1.000  C
  H169     1.0000 0.31140  0.51140  0.61150  Biso   1.000  H
  H170     1.0000 0.18860  0.01140  0.88850  Biso   1.000  H
  H171     1.0000 0.68860  0.48860  0.38850  Biso   1.000  H
  H172     1.0000 0.81140  0.98860  0.11150  Biso   1.000  H
  H173     1.0000 0.35440  0.46880  0.64900  Biso   1.000  H
  H174     1.0000 0.14560  0.96880  0.85100  Biso   1.000  H
  H175     1.0000 0.64560  0.53120  0.35100  Biso   1.000  H
  H176     1.0000 0.85440  0.03120  0.14900  Biso   1.000  H
  H177     1.0000 0.25780  0.48730  0.65920  Biso   1.000  H
  H178     1.0000 0.24220  0.98730  0.84080  Biso   1.000  H
  H179     1.0000 0.74220  0.51270  0.34080  Biso   1.000  H
  H180     1.0000 0.75780  0.01270  0.15920  Biso   1.000  H
  C93      1.0000 0.25600  0.38670  0.63030  Biso   1.000  C
  C94      1.0000 0.24400  0.88670  0.86970  Biso   1.000  C
  C95      1.0000 0.74400  0.61330  0.36970  Biso   1.000  C
  C96      1.0000 0.75600  0.11330  0.13030  Biso   1.000  C
  H181     1.0000 0.21620  0.39400  0.65910  Biso   1.000  H
  H182     1.0000 0.28380  0.89400  0.84090  Biso   1.000  H
  H183     1.0000 0.78380  0.60600  0.34090  Biso   1.000  H
  H184     1.0000 0.71620  0.10600  0.15910  Biso   1.000  H
  H185     1.0000 0.31170  0.37610  0.64480  Biso   1.000  H
  H186     1.0000 0.18830  0.87610  0.85520  Biso   1.000  H
  H187     1.0000 0.68830  0.62390  0.35520  Biso   1.000  H
  H188     1.0000 0.81170  0.12390  0.14480  Biso   1.000  H
  H189     1.0000 0.23280  0.35860  0.60840  Biso   1.000  H
  H190     1.0000 0.26720  0.85860  0.89160  Biso   1.000  H
  H191     1.0000 0.76720  0.64140  0.39160  Biso   1.000  H
  H192     1.0000 0.73280  0.14140  0.10840  Biso   1.000  H
  O45      1.0000 0.57260  0.00115  0.81550  Biso   1.000  O
  O46      1.0000 0.92740  0.50115  0.68450  Biso   1.000  O
  O47      1.0000 0.42740  0.99885  0.18450  Biso   1.000  O
  O48      1.0000 0.07260  0.49885  0.31550  Biso   1.000  O
  C97      1.0000 0.53360  0.03520  0.78770  Biso   1.000  C
  C98      1.0000 0.96640  0.53520  0.71230  Biso   1.000  C
  C99      1.0000 0.46640  0.96480  0.21230  Biso   1.000  C
  C100     1.0000 0.03360  0.46480  0.28770  Biso   1.000  C
  O49      1.0000 0.55970  0.08353  0.78563  Biso   1.000  O
  O50      1.0000 0.94030  0.58353  0.71437  Biso   1.000  O
  O51      1.0000 0.44030  0.91647  0.21437  Biso   1.000  O
  O52      1.0000 0.05970  0.41647  0.28563  Biso   1.000  O
  C101     1.0000 0.45400  0.02290  0.75280  Biso   1.000  C
  C102     1.0000 0.04600  0.52290  0.74720  Biso   1.000  C
  C103     1.0000 0.54600  0.97710  0.24720  Biso   1.000  C
  C104     1.0000 0.95400  0.47710  0.25280  Biso   1.000  C
  C105     1.0000 0.47970  0.03300  0.69490  Biso   1.000  C
  C106     1.0000 0.02030  0.53300  0.80510  Biso   1.000  C
  C107     1.0000 0.52030  0.96700  0.30510  Biso   1.000  C
  C108     1.0000 0.97970  0.46700  0.19490  Biso   1.000  C
  H193     1.0000 0.49740  0.06920  0.69090  Biso   1.000  H
  H194     1.0000 0.00260  0.56920  0.80910  Biso   1.000  H
  H195     1.0000 0.50260  0.93080  0.30910  Biso   1.000  H
  H196     1.0000 0.99740  0.43080  0.19090  Biso   1.000  H
  H197     1.0000 0.43040  0.02600  0.67180  Biso   1.000  H
  H198     1.0000 0.06960  0.52600  0.82820  Biso   1.000  H
  H199     1.0000 0.56960  0.97400  0.32820  Biso   1.000  H
  H200     1.0000 0.93040  0.47400  0.17180  Biso   1.000  H
  H201     1.0000 0.52740  0.01010  0.68540  Biso   1.000  H
  H202     1.0000 0.97260  0.51010  0.81460  Biso   1.000  H
  H203     1.0000 0.47260  0.98990  0.31460  Biso   1.000  H
  H204     1.0000 0.02740  0.48990  0.18540  Biso   1.000  H
  C109     1.0000 0.42590  0.96520  0.75850  Biso   1.000  C
  C110     1.0000 0.07410  0.46520  0.74150  Biso   1.000  C
  C111     1.0000 0.57410  0.03480  0.24150  Biso   1.000  C
  C112     1.0000 0.92590  0.53480  0.25850  Biso   1.000  C
  H205     1.0000 0.40810  0.95860  0.79480  Biso   1.000  H
  H206     1.0000 0.09190  0.45860  0.70520  Biso   1.000  H
  H207     1.0000 0.59190  0.04140  0.20520  Biso   1.000  H
  H208     1.0000 0.90810  0.54140  0.29480  Biso   1.000  H
  H209     1.0000 0.47420  0.94250  0.74960  Biso   1.000  H
  H210     1.0000 0.02580  0.44250  0.75040  Biso   1.000  H
  H211     1.0000 0.52580  0.05750  0.25040  Biso   1.000  H
  H212     1.0000 0.97420  0.55750  0.24960  Biso   1.000  H
  H213     1.0000 0.37780  0.95820  0.73450  Biso   1.000  H
  H214     1.0000 0.12220  0.45820  0.76550  Biso   1.000  H
  H215     1.0000 0.62220  0.04180  0.26550  Biso   1.000  H
  H216     1.0000 0.87780  0.54180  0.23450  Biso   1.000  H
  C113     1.0000 0.38130  0.05880  0.77060  Biso   1.000  C
  C114     1.0000 0.11870  0.55880  0.72940  Biso   1.000  C
  C115     1.0000 0.61870  0.94120  0.22940  Biso   1.000  C
  C116     1.0000 0.88130  0.44120  0.27060  Biso   1.000  C
  H217     1.0000 0.36750  0.05160  0.80750  Biso   1.000  H
  H218     1.0000 0.13250  0.55160  0.69250  Biso   1.000  H
  H219     1.0000 0.63250  0.94840  0.19250  Biso   1.000  H
  H220     1.0000 0.86750  0.44840  0.30750  Biso   1.000  H
  H221     1.0000 0.33030  0.05270  0.74870  Biso   1.000  H
  H222     1.0000 0.16970  0.55270  0.75130  Biso   1.000  H
  H223     1.0000 0.66970  0.94730  0.25130  Biso   1.000  H
  H224     1.0000 0.83030  0.44730  0.24870  Biso   1.000  H
  H225     1.0000 0.39940  0.09500  0.76700  Biso   1.000  H
  H226     1.0000 0.10060  0.59500  0.73300  Biso   1.000  H
  H227     1.0000 0.60060  0.90500  0.23300  Biso   1.000  H
  H228     1.0000 0.89940  0.40500  0.26700  Biso   1.000  H
  O53      1.0000 0.70500  0.53740  0.63971  Biso   1.000  O
  O54      1.0000 0.79500  0.03740  0.86029  Biso   1.000  O
  O55      1.0000 0.29500  0.46260  0.36029  Biso   1.000  O
  O56      1.0000 0.20500  0.96260  0.13971  Biso   1.000  O
  C117     1.0000 0.66330  0.57890  0.65000  Biso   1.000  C
  C118     1.0000 0.83670  0.07890  0.85000  Biso   1.000  C
  C119     1.0000 0.33670  0.42110  0.35000  Biso   1.000  C
  C120     1.0000 0.16330  0.92110  0.15000  Biso   1.000  C
  O57      1.0000 0.69930  0.61759  0.67432  Biso   1.000  O
  O58      1.0000 0.80070  0.11759  0.82568  Biso   1.000  O
  O59      1.0000 0.30070  0.38241  0.32568  Biso   1.000  O
  O60      1.0000 0.19930  0.88241  0.17432  Biso   1.000  O
  C121     1.0000 0.56950  0.58410  0.63360  Biso   1.000  C
  C122     1.0000 0.93050  0.08410  0.86640  Biso   1.000  C
  C123     1.0000 0.43050  0.41590  0.36640  Biso   1.000  C
  C124     1.0000 0.06950  0.91590  0.13360  Biso   1.000  C
  C125     1.0000 0.54410  0.54170  0.59400  Biso   1.000  C
  C126     1.0000 0.95590  0.04170  0.90600  Biso   1.000  C
  C127     1.0000 0.45590  0.45830  0.40600  Biso   1.000  C
  C128     1.0000 0.04410  0.95830  0.09400  Biso   1.000  C
  H229     1.0000 0.57970  0.54480  0.56240  Biso   1.000  H
  H230     1.0000 0.92030  0.04480  0.93760  Biso   1.000  H
  H231     1.0000 0.42030  0.45520  0.43760  Biso   1.000  H
  H232     1.0000 0.07970  0.95520  0.06240  Biso   1.000  H
  H233     1.0000 0.48350  0.54580  0.58430  Biso   1.000  H
  H234     1.0000 0.01650  0.04580  0.91570  Biso   1.000  H
  H235     1.0000 0.51650  0.45420  0.41570  Biso   1.000  H
  H236     1.0000 0.98350  0.95420  0.08430  Biso   1.000  H
  H237     1.0000 0.55300  0.50750  0.61000  Biso   1.000  H
  H238     1.0000 0.94700  0.00750  0.89000  Biso   1.000  H
  H239     1.0000 0.44700  0.49250  0.39000  Biso   1.000  H
  H240     1.0000 0.05300  0.99250  0.11000  Biso   1.000  H
  C129     1.0000 0.51590  0.57450  0.68320  Biso   1.000  C
  C130     1.0000 0.98410  0.07450  0.81680  Biso   1.000  C
  C131     1.0000 0.48410  0.42550  0.31680  Biso   1.000  C
  C132     1.0000 0.01590  0.92550  0.18320  Biso   1.000  C
  H241     1.0000 0.53080  0.60030  0.71000  Biso   1.000  H
  H242     1.0000 0.96920  0.10030  0.79000  Biso   1.000  H
  H243     1.0000 0.46920  0.39970  0.29000  Biso   1.000  H
  H244     1.0000 0.03080  0.89970  0.21000  Biso   1.000  H
  H245     1.0000 0.52800  0.53970  0.69680  Biso   1.000  H
  H246     1.0000 0.97200  0.03970  0.80320  Biso   1.000  H
  H247     1.0000 0.47200  0.46030  0.30320  Biso   1.000  H
  H248     1.0000 0.02800  0.96030  0.19680  Biso   1.000  H
  H249     1.0000 0.45480  0.57730  0.67440  Biso   1.000  H
  H250     1.0000 0.04520  0.07730  0.82560  Biso   1.000  H
  H251     1.0000 0.54520  0.42270  0.32560  Biso   1.000  H
  H252     1.0000 0.95480  0.92270  0.17440  Biso   1.000  H
  C133     1.0000 0.55520  0.63810  0.60660  Biso   1.000  C
  C134     1.0000 0.94480  0.13810  0.89340  Biso   1.000  C
  C135     1.0000 0.44480  0.36190  0.39340  Biso   1.000  C
  C136     1.0000 0.05520  0.86190  0.10660  Biso   1.000  C
  H253     1.0000 0.59380  0.64150  0.57640  Biso   1.000  H
  H254     1.0000 0.90620  0.14150  0.92360  Biso   1.000  H
  H255     1.0000 0.40620  0.35850  0.42360  Biso   1.000  H
  H256     1.0000 0.09380  0.85850  0.07640  Biso   1.000  H
  H257     1.0000 0.56730  0.66580  0.63200  Biso   1.000  H
  H258     1.0000 0.93270  0.16580  0.86800  Biso   1.000  H
  H259     1.0000 0.43270  0.33420  0.36800  Biso   1.000  H
  H260     1.0000 0.06730  0.83420  0.13200  Biso   1.000  H
  H261     1.0000 0.49550  0.64090  0.59450  Biso   1.000  H
  H262     1.0000 0.00450  0.14090  0.90550  Biso   1.000  H
  H263     1.0000 0.50450  0.35910  0.40550  Biso   1.000  H
  H264     1.0000 0.99550  0.85910  0.09450  Biso   1.000  H
  O61      1.0000 0.64770  0.27582  0.71931  Biso   1.000  O
  O62      1.0000 0.85230  0.77582  0.78069  Biso   1.000  O
  O63      1.0000 0.35230  0.72418  0.28069  Biso   1.000  O
  O64      1.0000 0.14770  0.22418  0.21931  Biso   1.000  O
  C137     1.0000 0.63690  0.32460  0.72490  Biso   1.000  C
  C138     1.0000 0.86310  0.82460  0.77510  Biso   1.000  C
  C139     1.0000 0.36310  0.67540  0.27510  Biso   1.000  C
  C140     1.0000 0.13690  0.17540  0.22490  Biso   1.000  C
  O65      1.0000 0.69780  0.35817  0.71626  Biso   1.000  O
  O66      1.0000 0.80220  0.85817  0.78374  Biso   1.000  O
  O67      1.0000 0.30220  0.64183  0.28374  Biso   1.000  O
  O68      1.0000 0.19780  0.14183  0.21626  Biso   1.000  O
  C141     1.0000 0.54950  0.34740  0.74220  Biso   1.000  C
  C142     1.0000 0.95050  0.84740  0.75780  Biso   1.000  C
  C143     1.0000 0.45050  0.65260  0.25780  Biso   1.000  C
  C144     1.0000 0.04950  0.15260  0.24220  Biso   1.000  C
  C145     1.0000 0.53650  0.39990  0.72470  Biso   1.000  C
  C146     1.0000 0.96350  0.89990  0.77530  Biso   1.000  C
  C147     1.0000 0.46350  0.60010  0.27530  Biso   1.000  C
  C148     1.0000 0.03650  0.10010  0.22470  Biso   1.000  C
  H265     1.0000 0.48050  0.41230  0.73680  Biso   1.000  H
  H266     1.0000 0.01950  0.91230  0.76320  Biso   1.000  H
  H267     1.0000 0.51950  0.58770  0.26320  Biso   1.000  H
  H268     1.0000 0.98050  0.08770  0.23680  Biso   1.000  H
  H269     1.0000 0.53820  0.40110  0.68610  Biso   1.000  H
  H270     1.0000 0.96180  0.90110  0.81390  Biso   1.000  H
  H271     1.0000 0.46180  0.59890  0.31390  Biso   1.000  H
  H272     1.0000 0.03820  0.09890  0.18610  Biso   1.000  H
  H273     1.0000 0.58190  0.42210  0.73910  Biso   1.000  H
  H274     1.0000 0.91810  0.92210  0.76090  Biso   1.000  H
  H275     1.0000 0.41810  0.57790  0.26090  Biso   1.000  H
  H276     1.0000 0.08190  0.07790  0.23910  Biso   1.000  H
  C149     1.0000 0.48080  0.31900  0.73120  Biso   1.000  C
  C150     1.0000 0.01920  0.81900  0.76880  Biso   1.000  C
  C151     1.0000 0.51920  0.68100  0.26880  Biso   1.000  C
  C152     1.0000 0.98080  0.18100  0.23120  Biso   1.000  C
  H277     1.0000 0.42940  0.33660  0.74450  Biso   1.000  H
  H278     1.0000 0.07060  0.83660  0.75550  Biso   1.000  H
  H279     1.0000 0.57060  0.66340  0.25550  Biso   1.000  H
  H280     1.0000 0.92940  0.16340  0.24450  Biso   1.000  H
  H281     1.0000 0.48630  0.28500  0.74810  Biso   1.000  H
  H282     1.0000 0.01370  0.78500  0.75190  Biso   1.000  H
  H283     1.0000 0.51370  0.71500  0.25190  Biso   1.000  H
  H284     1.0000 0.98630  0.21500  0.24810  Biso   1.000  H
  H285     1.0000 0.47570  0.31450  0.69300  Biso   1.000  H
  H286     1.0000 0.02430  0.81450  0.80700  Biso   1.000  H
  H287     1.0000 0.52430  0.68550  0.30700  Biso   1.000  H
  H288     1.0000 0.97570  0.18550  0.19300  Biso   1.000  H
  C153     1.0000 0.54300  0.34850  0.79560  Biso   1.000  C
  C154     1.0000 0.95700  0.84850  0.70440  Biso   1.000  C
  C155     1.0000 0.45700  0.65150  0.20440  Biso   1.000  C
  C156     1.0000 0.04300  0.15150  0.29560  Biso   1.000  C
  H289     1.0000 0.48690  0.36260  0.80550  Biso   1.000  H
  H290     1.0000 0.01310  0.86260  0.69450  Biso   1.000  H
  H291     1.0000 0.51310  0.63740  0.19450  Biso   1.000  H
  H292     1.0000 0.98690  0.13740  0.30550  Biso   1.000  H
  H293     1.0000 0.58860  0.37040  0.81030  Biso   1.000  H
  H294     1.0000 0.91140  0.87040  0.68970  Biso   1.000  H
  H295     1.0000 0.41140  0.62960  0.18970  Biso   1.000  H
  H296     1.0000 0.08860  0.12960  0.31030  Biso   1.000  H
  H297     1.0000 0.54870  0.31320  0.80950  Biso   1.000  H
  H298     1.0000 0.95130  0.81320  0.69050  Biso   1.000  H
  H299     1.0000 0.45130  0.68680  0.19050  Biso   1.000  H
  H300     1.0000 0.04870  0.18680  0.30950  Biso   1.000  H
  O69      1.0000 0.70800  0.13623  0.70338  Biso   1.000  O
  O70      1.0000 0.79200  0.63623  0.79662  Biso   1.000  O
  O71      1.0000 0.29200  0.86377  0.29662  Biso   1.000  O
  O72      1.0000 0.20800  0.36377  0.20338  Biso   1.000  O
  C157     1.0000 0.72870  0.08830  0.70400  Biso   1.000  C
  C158     1.0000 0.77130  0.58830  0.79600  Biso   1.000  C
  C159     1.0000 0.27130  0.91170  0.29600  Biso   1.000  C
  C160     1.0000 0.22870  0.41170  0.20400  Biso   1.000  C
  O73      1.0000 0.72140  0.05870  0.74512  Biso   1.000  O
  O74      1.0000 0.77860  0.55870  0.75488  Biso   1.000  O
  O75      1.0000 0.27860  0.94130  0.25488  Biso   1.000  O
  O76      1.0000 0.22140  0.44130  0.24512  Biso   1.000  O
  C161     1.0000 0.76570  0.06260  0.65360  Biso   1.000  C
  C162     1.0000 0.73430  0.56260  0.84640  Biso   1.000  C
  C163     1.0000 0.23430  0.93740  0.34640  Biso   1.000  C
  C164     1.0000 0.26570  0.43740  0.15360  Biso   1.000  C
  C165     1.0000 0.69300  0.06740  0.60930  Biso   1.000  C
  C166     1.0000 0.80700  0.56740  0.89070  Biso   1.000  C
  C167     1.0000 0.30700  0.93260  0.39070  Biso   1.000  C
  C168     1.0000 0.19300  0.43260  0.10930  Biso   1.000  C
  H301     1.0000 0.71340  0.05160  0.57650  Biso   1.000  H
  H302     1.0000 0.78660  0.55160  0.92350  Biso   1.000  H
  H303     1.0000 0.28660  0.94840  0.42350  Biso   1.000  H
  H304     1.0000 0.21340  0.44840  0.07650  Biso   1.000  H
  H305     1.0000 0.67990  0.10410  0.60310  Biso   1.000  H
  H306     1.0000 0.82010  0.60410  0.89690  Biso   1.000  H
  H307     1.0000 0.32010  0.89590  0.39690  Biso   1.000  H
  H308     1.0000 0.17990  0.39590  0.10310  Biso   1.000  H
  H309     1.0000 0.64100  0.04940  0.62100  Biso   1.000  H
  H310     1.0000 0.85900  0.54940  0.87900  Biso   1.000  H
  H311     1.0000 0.35900  0.95060  0.37900  Biso   1.000  H
  H312     1.0000 0.14100  0.45060  0.12100  Biso   1.000  H
  C169     1.0000 0.83290  0.09260  0.63220  Biso   1.000  C
  C170     1.0000 0.66710  0.59260  0.86780  Biso   1.000  C
  C171     1.0000 0.16710  0.90740  0.36780  Biso   1.000  C
  C172     1.0000 0.33290  0.40740  0.13220  Biso   1.000  C
  H313     1.0000 0.88200  0.09230  0.65650  Biso   1.000  H
  H314     1.0000 0.61800  0.59230  0.84350  Biso   1.000  H
  H315     1.0000 0.11800  0.90770  0.34350  Biso   1.000  H
  H316     1.0000 0.38200  0.40770  0.15650  Biso   1.000  H
  H317     1.0000 0.81310  0.12830  0.62710  Biso   1.000  H
  H318     1.0000 0.68690  0.62830  0.87290  Biso   1.000  H
  H319     1.0000 0.18690  0.87170  0.37290  Biso   1.000  H
  H320     1.0000 0.31310  0.37170  0.12710  Biso   1.000  H
  H321     1.0000 0.85020  0.07790  0.59830  Biso   1.000  H
  H322     1.0000 0.64980  0.57790  0.90170  Biso   1.000  H
  H323     1.0000 0.14980  0.92210  0.40170  Biso   1.000  H
  H324     1.0000 0.35020  0.42210  0.09830  Biso   1.000  H
  C173     1.0000 0.77340  0.00560  0.65770  Biso   1.000  C
  C174     1.0000 0.72660  0.50560  0.84230  Biso   1.000  C
  C175     1.0000 0.22660  0.99440  0.34230  Biso   1.000  C
  C176     1.0000 0.27340  0.49440  0.15770  Biso   1.000  C
  H325     1.0000 0.81520  0.99690  0.68530  Biso   1.000  H
  H326     1.0000 0.68480  0.49690  0.81470  Biso   1.000  H
  H327     1.0000 0.18480  0.00310  0.31470  Biso   1.000  H
  H328     1.0000 0.31520  0.50310  0.18530  Biso   1.000  H
  H329     1.0000 0.79270  0.99140  0.62400  Biso   1.000  H
  H330     1.0000 0.70730  0.49140  0.87600  Biso   1.000  H
  H331     1.0000 0.20730  0.00860  0.37600  Biso   1.000  H
  H332     1.0000 0.29270  0.50860  0.12400  Biso   1.000  H
  H333     1.0000 0.71740  0.99070  0.66660  Biso   1.000  H
  H334     1.0000 0.78260  0.49070  0.83340  Biso   1.000  H
  H335     1.0000 0.28260  0.00930  0.33340  Biso   1.000  H
  H336     1.0000 0.21740  0.50930  0.16660  Biso   1.000  H
  O77      1.0000 0.84410  0.30967  0.76256  Biso   1.000  O
  O78      1.0000 0.65590  0.80967  0.73744  Biso   1.000  O
  O79      1.0000 0.15590  0.69033  0.23744  Biso   1.000  O
  O80      1.0000 0.34410  0.19033  0.26256  Biso   1.000  O
  C177     1.0000 0.87530  0.35070  0.78420  Biso   1.000  C
  C178     1.0000 0.62470  0.85070  0.71580  Biso   1.000  C
  C179     1.0000 0.12470  0.64930  0.21580  Biso   1.000  C
  C180     1.0000 0.37530  0.14930  0.28420  Biso   1.000  C
  O81      1.0000 0.88070  0.39389  0.76022  Biso   1.000  O
  O82      1.0000 0.61930  0.89389  0.73978  Biso   1.000  O
  O83      1.0000 0.11930  0.60611  0.23978  Biso   1.000  O
  O84      1.0000 0.38070  0.10611  0.26022  Biso   1.000  O
  C181     1.0000 0.90630  0.34550  0.84200  Biso   1.000  C
  C182     1.0000 0.59370  0.84550  0.65800  Biso   1.000  C
  C183     1.0000 0.09370  0.65450  0.15800  Biso   1.000  C
  C184     1.0000 0.40630  0.15450  0.34200  Biso   1.000  C
  C185     1.0000 0.96990  0.38390  0.85680  Biso   1.000  C
  C186     1.0000 0.53010  0.88390  0.64320  Biso   1.000  C
  C187     1.0000 0.03010  0.61610  0.14320  Biso   1.000  C
  C188     1.0000 0.46990  0.11610  0.35680  Biso   1.000  C
  H337     1.0000 0.02170  0.37890  0.83550  Biso   1.000  H
  H338     1.0000 0.47830  0.87890  0.66450  Biso   1.000  H
  H339     1.0000 0.97830  0.62110  0.16450  Biso   1.000  H
  H340     1.0000 0.52170  0.12110  0.33550  Biso   1.000  H
  H341     1.0000 0.98440  0.37990  0.89420  Biso   1.000  H
  H342     1.0000 0.51560  0.87990  0.60580  Biso   1.000  H
  H343     1.0000 0.01560  0.62010  0.10580  Biso   1.000  H
  H344     1.0000 0.48440  0.12010  0.39420  Biso   1.000  H
  H345     1.0000 0.94680  0.41870  0.85060  Biso   1.000  H
  H346     1.0000 0.55320  0.91870  0.64940  Biso   1.000  H
  H347     1.0000 0.05320  0.58130  0.14940  Biso   1.000  H
  H348     1.0000 0.44680  0.08130  0.35060  Biso   1.000  H
  C189     1.0000 0.92870  0.29120  0.85680  Biso   1.000  C
  C190     1.0000 0.57130  0.79120  0.64320  Biso   1.000  C
  C191     1.0000 0.07130  0.70880  0.14320  Biso   1.000  C
  C192     1.0000 0.42870  0.20880  0.35680  Biso   1.000  C
  H349     1.0000 0.98050  0.28060  0.83790  Biso   1.000  H
  H350     1.0000 0.51950  0.78060  0.66210  Biso   1.000  H
  H351     1.0000 0.01950  0.71940  0.16210  Biso   1.000  H
  H352     1.0000 0.48050  0.21940  0.33790  Biso   1.000  H
  H353     1.0000 0.88110  0.26810  0.84740  Biso   1.000  H
  H354     1.0000 0.61890  0.76810  0.65260  Biso   1.000  H
  H355     1.0000 0.11890  0.73190  0.15260  Biso   1.000  H
  H356     1.0000 0.38110  0.23190  0.34740  Biso   1.000  H
  H357     1.0000 0.93940  0.28930  0.89480  Biso   1.000  H
  H358     1.0000 0.56060  0.78930  0.60520  Biso   1.000  H
  H359     1.0000 0.06060  0.71070  0.10520  Biso   1.000  H
  H360     1.0000 0.43940  0.21070  0.39480  Biso   1.000  H
  C193     1.0000 0.82840  0.35840  0.87760  Biso   1.000  C
  C194     1.0000 0.67160  0.85840  0.62240  Biso   1.000  C
  C195     1.0000 0.17160  0.64160  0.12240  Biso   1.000  C
  C196     1.0000 0.32840  0.14160  0.37760  Biso   1.000  C
  H361     1.0000 0.84550  0.35540  0.91470  Biso   1.000  H
  H362     1.0000 0.65450  0.85540  0.58530  Biso   1.000  H
  H363     1.0000 0.15450  0.64460  0.08530  Biso   1.000  H
  H364     1.0000 0.34550  0.14460  0.41470  Biso   1.000  H
  H365     1.0000 0.78160  0.33410  0.87020  Biso   1.000  H
  H366     1.0000 0.71840  0.83410  0.62980  Biso   1.000  H
  H367     1.0000 0.21840  0.66590  0.12980  Biso   1.000  H
  H368     1.0000 0.28160  0.16590  0.37020  Biso   1.000  H
  H369     1.0000 0.80900  0.39390  0.87050  Biso   1.000  H
  H370     1.0000 0.69100  0.89390  0.62950  Biso   1.000  H
  H371     1.0000 0.19100  0.60610  0.12950  Biso   1.000  H
  H372     1.0000 0.30900  0.10610  0.37050  Biso   1.000  H
  C197     1.0000 0.32450  0.20720  0.77460  Biso   1.000  C
  C198     1.0000 0.17550  0.70720  0.72540  Biso   1.000  C
  C199     1.0000 0.67550  0.79280  0.22540  Biso   1.000  C
  C200     1.0000 0.82450  0.29280  0.27460  Biso   1.000  C
  O85      1.0000 0.39410  0.20030  0.78790  Biso   1.000  O
  O86      1.0000 0.10590  0.70030  0.71210  Biso   1.000  O
  O87      1.0000 0.60590  0.79970  0.21210  Biso   1.000  O
  O88      1.0000 0.89410  0.29970  0.28790  Biso   1.000  O
  O89      1.0000 0.29870  0.20050  0.72630  Biso   1.000  O
  O90      1.0000 0.20130  0.70050  0.77370  Biso   1.000  O
  O91      1.0000 0.70130  0.79950  0.27370  Biso   1.000  O
  O92      1.0000 0.79870  0.29950  0.22630  Biso   1.000  O
  H373     1.0000 0.34120  0.19540  0.70700  Biso   1.000  H
  H374     1.0000 0.15880  0.69540  0.79300  Biso   1.000  H
  H375     1.0000 0.65880  0.80460  0.29300  Biso   1.000  H
  H376     1.0000 0.84120  0.30460  0.20700  Biso   1.000  H
  C201     1.0000 0.25710  0.21710  0.81630  Biso   1.000  C
  C202     1.0000 0.24290  0.71710  0.68370  Biso   1.000  C
  C203     1.0000 0.74290  0.78290  0.18370  Biso   1.000  C
  C204     1.0000 0.75710  0.28290  0.31630  Biso   1.000  C
  C205     1.0000 0.32610  0.20340  0.85620  Biso   1.000  C
  C206     1.0000 0.17390  0.70340  0.64380  Biso   1.000  C
  C207     1.0000 0.67390  0.79660  0.14380  Biso   1.000  C
  C208     1.0000 0.82610  0.29660  0.35620  Biso   1.000  C
  H377     1.0000 0.33500  0.16580  0.85630  Biso   1.000  H
  H378     1.0000 0.16500  0.66580  0.64370  Biso   1.000  H
  H379     1.0000 0.66500  0.83420  0.14370  Biso   1.000  H
  H380     1.0000 0.83500  0.33420  0.35630  Biso   1.000  H
  H381     1.0000 0.30820  0.21470  0.89130  Biso   1.000  H
  H382     1.0000 0.19180  0.71470  0.60870  Biso   1.000  H
  H383     1.0000 0.69180  0.78530  0.10870  Biso   1.000  H
  H384     1.0000 0.80820  0.28530  0.39130  Biso   1.000  H
  H385     1.0000 0.37980  0.22080  0.84670  Biso   1.000  H
  H386     1.0000 0.12020  0.72080  0.65330  Biso   1.000  H
  H387     1.0000 0.62020  0.77920  0.15330  Biso   1.000  H
  H388     1.0000 0.87980  0.27920  0.34670  Biso   1.000  H
  C209     1.0000 0.22040  0.27230  0.80110  Biso   1.000  C
  C210     1.0000 0.27960  0.77230  0.69890  Biso   1.000  C
  C211     1.0000 0.77960  0.72770  0.19890  Biso   1.000  C
  C212     1.0000 0.72040  0.22770  0.30110  Biso   1.000  C
  H389     1.0000 0.18770  0.26980  0.76810  Biso   1.000  H
  H390     1.0000 0.31230  0.76980  0.73190  Biso   1.000  H
  H391     1.0000 0.81230  0.73020  0.23190  Biso   1.000  H
  H392     1.0000 0.68770  0.23020  0.26810  Biso   1.000  H
  H393     1.0000 0.26800  0.29670  0.79660  Biso   1.000  H
  H394     1.0000 0.23200  0.79670  0.70340  Biso   1.000  H
  H395     1.0000 0.73200  0.70330  0.20340  Biso   1.000  H
  H396     1.0000 0.76800  0.20330  0.29660  Biso   1.000  H
  H397     1.0000 0.18260  0.28470  0.82920  Biso   1.000  H
  H398     1.0000 0.31740  0.78470  0.67080  Biso   1.000  H
  H399     1.0000 0.81740  0.71530  0.17080  Biso   1.000  H
  H400     1.0000 0.68260  0.21530  0.32920  Biso   1.000  H
  C213     1.0000 0.21210  0.17490  0.82090  Biso   1.000  C
  C214     1.0000 0.28790  0.67490  0.67910  Biso   1.000  C
  C215     1.0000 0.78790  0.82510  0.17910  Biso   1.000  C
  C216     1.0000 0.71210  0.32510  0.32090  Biso   1.000  C
  H401     1.0000 0.24880  0.14690  0.83450  Biso   1.000  H
  H402     1.0000 0.25120  0.64690  0.66550  Biso   1.000  H
  H403     1.0000 0.75120  0.85310  0.16550  Biso   1.000  H
  H404     1.0000 0.74880  0.35310  0.33450  Biso   1.000  H
  H405     1.0000 0.18910  0.16500  0.78630  Biso   1.000  H
  H406     1.0000 0.31090  0.66500  0.71370  Biso   1.000  H
  H407     1.0000 0.81090  0.83500  0.21370  Biso   1.000  H
  H408     1.0000 0.68910  0.33500  0.28630  Biso   1.000  H
  H409     1.0000 0.16460  0.18080  0.84530  Biso   1.000  H
  H410     1.0000 0.33540  0.68080  0.65470  Biso   1.000  H
  H411     1.0000 0.83540  0.81920  0.15470  Biso   1.000  H
  H412     1.0000 0.66460  0.31920  0.34530  Biso   1.000  H
  O93      1.0000 0.75380  0.32668  0.61751  Biso   1.000  O
  O94      1.0000 0.74620  0.82668  0.88249  Biso   1.000  O
  O95      1.0000 0.24620  0.67332  0.38249  Biso   1.000  O
  O96      1.0000 0.25380  0.17332  0.11751  Biso   1.000  O
  C217     1.0000 0.75600  0.37180  0.59410  Biso   1.000  C
  C218     1.0000 0.74400  0.87180  0.90590  Biso   1.000  C
  C219     1.0000 0.24400  0.62820  0.40590  Biso   1.000  C
  C220     1.0000 0.25600  0.12820  0.09410  Biso   1.000  C
  O97      1.0000 0.79600  0.41049  0.61344  Biso   1.000  O
  O98      1.0000 0.70400  0.91049  0.88656  Biso   1.000  O
  O99      1.0000 0.20400  0.58951  0.38656  Biso   1.000  O
  O100     1.0000 0.29600  0.08951  0.11344  Biso   1.000  O
  C221     1.0000 0.70740  0.37520  0.54190  Biso   1.000  C
  C222     1.0000 0.79260  0.87520  0.95810  Biso   1.000  C
  C223     1.0000 0.29260  0.62480  0.45810  Biso   1.000  C
  C224     1.0000 0.20740  0.12480  0.04190  Biso   1.000  C
  C225     1.0000 0.62250  0.35250  0.54490  Biso   1.000  C
  C226     1.0000 0.87750  0.85250  0.95510  Biso   1.000  C
  C227     1.0000 0.37750  0.64750  0.45510  Biso   1.000  C
  C228     1.0000 0.12250  0.14750  0.04490  Biso   1.000  C
  H413     1.0000 0.58300  0.37180  0.52200  Biso   1.000  H
  H414     1.0000 0.91700  0.87180  0.97800  Biso   1.000  H
  H415     1.0000 0.41700  0.62820  0.47800  Biso   1.000  H
  H416     1.0000 0.08300  0.12820  0.02200  Biso   1.000  H
  H417     1.0000 0.60210  0.35410  0.58130  Biso   1.000  H
  H418     1.0000 0.89790  0.85410  0.91870  Biso   1.000  H
  H419     1.0000 0.39790  0.64590  0.41870  Biso   1.000  H
  H420     1.0000 0.10210  0.14590  0.08130  Biso   1.000  H
  H421     1.0000 0.62500  0.31620  0.53350  Biso   1.000  H
  H422     1.0000 0.87500  0.81620  0.96650  Biso   1.000  H
  H423     1.0000 0.37500  0.68380  0.46650  Biso   1.000  H
  H424     1.0000 0.12500  0.18380  0.03350  Biso   1.000  H
  C229     1.0000 0.73900  0.33420  0.50580  Biso   1.000  C
  C230     1.0000 0.76100  0.83420  0.99420  Biso   1.000  C
  C231     1.0000 0.26100  0.66580  0.49420  Biso   1.000  C
  C232     1.0000 0.23900  0.16580  0.00580  Biso   1.000  C
  H425     1.0000 0.77760  0.31080  0.52510  Biso   1.000  H
  H426     1.0000 0.72240  0.81080  0.97490  Biso   1.000  H
  H427     1.0000 0.22240  0.68920  0.47490  Biso   1.000  H
  H428     1.0000 0.27760  0.18920  0.02510  Biso   1.000  H
  H429     1.0000 0.77020  0.35020  0.47660  Biso   1.000  H
  H430     1.0000 0.72980  0.85020  0.02340  Biso   1.000  H
  H431     1.0000 0.22980  0.64980  0.52340  Biso   1.000  H
  H432     1.0000 0.27020  0.14980  0.97660  Biso   1.000  H
  H433     1.0000 0.69020  0.31440  0.49180  Biso   1.000  H
  H434     1.0000 0.80980  0.81440  0.00820  Biso   1.000  H
  H435     1.0000 0.30980  0.68560  0.50820  Biso   1.000  H
  H436     1.0000 0.19020  0.18560  0.99180  Biso   1.000  H
  C233     1.0000 0.73180  0.41690  0.50790  Biso   1.000  C
  C234     1.0000 0.76820  0.91690  0.99210  Biso   1.000  C
  C235     1.0000 0.26820  0.58310  0.49210  Biso   1.000  C
  C236     1.0000 0.23180  0.08310  0.00790  Biso   1.000  C
  H437     1.0000 0.69830  0.41500  0.47520  Biso   1.000  H
  H438     1.0000 0.80170  0.91500  0.02480  Biso   1.000  H
  H439     1.0000 0.30170  0.58500  0.52480  Biso   1.000  H
  H440     1.0000 0.19830  0.08500  0.97520  Biso   1.000  H
  H441     1.0000 0.79310  0.41410  0.49980  Biso   1.000  H
  H442     1.0000 0.70690  0.91410  0.00020  Biso   1.000  H
  H443     1.0000 0.20690  0.58590  0.50020  Biso   1.000  H
  H444     1.0000 0.29310  0.08590  0.99980  Biso   1.000  H
  H445     1.0000 0.72070  0.45000  0.52550  Biso   1.000  H
  H446     1.0000 0.77930  0.95000  0.97450  Biso   1.000  H
  H447     1.0000 0.27930  0.55000  0.47450  Biso   1.000  H
  H448     1.0000 0.22070  0.05000  0.02550  Biso   1.000  H
  O101     1.0000 0.85750  0.95870  0.53540  Biso   1.000  O
  O102     1.0000 0.64250  0.45870  0.96460  Biso   1.000  O
  O103     1.0000 0.14250  0.04130  0.46460  Biso   1.000  O
  O104     1.0000 0.35750  0.54130  0.03540  Biso   1.000  O
  C237     1.0000 0.85280  0.92830  0.48750  Biso   1.000  C
  C238     1.0000 0.64720  0.42830  0.01250  Biso   1.000  C
  C239     1.0000 0.14720  0.07170  0.51250  Biso   1.000  C
  C240     1.0000 0.35280  0.57170  0.98750  Biso   1.000  C
  H449     1.0000 0.80000  0.90680  0.48730  Biso   1.000  H
  H450     1.0000 0.70000  0.40680  0.01270  Biso   1.000  H
  H451     1.0000 0.20000  0.09320  0.51270  Biso   1.000  H
  H452     1.0000 0.30000  0.59320  0.98730  Biso   1.000  H
  H453     1.0000 0.85110  0.95150  0.45640  Biso   1.000  H
  H454     1.0000 0.64890  0.45150  0.04360  Biso   1.000  H
  H455     1.0000 0.14890  0.04850  0.54360  Biso   1.000  H
  H456     1.0000 0.35110  0.54850  0.95640  Biso   1.000  H
  C241     1.0000 0.92810  0.89530  0.48540  Biso   1.000  C
  C242     1.0000 0.57190  0.39530  0.01460  Biso   1.000  C
  C243     1.0000 0.07190  0.10470  0.51460  Biso   1.000  C
  C244     1.0000 0.42810  0.60470  0.98540  Biso   1.000  C
  H457     1.0000 0.96180  0.90310  0.45340  Biso   1.000  H
  H458     1.0000 0.53820  0.40310  0.04660  Biso   1.000  H
  H459     1.0000 0.03820  0.09690  0.54660  Biso   1.000  H
  H460     1.0000 0.46180  0.59690  0.95340  Biso   1.000  H
  H461     1.0000 0.91070  0.85840  0.48430  Biso   1.000  H
  H462     1.0000 0.58930  0.35840  0.01570  Biso   1.000  H
  H463     1.0000 0.08930  0.14160  0.51570  Biso   1.000  H
  H464     1.0000 0.41070  0.64160  0.98430  Biso   1.000  H
  C245     1.0000 0.97940  0.90540  0.53210  Biso   1.000  C
  C246     1.0000 0.52060  0.40540  0.96790  Biso   1.000  C
  C247     1.0000 0.02060  0.09460  0.46790  Biso   1.000  C
  C248     1.0000 0.47940  0.59460  0.03210  Biso   1.000  C
  H465     1.0000 0.98610  0.87320  0.55300  Biso   1.000  H
  H466     1.0000 0.51390  0.37320  0.94700  Biso   1.000  H
  H467     1.0000 0.01390  0.12680  0.44700  Biso   1.000  H
  H468     1.0000 0.48610  0.62680  0.05300  Biso   1.000  H
  H469     1.0000 0.03720  0.91780  0.52200  Biso   1.000  H
  H470     1.0000 0.46280  0.41780  0.97800  Biso   1.000  H
  H471     1.0000 0.96280  0.08220  0.47800  Biso   1.000  H
  H472     1.0000 0.53720  0.58220  0.02200  Biso   1.000  H
  C249     1.0000 0.93580  0.94450  0.56300  Biso   1.000  C
  C250     1.0000 0.56420  0.44450  0.93700  Biso   1.000  C
  C251     1.0000 0.06420  0.05550  0.43700  Biso   1.000  C
  C252     1.0000 0.43580  0.55550  0.06300  Biso   1.000  C
  H473     1.0000 0.97310  0.97530  0.56740  Biso   1.000  H
  H474     1.0000 0.52690  0.47530  0.93260  Biso   1.000  H
  H475     1.0000 0.02690  0.02470  0.43260  Biso   1.000  H
  H476     1.0000 0.47310  0.52470  0.06740  Biso   1.000  H
  H477     1.0000 0.92200  0.93070  0.59840  Biso   1.000  H
  H478     1.0000 0.57800  0.43070  0.90160  Biso   1.000  H
  H479     1.0000 0.07800  0.06930  0.40160  Biso   1.000  H
  H480     1.0000 0.42200  0.56930  0.09840  Biso   1.000  H
  O105     1.0000 0.12200  0.04360  0.67800  Biso   1.000  O
  O106     1.0000 0.37800  0.54360  0.82200  Biso   1.000  O
  O107     1.0000 0.87800  0.95640  0.32200  Biso   1.000  O
  O108     1.0000 0.62200  0.45640  0.17800  Biso   1.000  O
  C253     1.0000 0.18500  0.06150  0.66900  Biso   1.000  C
  C254     1.0000 0.31500  0.56150  0.83100  Biso   1.000  C
  C255     1.0000 0.81500  0.93850  0.33100  Biso   1.000  C
  C256     1.0000 0.68500  0.43850  0.16900  Biso   1.000  C
  H481     1.0000 0.21790  0.07180  0.70030  Biso   1.000  H
  H482     1.0000 0.28210  0.57180  0.79970  Biso   1.000  H
  H483     1.0000 0.78210  0.92820  0.29970  Biso   1.000  H
  H484     1.0000 0.71790  0.42820  0.20030  Biso   1.000  H
  H485     1.0000 0.18050  0.09080  0.64350  Biso   1.000  H
  H486     1.0000 0.31950  0.59080  0.85650  Biso   1.000  H
  H487     1.0000 0.81950  0.90920  0.35650  Biso   1.000  H
  H488     1.0000 0.68050  0.40920  0.14350  Biso   1.000  H
  C257     1.0000 0.21950  0.00820  0.64170  Biso   1.000  C
  C258     1.0000 0.28050  0.50820  0.85830  Biso   1.000  C
  C259     1.0000 0.78050  0.99180  0.35830  Biso   1.000  C
  C260     1.0000 0.71950  0.49180  0.14170  Biso   1.000  C
  H489     1.0000 0.28270  0.00450  0.64450  Biso   1.000  H
  H490     1.0000 0.21730  0.50450  0.85550  Biso   1.000  H
  H491     1.0000 0.71730  0.99550  0.35550  Biso   1.000  H
  H492     1.0000 0.78270  0.49550  0.14450  Biso   1.000  H
  H493     1.0000 0.20110  0.00470  0.60450  Biso   1.000  H
  H494     1.0000 0.29890  0.50470  0.89550  Biso   1.000  H
  H495     1.0000 0.79890  0.99530  0.39550  Biso   1.000  H
  H496     1.0000 0.70110  0.49530  0.10450  Biso   1.000  H
  C261     1.0000 0.16500  0.96620  0.68350  Biso   1.000  C
  C262     1.0000 0.33500  0.46620  0.81650  Biso   1.000  C
  C263     1.0000 0.83500  0.03380  0.31650  Biso   1.000  C
  C264     1.0000 0.66500  0.53380  0.18350  Biso   1.000  C
  H497     1.0000 0.13550  0.93700  0.66560  Biso   1.000  H
  H498     1.0000 0.36450  0.43700  0.83440  Biso   1.000  H
  H499     1.0000 0.86450  0.06300  0.33440  Biso   1.000  H
  H500     1.0000 0.63550  0.56300  0.16560  Biso   1.000  H
  H501     1.0000 0.19780  0.95470  0.71480  Biso   1.000  H
  H502     1.0000 0.30220  0.45470  0.78520  Biso   1.000  H
  H503     1.0000 0.80220  0.04530  0.28520  Biso   1.000  H
  H504     1.0000 0.69780  0.54530  0.21480  Biso   1.000  H
  C265     1.0000 0.12700  0.99840  0.68900  Biso   1.000  C
  C266     1.0000 0.37300  0.49840  0.81100  Biso   1.000  C
  C267     1.0000 0.87300  0.00160  0.31100  Biso   1.000  C
  C268     1.0000 0.62700  0.50160  0.18900  Biso   1.000  C
  H505     1.0000 0.12510  0.99980  0.72820  Biso   1.000  H
  H506     1.0000 0.37490  0.49980  0.77180  Biso   1.000  H
  H507     1.0000 0.87490  0.00020  0.27180  Biso   1.000  H
  H508     1.0000 0.62510  0.50020  0.22820  Biso   1.000  H
  H509     1.0000 0.07000  0.98530  0.67850  Biso   1.000  H
  H510     1.0000 0.43000  0.48530  0.82150  Biso   1.000  H
  H511     1.0000 0.93000  0.01470  0.32150  Biso   1.000  H
  H512     1.0000 0.57000  0.51470  0.17850  Biso   1.000  H
