data_image0
_cell_length_a       35.92
_cell_length_b       35.92
_cell_length_c       15.3561
_cell_angle_alpha    90
_cell_angle_beta     90
_cell_angle_gamma    90

_symmetry_space_group_name_H-M    "P 1"
_symmetry_int_tables_number       1

loop_
  _symmetry_equiv_pos_as_xyz
  'x, y, z'

loop_
  _atom_site_label
  _atom_site_occupancy
  _atom_site_fract_x
  _atom_site_fract_y
  _atom_site_fract_z
  _atom_site_thermal_displace_type
  _atom_site_B_iso_or_equiv
  _atom_site_type_symbol
  Cu1      1.0000 0.50000  0.82907  0.77409  Biso   1.000  Cu
  Cu2      1.0000 0.50000  0.17093  0.77409  Biso   1.000  Cu
  Cu3      1.0000 0.17093  0.50000  0.77409  Biso   1.000  Cu
  Cu4      1.0000 0.82907  0.50000  0.77409  Biso   1.000  Cu
  Cu5      1.0000 0.50000  0.82907  0.22591  Biso   1.000  Cu
  Cu6      1.0000 0.50000  0.17093  0.22591  Biso   1.000  Cu
  Cu7      1.0000 0.82907  0.50000  0.22591  Biso   1.000  Cu
  Cu8      1.0000 0.17093  0.50000  0.22591  Biso   1.000  Cu
  Cu9      1.0000 0.25541  0.74459  0.72680  Biso   1.000  Cu
  Cu10     1.0000 0.74459  0.25541  0.72680  Biso   1.000  Cu
  Cu11     1.0000 0.25541  0.25541  0.72680  Biso   1.000  Cu
  Cu12     1.0000 0.74459  0.74459  0.72680  Biso   1.000  Cu
  Cu13     1.0000 0.74459  0.74459  0.27320  Biso   1.000  Cu
  Cu14     1.0000 0.25541  0.25541  0.27320  Biso   1.000  Cu
  Cu15     1.0000 0.74459  0.25541  0.27320  Biso   1.000  Cu
  Cu16     1.0000 0.25541  0.74459  0.27320  Biso   1.000  Cu
  Cu17     1.0000 0.35153  0.00000  0.76840  Biso   1.000  Cu
  Cu18     1.0000 0.64847  0.00000  0.76840  Biso   1.000  Cu
  Cu19     1.0000 0.00000  0.35153  0.76840  Biso   1.000  Cu
  Cu20     1.0000 0.00000  0.64847  0.76840  Biso   1.000  Cu
  Cu21     1.0000 0.64847  0.00000  0.23160  Biso   1.000  Cu
  Cu22     1.0000 0.35153  0.00000  0.23160  Biso   1.000  Cu
  Cu23     1.0000 0.00000  0.35153  0.23160  Biso   1.000  Cu
  Cu24     1.0000 0.00000  0.64847  0.23160  Biso   1.000  Cu
  Ni1      1.0000 0.35481  0.85124  0.75142  Biso   1.000  Ni
  Ni2      1.0000 0.64519  0.14876  0.75142  Biso   1.000  Ni
  Ni3      1.0000 0.14876  0.35481  0.75142  Biso   1.000  Ni
  Ni4      1.0000 0.85124  0.64519  0.75142  Biso   1.000  Ni
  Ni5      1.0000 0.64519  0.85124  0.24858  Biso   1.000  Ni
  Ni6      1.0000 0.35481  0.14876  0.24858  Biso   1.000  Ni
  Ni7      1.0000 0.85124  0.35481  0.24858  Biso   1.000  Ni
  Ni8      1.0000 0.14876  0.64519  0.24858  Biso   1.000  Ni
  Ni9      1.0000 0.64519  0.14876  0.24858  Biso   1.000  Ni
  Ni10     1.0000 0.35481  0.85124  0.24858  Biso   1.000  Ni
  Ni11     1.0000 0.85124  0.64519  0.24858  Biso   1.000  Ni
  Ni12     1.0000 0.14876  0.35481  0.24858  Biso   1.000  Ni
  Ni13     1.0000 0.35481  0.14876  0.75142  Biso   1.000  Ni
  Ni14     1.0000 0.64519  0.85124  0.75142  Biso   1.000  Ni
  Ni15     1.0000 0.14876  0.64519  0.75142  Biso   1.000  Ni
  Ni16     1.0000 0.85124  0.35481  0.75142  Biso   1.000  Ni
  O1       1.0000 0.39090  0.81660  0.82450  Biso   1.000  O
  O2       1.0000 0.60910  0.18340  0.82450  Biso   1.000  O
  O3       1.0000 0.18340  0.39090  0.82450  Biso   1.000  O
  O4       1.0000 0.81660  0.60910  0.82450  Biso   1.000  O
  O5       1.0000 0.60910  0.81660  0.17550  Biso   1.000  O
  O6       1.0000 0.39090  0.18340  0.17550  Biso   1.000  O
  O7       1.0000 0.81660  0.39090  0.17550  Biso   1.000  O
  O8       1.0000 0.18340  0.60910  0.17550  Biso   1.000  O
  O9       1.0000 0.60910  0.18340  0.17550  Biso   1.000  O
  O10      1.0000 0.39090  0.81660  0.17550  Biso   1.000  O
  O11      1.0000 0.81660  0.60910  0.17550  Biso   1.000  O
  O12      1.0000 0.18340  0.39090  0.17550  Biso   1.000  O
  O13      1.0000 0.39090  0.18340  0.82450  Biso   1.000  O
  O14      1.0000 0.60910  0.81660  0.82450  Biso   1.000  O
  O15      1.0000 0.18340  0.60910  0.82450  Biso   1.000  O
  O16      1.0000 0.81660  0.39090  0.82450  Biso   1.000  O
  O17      1.0000 0.40190  0.86120  0.68590  Biso   1.000  O
  O18      1.0000 0.59810  0.13880  0.68590  Biso   1.000  O
  O19      1.0000 0.13880  0.40190  0.68590  Biso   1.000  O
  O20      1.0000 0.86120  0.59810  0.68590  Biso   1.000  O
  O21      1.0000 0.59810  0.86120  0.31410  Biso   1.000  O
  O22      1.0000 0.40190  0.13880  0.31410  Biso   1.000  O
  O23      1.0000 0.86120  0.40190  0.31410  Biso   1.000  O
  O24      1.0000 0.13880  0.59810  0.31410  Biso   1.000  O
  O25      1.0000 0.59810  0.13880  0.31410  Biso   1.000  O
  O26      1.0000 0.40190  0.86120  0.31410  Biso   1.000  O
  O27      1.0000 0.86120  0.59810  0.31410  Biso   1.000  O
  O28      1.0000 0.13880  0.40190  0.31410  Biso   1.000  O
  O29      1.0000 0.40190  0.13880  0.68590  Biso   1.000  O
  O30      1.0000 0.59810  0.86120  0.68590  Biso   1.000  O
  O31      1.0000 0.13880  0.59810  0.68590  Biso   1.000  O
  O32      1.0000 0.86120  0.40190  0.68590  Biso   1.000  O
  O33      1.0000 0.46250  0.85440  0.70340  Biso   1.000  O
  O34      1.0000 0.53750  0.14560  0.70340  Biso   1.000  O
  O35      1.0000 0.14560  0.46250  0.70340  Biso   1.000  O
  O36      1.0000 0.85440  0.53750  0.70340  Biso   1.000  O
  O37      1.0000 0.53750  0.85440  0.29660  Biso   1.000  O
  O38      1.0000 0.46250  0.14560  0.29660  Biso   1.000  O
  O39      1.0000 0.85440  0.46250  0.29660  Biso   1.000  O
  O40      1.0000 0.14560  0.53750  0.29660  Biso   1.000  O
  O41      1.0000 0.53750  0.14560  0.29660  Biso   1.000  O
  O42      1.0000 0.46250  0.85440  0.29660  Biso   1.000  O
  O43      1.0000 0.85440  0.53750  0.29660  Biso   1.000  O
  O44      1.0000 0.14560  0.46250  0.29660  Biso   1.000  O
  O45      1.0000 0.46250  0.14560  0.70340  Biso   1.000  O
  O46      1.0000 0.53750  0.85440  0.70340  Biso   1.000  O
  O47      1.0000 0.14560  0.53750  0.70340  Biso   1.000  O
  O48      1.0000 0.85440  0.46250  0.70340  Biso   1.000  O
  O49      1.0000 0.33830  0.81060  0.66860  Biso   1.000  O
  O50      1.0000 0.66170  0.18940  0.66860  Biso   1.000  O
  O51      1.0000 0.18940  0.33830  0.66860  Biso   1.000  O
  O52      1.0000 0.81060  0.66170  0.66860  Biso   1.000  O
  O53      1.0000 0.66170  0.81060  0.33140  Biso   1.000  O
  O54      1.0000 0.33830  0.18940  0.33140  Biso   1.000  O
  O55      1.0000 0.81060  0.33830  0.33140  Biso   1.000  O
  O56      1.0000 0.18940  0.66170  0.33140  Biso   1.000  O
  O57      1.0000 0.66170  0.18940  0.33140  Biso   1.000  O
  O58      1.0000 0.33830  0.81060  0.33140  Biso   1.000  O
  O59      1.0000 0.81060  0.66170  0.33140  Biso   1.000  O
  O60      1.0000 0.18940  0.33830  0.33140  Biso   1.000  O
  O61      1.0000 0.33830  0.18940  0.66860  Biso   1.000  O
  O62      1.0000 0.66170  0.81060  0.66860  Biso   1.000  O
  O63      1.0000 0.18940  0.66170  0.66860  Biso   1.000  O
  O64      1.0000 0.81060  0.33830  0.66860  Biso   1.000  O
  O65      1.0000 0.30670  0.83490  0.80990  Biso   1.000  O
  O66      1.0000 0.69330  0.16510  0.80990  Biso   1.000  O
  O67      1.0000 0.16510  0.30670  0.80990  Biso   1.000  O
  O68      1.0000 0.83490  0.69330  0.80990  Biso   1.000  O
  O69      1.0000 0.69330  0.83490  0.19010  Biso   1.000  O
  O70      1.0000 0.30670  0.16510  0.19010  Biso   1.000  O
  O71      1.0000 0.83490  0.30670  0.19010  Biso   1.000  O
  O72      1.0000 0.16510  0.69330  0.19010  Biso   1.000  O
  O73      1.0000 0.69330  0.16510  0.19010  Biso   1.000  O
  O74      1.0000 0.30670  0.83490  0.19010  Biso   1.000  O
  O75      1.0000 0.83490  0.69330  0.19010  Biso   1.000  O
  O76      1.0000 0.16510  0.30670  0.19010  Biso   1.000  O
  O77      1.0000 0.30670  0.16510  0.80990  Biso   1.000  O
  O78      1.0000 0.69330  0.83490  0.80990  Biso   1.000  O
  O79      1.0000 0.16510  0.69330  0.80990  Biso   1.000  O
  O80      1.0000 0.83490  0.30670  0.80990  Biso   1.000  O
  O81      1.0000 0.26230  0.78380  0.80270  Biso   1.000  O
  O82      1.0000 0.73770  0.21620  0.80270  Biso   1.000  O
  O83      1.0000 0.21620  0.26230  0.80270  Biso   1.000  O
  O84      1.0000 0.78380  0.73770  0.80270  Biso   1.000  O
  O85      1.0000 0.73770  0.78380  0.19730  Biso   1.000  O
  O86      1.0000 0.26230  0.21620  0.19730  Biso   1.000  O
  O87      1.0000 0.78380  0.26230  0.19730  Biso   1.000  O
  O88      1.0000 0.21620  0.73770  0.19730  Biso   1.000  O
  O89      1.0000 0.73770  0.21620  0.19730  Biso   1.000  O
  O90      1.0000 0.26230  0.78380  0.19730  Biso   1.000  O
  O91      1.0000 0.78380  0.73770  0.19730  Biso   1.000  O
  O92      1.0000 0.21620  0.26230  0.19730  Biso   1.000  O
  O93      1.0000 0.26230  0.21620  0.80270  Biso   1.000  O
  O94      1.0000 0.73770  0.78380  0.80270  Biso   1.000  O
  O95      1.0000 0.21620  0.73770  0.80270  Biso   1.000  O
  O96      1.0000 0.78380  0.26230  0.80270  Biso   1.000  O
  O97      1.0000 0.32970  0.89490  0.68370  Biso   1.000  O
  O98      1.0000 0.67030  0.10510  0.68370  Biso   1.000  O
  O99      1.0000 0.10510  0.32970  0.68370  Biso   1.000  O
  O100     1.0000 0.89490  0.67030  0.68370  Biso   1.000  O
  O101     1.0000 0.67030  0.89490  0.31630  Biso   1.000  O
  O102     1.0000 0.32970  0.10510  0.31630  Biso   1.000  O
  O103     1.0000 0.89490  0.32970  0.31630  Biso   1.000  O
  O104     1.0000 0.10510  0.67030  0.31630  Biso   1.000  O
  O105     1.0000 0.67030  0.10510  0.31630  Biso   1.000  O
  O106     1.0000 0.32970  0.89490  0.31630  Biso   1.000  O
  O107     1.0000 0.89490  0.67030  0.31630  Biso   1.000  O
  O108     1.0000 0.10510  0.32970  0.31630  Biso   1.000  O
  O109     1.0000 0.32970  0.10510  0.68370  Biso   1.000  O
  O110     1.0000 0.67030  0.89490  0.68370  Biso   1.000  O
  O111     1.0000 0.10510  0.67030  0.68370  Biso   1.000  O
  O112     1.0000 0.89490  0.32970  0.68370  Biso   1.000  O
  O113     1.0000 0.36450  0.89040  0.83270  Biso   1.000  O
  O114     1.0000 0.63550  0.10960  0.83270  Biso   1.000  O
  O115     1.0000 0.10960  0.36450  0.83270  Biso   1.000  O
  O116     1.0000 0.89040  0.63550  0.83270  Biso   1.000  O
  O117     1.0000 0.63550  0.89040  0.16730  Biso   1.000  O
  O118     1.0000 0.36450  0.10960  0.16730  Biso   1.000  O
  O119     1.0000 0.89040  0.36450  0.16730  Biso   1.000  O
  O120     1.0000 0.10960  0.63550  0.16730  Biso   1.000  O
  O121     1.0000 0.63550  0.10960  0.16730  Biso   1.000  O
  O122     1.0000 0.36450  0.89040  0.16730  Biso   1.000  O
  O123     1.0000 0.89040  0.63550  0.16730  Biso   1.000  O
  O124     1.0000 0.10960  0.36450  0.16730  Biso   1.000  O
  O125     1.0000 0.36450  0.10960  0.83270  Biso   1.000  O
  O126     1.0000 0.63550  0.89040  0.83270  Biso   1.000  O
  O127     1.0000 0.10960  0.63550  0.83270  Biso   1.000  O
  O128     1.0000 0.89040  0.36450  0.83270  Biso   1.000  O
  O129     1.0000 0.32850  0.96120  0.69400  Biso   1.000  O
  O130     1.0000 0.67150  0.03880  0.69400  Biso   1.000  O
  O131     1.0000 0.03880  0.32850  0.69400  Biso   1.000  O
  O132     1.0000 0.96120  0.67150  0.69400  Biso   1.000  O
  O133     1.0000 0.67150  0.96120  0.30600  Biso   1.000  O
  O134     1.0000 0.32850  0.03880  0.30600  Biso   1.000  O
  O135     1.0000 0.96120  0.32850  0.30600  Biso   1.000  O
  O136     1.0000 0.03880  0.67150  0.30600  Biso   1.000  O
  O137     1.0000 0.67150  0.03880  0.30600  Biso   1.000  O
  O138     1.0000 0.32850  0.96120  0.30600  Biso   1.000  O
  O139     1.0000 0.96120  0.67150  0.30600  Biso   1.000  O
  O140     1.0000 0.03880  0.32850  0.30600  Biso   1.000  O
  O141     1.0000 0.32850  0.03880  0.69400  Biso   1.000  O
  O142     1.0000 0.67150  0.96120  0.69400  Biso   1.000  O
  O143     1.0000 0.03880  0.67150  0.69400  Biso   1.000  O
  O144     1.0000 0.96120  0.32850  0.69400  Biso   1.000  O
  N1       1.0000 0.45560  0.81330  0.84040  Biso   1.000  N
  N2       1.0000 0.54440  0.18670  0.84040  Biso   1.000  N
  N3       1.0000 0.18670  0.45560  0.84040  Biso   1.000  N
  N4       1.0000 0.81330  0.54440  0.84040  Biso   1.000  N
  N5       1.0000 0.54440  0.81330  0.15960  Biso   1.000  N
  N6       1.0000 0.45560  0.18670  0.15960  Biso   1.000  N
  N7       1.0000 0.81330  0.45560  0.15960  Biso   1.000  N
  N8       1.0000 0.18670  0.54440  0.15960  Biso   1.000  N
  N9       1.0000 0.54440  0.18670  0.15960  Biso   1.000  N
  N10      1.0000 0.45560  0.81330  0.15960  Biso   1.000  N
  N11      1.0000 0.81330  0.54440  0.15960  Biso   1.000  N
  N12      1.0000 0.18670  0.45560  0.15960  Biso   1.000  N
  N13      1.0000 0.45560  0.18670  0.84040  Biso   1.000  N
  N14      1.0000 0.54440  0.81330  0.84040  Biso   1.000  N
  N15      1.0000 0.18670  0.54440  0.84040  Biso   1.000  N
  N16      1.0000 0.81330  0.45560  0.84040  Biso   1.000  N
  N17      1.0000 0.29530  0.76170  0.66270  Biso   1.000  N
  N18      1.0000 0.70470  0.23830  0.66270  Biso   1.000  N
  N19      1.0000 0.23830  0.29530  0.66270  Biso   1.000  N
  N20      1.0000 0.76170  0.70470  0.66270  Biso   1.000  N
  N21      1.0000 0.70470  0.76170  0.33730  Biso   1.000  N
  N22      1.0000 0.29530  0.23830  0.33730  Biso   1.000  N
  N23      1.0000 0.76170  0.29530  0.33730  Biso   1.000  N
  N24      1.0000 0.23830  0.70470  0.33730  Biso   1.000  N
  N25      1.0000 0.70470  0.23830  0.33730  Biso   1.000  N
  N26      1.0000 0.29530  0.76170  0.33730  Biso   1.000  N
  N27      1.0000 0.76170  0.70470  0.33730  Biso   1.000  N
  N28      1.0000 0.23830  0.29530  0.33730  Biso   1.000  N
  N29      1.0000 0.29530  0.23830  0.66270  Biso   1.000  N
  N30      1.0000 0.70470  0.76170  0.66270  Biso   1.000  N
  N31      1.0000 0.23830  0.70470  0.66270  Biso   1.000  N
  N32      1.0000 0.76170  0.29530  0.66270  Biso   1.000  N
  N33      1.0000 0.36340  0.95360  0.83870  Biso   1.000  N
  N34      1.0000 0.63660  0.04640  0.83870  Biso   1.000  N
  N35      1.0000 0.04640  0.36340  0.83870  Biso   1.000  N
  N36      1.0000 0.95360  0.63660  0.83870  Biso   1.000  N
  N37      1.0000 0.63660  0.95360  0.16130  Biso   1.000  N
  N38      1.0000 0.36340  0.04640  0.16130  Biso   1.000  N
  N39      1.0000 0.95360  0.36340  0.16130  Biso   1.000  N
  N40      1.0000 0.04640  0.63660  0.16130  Biso   1.000  N
  N41      1.0000 0.63660  0.04640  0.16130  Biso   1.000  N
  N42      1.0000 0.36340  0.95360  0.16130  Biso   1.000  N
  N43      1.0000 0.95360  0.63660  0.16130  Biso   1.000  N
  N44      1.0000 0.04640  0.36340  0.16130  Biso   1.000  N
  N45      1.0000 0.36340  0.04640  0.83870  Biso   1.000  N
  N46      1.0000 0.63660  0.95360  0.83870  Biso   1.000  N
  N47      1.0000 0.04640  0.63660  0.83870  Biso   1.000  N
  N48      1.0000 0.95360  0.36340  0.83870  Biso   1.000  N
  C1       1.0000 0.43210  0.84860  0.72380  Biso   1.000  C
  C2       1.0000 0.56790  0.15140  0.72380  Biso   1.000  C
  C3       1.0000 0.15140  0.43210  0.72380  Biso   1.000  C
  C4       1.0000 0.84860  0.56790  0.72380  Biso   1.000  C
  C5       1.0000 0.56790  0.84860  0.27620  Biso   1.000  C
  C6       1.0000 0.43210  0.15140  0.27620  Biso   1.000  C
  C7       1.0000 0.84860  0.43210  0.27620  Biso   1.000  C
  C8       1.0000 0.15140  0.56790  0.27620  Biso   1.000  C
  C9       1.0000 0.56790  0.15140  0.27620  Biso   1.000  C
  C10      1.0000 0.43210  0.84860  0.27620  Biso   1.000  C
  C11      1.0000 0.84860  0.56790  0.27620  Biso   1.000  C
  C12      1.0000 0.15140  0.43210  0.27620  Biso   1.000  C
  C13      1.0000 0.43210  0.15140  0.72380  Biso   1.000  C
  C14      1.0000 0.56790  0.84860  0.72380  Biso   1.000  C
  C15      1.0000 0.15140  0.56790  0.72380  Biso   1.000  C
  C16      1.0000 0.84860  0.43210  0.72380  Biso   1.000  C
  C17      1.0000 0.42680  0.82520  0.80440  Biso   1.000  C
  C18      1.0000 0.57320  0.17480  0.80440  Biso   1.000  C
  C19      1.0000 0.17480  0.42680  0.80440  Biso   1.000  C
  C20      1.0000 0.82520  0.57320  0.80440  Biso   1.000  C
  C21      1.0000 0.57320  0.82520  0.19560  Biso   1.000  C
  C22      1.0000 0.42680  0.17480  0.19560  Biso   1.000  C
  C23      1.0000 0.82520  0.42680  0.19560  Biso   1.000  C
  C24      1.0000 0.17480  0.57320  0.19560  Biso   1.000  C
  C25      1.0000 0.57320  0.17480  0.19560  Biso   1.000  C
  C26      1.0000 0.42680  0.82520  0.19560  Biso   1.000  C
  C27      1.0000 0.82520  0.57320  0.19560  Biso   1.000  C
  C28      1.0000 0.17480  0.42680  0.19560  Biso   1.000  C
  C29      1.0000 0.42680  0.17480  0.80440  Biso   1.000  C
  C30      1.0000 0.57320  0.82520  0.80440  Biso   1.000  C
  C31      1.0000 0.17480  0.57320  0.80440  Biso   1.000  C
  C32      1.0000 0.82520  0.42680  0.80440  Biso   1.000  C
  C33      1.0000 0.29260  0.80570  0.77870  Biso   1.000  C
  C34      1.0000 0.70740  0.19430  0.77870  Biso   1.000  C
  C35      1.0000 0.19430  0.29260  0.77870  Biso   1.000  C
  C36      1.0000 0.80570  0.70740  0.77870  Biso   1.000  C
  C37      1.0000 0.70740  0.80570  0.22130  Biso   1.000  C
  C38      1.0000 0.29260  0.19430  0.22130  Biso   1.000  C
  C39      1.0000 0.80570  0.29260  0.22130  Biso   1.000  C
  C40      1.0000 0.19430  0.70740  0.22130  Biso   1.000  C
  C41      1.0000 0.70740  0.19430  0.22130  Biso   1.000  C
  C42      1.0000 0.29260  0.80570  0.22130  Biso   1.000  C
  C43      1.0000 0.80570  0.70740  0.22130  Biso   1.000  C
  C44      1.0000 0.19430  0.29260  0.22130  Biso   1.000  C
  C45      1.0000 0.29260  0.19430  0.77870  Biso   1.000  C
  C46      1.0000 0.70740  0.80570  0.77870  Biso   1.000  C
  C47      1.0000 0.19430  0.70740  0.77870  Biso   1.000  C
  C48      1.0000 0.80570  0.29260  0.77870  Biso   1.000  C
  C49      1.0000 0.31010  0.78860  0.69020  Biso   1.000  C
  C50      1.0000 0.68990  0.21140  0.69020  Biso   1.000  C
  C51      1.0000 0.21140  0.31010  0.69020  Biso   1.000  C
  C52      1.0000 0.78860  0.68990  0.69020  Biso   1.000  C
  C53      1.0000 0.68990  0.78860  0.30980  Biso   1.000  C
  C54      1.0000 0.31010  0.21140  0.30980  Biso   1.000  C
  C55      1.0000 0.78860  0.31010  0.30980  Biso   1.000  C
  C56      1.0000 0.21140  0.68990  0.30980  Biso   1.000  C
  C57      1.0000 0.68990  0.21140  0.30980  Biso   1.000  C
  C58      1.0000 0.31010  0.78860  0.30980  Biso   1.000  C
  C59      1.0000 0.78860  0.68990  0.30980  Biso   1.000  C
  C60      1.0000 0.21140  0.31010  0.30980  Biso   1.000  C
  C61      1.0000 0.31010  0.21140  0.69020  Biso   1.000  C
  C62      1.0000 0.68990  0.78860  0.69020  Biso   1.000  C
  C63      1.0000 0.21140  0.68990  0.69020  Biso   1.000  C
  C64      1.0000 0.78860  0.31010  0.69020  Biso   1.000  C
  C65      1.0000 0.35630  0.92810  0.80990  Biso   1.000  C
  C66      1.0000 0.64370  0.07190  0.80990  Biso   1.000  C
  C67      1.0000 0.07190  0.35630  0.80990  Biso   1.000  C
  C68      1.0000 0.92810  0.64370  0.80990  Biso   1.000  C
  C69      1.0000 0.64370  0.92810  0.19010  Biso   1.000  C
  C70      1.0000 0.35630  0.07190  0.19010  Biso   1.000  C
  C71      1.0000 0.92810  0.35630  0.19010  Biso   1.000  C
  C72      1.0000 0.07190  0.64370  0.19010  Biso   1.000  C
  C73      1.0000 0.64370  0.07190  0.19010  Biso   1.000  C
  C74      1.0000 0.35630  0.92810  0.19010  Biso   1.000  C
  C75      1.0000 0.92810  0.64370  0.19010  Biso   1.000  C
  C76      1.0000 0.07190  0.35630  0.19010  Biso   1.000  C
  C77      1.0000 0.35630  0.07190  0.80990  Biso   1.000  C
  C78      1.0000 0.64370  0.92810  0.80990  Biso   1.000  C
  C79      1.0000 0.07190  0.64370  0.80990  Biso   1.000  C
  C80      1.0000 0.92810  0.35630  0.80990  Biso   1.000  C
  C81      1.0000 0.33630  0.92490  0.71900  Biso   1.000  C
  C82      1.0000 0.66370  0.07510  0.71900  Biso   1.000  C
  C83      1.0000 0.07510  0.33630  0.71900  Biso   1.000  C
  C84      1.0000 0.92490  0.66370  0.71900  Biso   1.000  C
  C85      1.0000 0.66370  0.92490  0.28100  Biso   1.000  C
  C86      1.0000 0.33630  0.07510  0.28100  Biso   1.000  C
  C87      1.0000 0.92490  0.33630  0.28100  Biso   1.000  C
  C88      1.0000 0.07510  0.66370  0.28100  Biso   1.000  C
  C89      1.0000 0.66370  0.07510  0.28100  Biso   1.000  C
  C90      1.0000 0.33630  0.92490  0.28100  Biso   1.000  C
  C91      1.0000 0.92490  0.66370  0.28100  Biso   1.000  C
  C92      1.0000 0.07510  0.33630  0.28100  Biso   1.000  C
  C93      1.0000 0.33630  0.07510  0.71900  Biso   1.000  C
  C94      1.0000 0.66370  0.92490  0.71900  Biso   1.000  C
  C95      1.0000 0.07510  0.66370  0.71900  Biso   1.000  C
  C96      1.0000 0.92490  0.33630  0.71900  Biso   1.000  C
  C97      1.0000 0.45240  0.79420  0.92350  Biso   1.000  C
  C98      1.0000 0.54760  0.20580  0.92350  Biso   1.000  C
  C99      1.0000 0.20580  0.45240  0.92350  Biso   1.000  C
  C100     1.0000 0.79420  0.54760  0.92350  Biso   1.000  C
  C101     1.0000 0.54760  0.79420  0.07650  Biso   1.000  C
  C102     1.0000 0.45240  0.20580  0.07650  Biso   1.000  C
  C103     1.0000 0.79420  0.45240  0.07650  Biso   1.000  C
  C104     1.0000 0.20580  0.54760  0.07650  Biso   1.000  C
  C105     1.0000 0.54760  0.20580  0.07650  Biso   1.000  C
  C106     1.0000 0.45240  0.79420  0.07650  Biso   1.000  C
  C107     1.0000 0.79420  0.54760  0.07650  Biso   1.000  C
  C108     1.0000 0.20580  0.45240  0.07650  Biso   1.000  C
  C109     1.0000 0.45240  0.20580  0.92350  Biso   1.000  C
  C110     1.0000 0.54760  0.79420  0.92350  Biso   1.000  C
  C111     1.0000 0.20580  0.54760  0.92350  Biso   1.000  C
  C112     1.0000 0.79420  0.45240  0.92350  Biso   1.000  C
  C113     1.0000 0.45220  0.81390  0.00000  Biso   1.000  C
  C114     1.0000 0.54780  0.18610  0.00000  Biso   1.000  C
  C115     1.0000 0.18610  0.45220  0.00000  Biso   1.000  C
  C116     1.0000 0.81390  0.54780  0.00000  Biso   1.000  C
  C117     1.0000 0.54780  0.81390  0.00000  Biso   1.000  C
  C118     1.0000 0.45220  0.18610  0.00000  Biso   1.000  C
  C119     1.0000 0.81390  0.45220  0.00000  Biso   1.000  C
  C120     1.0000 0.18610  0.54780  0.00000  Biso   1.000  C
  C121     1.0000 0.44950  0.75350  0.92010  Biso   1.000  C
  C122     1.0000 0.55050  0.24650  0.92010  Biso   1.000  C
  C123     1.0000 0.24650  0.44950  0.92010  Biso   1.000  C
  C124     1.0000 0.75350  0.55050  0.92010  Biso   1.000  C
  C125     1.0000 0.55050  0.75350  0.07990  Biso   1.000  C
  C126     1.0000 0.44950  0.24650  0.07990  Biso   1.000  C
  C127     1.0000 0.75350  0.44950  0.07990  Biso   1.000  C
  C128     1.0000 0.24650  0.55050  0.07990  Biso   1.000  C
  C129     1.0000 0.55050  0.24650  0.07990  Biso   1.000  C
  C130     1.0000 0.44950  0.75350  0.07990  Biso   1.000  C
  C131     1.0000 0.75350  0.55050  0.07990  Biso   1.000  C
  C132     1.0000 0.24650  0.44950  0.07990  Biso   1.000  C
  C133     1.0000 0.44950  0.24650  0.92010  Biso   1.000  C
  C134     1.0000 0.55050  0.75350  0.92010  Biso   1.000  C
  C135     1.0000 0.24650  0.55050  0.92010  Biso   1.000  C
  C136     1.0000 0.75350  0.44950  0.92010  Biso   1.000  C
  C137     1.0000 0.44920  0.73620  0.00000  Biso   1.000  C
  C138     1.0000 0.55080  0.26380  0.00000  Biso   1.000  C
  C139     1.0000 0.26380  0.44920  0.00000  Biso   1.000  C
  C140     1.0000 0.73620  0.55080  0.00000  Biso   1.000  C
  C141     1.0000 0.55080  0.73620  0.00000  Biso   1.000  C
  C142     1.0000 0.44920  0.26380  0.00000  Biso   1.000  C
  C143     1.0000 0.73620  0.44920  0.00000  Biso   1.000  C
  C144     1.0000 0.26380  0.55080  0.00000  Biso   1.000  C
  H1       1.0000 0.44890  0.70860  0.00000  Biso   1.000  H
  H2       1.0000 0.55110  0.29140  0.00000  Biso   1.000  H
  H3       1.0000 0.29140  0.44890  0.00000  Biso   1.000  H
  H4       1.0000 0.70860  0.55110  0.00000  Biso   1.000  H
  H5       1.0000 0.55110  0.70860  0.00000  Biso   1.000  H
  H6       1.0000 0.44890  0.29140  0.00000  Biso   1.000  H
  H7       1.0000 0.70860  0.44890  0.00000  Biso   1.000  H
  H8       1.0000 0.29140  0.55110  0.00000  Biso   1.000  H
  C145     1.0000 0.44780  0.73490  0.83750  Biso   1.000  C
  C146     1.0000 0.55220  0.26510  0.83750  Biso   1.000  C
  C147     1.0000 0.26510  0.44780  0.83750  Biso   1.000  C
  C148     1.0000 0.73490  0.55220  0.83750  Biso   1.000  C
  C149     1.0000 0.55220  0.73490  0.16250  Biso   1.000  C
  C150     1.0000 0.44780  0.26510  0.16250  Biso   1.000  C
  C151     1.0000 0.73490  0.44780  0.16250  Biso   1.000  C
  C152     1.0000 0.26510  0.55220  0.16250  Biso   1.000  C
  C153     1.0000 0.55220  0.26510  0.16250  Biso   1.000  C
  C154     1.0000 0.44780  0.73490  0.16250  Biso   1.000  C
  C155     1.0000 0.73490  0.55220  0.16250  Biso   1.000  C
  C156     1.0000 0.26510  0.44780  0.16250  Biso   1.000  C
  C157     1.0000 0.44780  0.26510  0.83750  Biso   1.000  C
  C158     1.0000 0.55220  0.73490  0.83750  Biso   1.000  C
  C159     1.0000 0.26510  0.55220  0.83750  Biso   1.000  C
  C160     1.0000 0.73490  0.44780  0.83750  Biso   1.000  C
  H9       1.0000 0.47290  0.72490  0.82160  Biso   1.000  H
  H10      1.0000 0.52710  0.27510  0.82160  Biso   1.000  H
  H11      1.0000 0.27510  0.47290  0.82160  Biso   1.000  H
  H12      1.0000 0.72490  0.52710  0.82160  Biso   1.000  H
  H13      1.0000 0.52710  0.72490  0.17840  Biso   1.000  H
  H14      1.0000 0.47290  0.27510  0.17840  Biso   1.000  H
  H15      1.0000 0.72490  0.47290  0.17840  Biso   1.000  H
  H16      1.0000 0.27510  0.52710  0.17840  Biso   1.000  H
  H17      1.0000 0.52710  0.27510  0.17840  Biso   1.000  H
  H18      1.0000 0.47290  0.72490  0.17840  Biso   1.000  H
  H19      1.0000 0.72490  0.52710  0.17840  Biso   1.000  H
  H20      1.0000 0.27510  0.47290  0.17840  Biso   1.000  H
  H21      1.0000 0.47290  0.27510  0.82160  Biso   1.000  H
  H22      1.0000 0.52710  0.72490  0.82160  Biso   1.000  H
  H23      1.0000 0.27510  0.52710  0.82160  Biso   1.000  H
  H24      1.0000 0.72490  0.47290  0.82160  Biso   1.000  H
  H25      1.0000 0.43950  0.75150  0.79160  Biso   1.000  H
  H26      1.0000 0.56050  0.24850  0.79160  Biso   1.000  H
  H27      1.0000 0.24850  0.43950  0.79160  Biso   1.000  H
  H28      1.0000 0.75150  0.56050  0.79160  Biso   1.000  H
  H29      1.0000 0.56050  0.75150  0.20840  Biso   1.000  H
  H30      1.0000 0.43950  0.24850  0.20840  Biso   1.000  H
  H31      1.0000 0.75150  0.43950  0.20840  Biso   1.000  H
  H32      1.0000 0.24850  0.56050  0.20840  Biso   1.000  H
  H33      1.0000 0.56050  0.24850  0.20840  Biso   1.000  H
  H34      1.0000 0.43950  0.75150  0.20840  Biso   1.000  H
  H35      1.0000 0.75150  0.56050  0.20840  Biso   1.000  H
  H36      1.0000 0.24850  0.43950  0.20840  Biso   1.000  H
  H37      1.0000 0.43950  0.24850  0.79160  Biso   1.000  H
  H38      1.0000 0.56050  0.75150  0.79160  Biso   1.000  H
  H39      1.0000 0.24850  0.56050  0.79160  Biso   1.000  H
  H40      1.0000 0.75150  0.43950  0.79160  Biso   1.000  H
  H41      1.0000 0.43070  0.71340  0.84150  Biso   1.000  H
  H42      1.0000 0.56930  0.28660  0.84150  Biso   1.000  H
  H43      1.0000 0.28660  0.43070  0.84150  Biso   1.000  H
  H44      1.0000 0.71340  0.56930  0.84150  Biso   1.000  H
  H45      1.0000 0.56930  0.71340  0.15850  Biso   1.000  H
  H46      1.0000 0.43070  0.28660  0.15850  Biso   1.000  H
  H47      1.0000 0.71340  0.43070  0.15850  Biso   1.000  H
  H48      1.0000 0.28660  0.56930  0.15850  Biso   1.000  H
  H49      1.0000 0.56930  0.28660  0.15850  Biso   1.000  H
  H50      1.0000 0.43070  0.71340  0.15850  Biso   1.000  H
  H51      1.0000 0.71340  0.56930  0.15850  Biso   1.000  H
  H52      1.0000 0.28660  0.43070  0.15850  Biso   1.000  H
  H53      1.0000 0.43070  0.28660  0.84150  Biso   1.000  H
  H54      1.0000 0.56930  0.71340  0.84150  Biso   1.000  H
  H55      1.0000 0.28660  0.56930  0.84150  Biso   1.000  H
  H56      1.0000 0.71340  0.43070  0.84150  Biso   1.000  H
  C161     1.0000 0.45400  0.85990  0.00000  Biso   1.000  C
  C162     1.0000 0.54600  0.14010  0.00000  Biso   1.000  C
  C163     1.0000 0.14010  0.45400  0.00000  Biso   1.000  C
  C164     1.0000 0.85990  0.54600  0.00000  Biso   1.000  C
  C165     1.0000 0.54600  0.85990  0.00000  Biso   1.000  C
  C166     1.0000 0.45400  0.14010  0.00000  Biso   1.000  C
  C167     1.0000 0.85990  0.45400  0.00000  Biso   1.000  C
  C168     1.0000 0.14010  0.54600  0.00000  Biso   1.000  C
  C169     1.0000 0.31810  0.75600  0.57950  Biso   1.000  C
  C170     1.0000 0.68190  0.24400  0.57950  Biso   1.000  C
  C171     1.0000 0.24400  0.31810  0.57950  Biso   1.000  C
  C172     1.0000 0.75600  0.68190  0.57950  Biso   1.000  C
  C173     1.0000 0.68190  0.75600  0.42050  Biso   1.000  C
  C174     1.0000 0.31810  0.24400  0.42050  Biso   1.000  C
  C175     1.0000 0.75600  0.31810  0.42050  Biso   1.000  C
  C176     1.0000 0.24400  0.68190  0.42050  Biso   1.000  C
  C177     1.0000 0.68190  0.24400  0.42050  Biso   1.000  C
  C178     1.0000 0.31810  0.75600  0.42050  Biso   1.000  C
  C179     1.0000 0.75600  0.68190  0.42050  Biso   1.000  C
  C180     1.0000 0.24400  0.31810  0.42050  Biso   1.000  C
  C181     1.0000 0.31810  0.24400  0.57950  Biso   1.000  C
  C182     1.0000 0.68190  0.75600  0.57950  Biso   1.000  C
  C183     1.0000 0.24400  0.68190  0.57950  Biso   1.000  C
  C184     1.0000 0.75600  0.31810  0.57950  Biso   1.000  C
  C185     1.0000 0.30490  0.76830  0.50000  Biso   1.000  C
  C186     1.0000 0.69510  0.23170  0.50000  Biso   1.000  C
  C187     1.0000 0.23170  0.30490  0.50000  Biso   1.000  C
  C188     1.0000 0.76830  0.69510  0.50000  Biso   1.000  C
  C189     1.0000 0.69510  0.76830  0.50000  Biso   1.000  C
  C190     1.0000 0.30490  0.23170  0.50000  Biso   1.000  C
  C191     1.0000 0.76830  0.30490  0.50000  Biso   1.000  C
  C192     1.0000 0.23170  0.69510  0.50000  Biso   1.000  C
  C193     1.0000 0.35450  0.73400  0.58040  Biso   1.000  C
  C194     1.0000 0.64550  0.26600  0.58040  Biso   1.000  C
  C195     1.0000 0.26600  0.35450  0.58040  Biso   1.000  C
  C196     1.0000 0.73400  0.64550  0.58040  Biso   1.000  C
  C197     1.0000 0.64550  0.73400  0.41960  Biso   1.000  C
  C198     1.0000 0.35450  0.26600  0.41960  Biso   1.000  C
  C199     1.0000 0.73400  0.35450  0.41960  Biso   1.000  C
  C200     1.0000 0.26600  0.64550  0.41960  Biso   1.000  C
  C201     1.0000 0.64550  0.26600  0.41960  Biso   1.000  C
  C202     1.0000 0.35450  0.73400  0.41960  Biso   1.000  C
  C203     1.0000 0.73400  0.64550  0.41960  Biso   1.000  C
  C204     1.0000 0.26600  0.35450  0.41960  Biso   1.000  C
  C205     1.0000 0.35450  0.26600  0.58040  Biso   1.000  C
  C206     1.0000 0.64550  0.73400  0.58040  Biso   1.000  C
  C207     1.0000 0.26600  0.64550  0.58040  Biso   1.000  C
  C208     1.0000 0.73400  0.35450  0.58040  Biso   1.000  C
  C209     1.0000 0.37040  0.72840  0.50000  Biso   1.000  C
  C210     1.0000 0.62960  0.27160  0.50000  Biso   1.000  C
  C211     1.0000 0.27160  0.37040  0.50000  Biso   1.000  C
  C212     1.0000 0.72840  0.62960  0.50000  Biso   1.000  C
  C213     1.0000 0.62960  0.72840  0.50000  Biso   1.000  C
  C214     1.0000 0.37040  0.27160  0.50000  Biso   1.000  C
  C215     1.0000 0.72840  0.37040  0.50000  Biso   1.000  C
  C216     1.0000 0.27160  0.62960  0.50000  Biso   1.000  C
  H57      1.0000 0.39460  0.71750  0.50000  Biso   1.000  H
  H58      1.0000 0.60540  0.28250  0.50000  Biso   1.000  H
  H59      1.0000 0.28250  0.39460  0.50000  Biso   1.000  H
  H60      1.0000 0.71750  0.60540  0.50000  Biso   1.000  H
  H61      1.0000 0.60540  0.71750  0.50000  Biso   1.000  H
  H62      1.0000 0.39460  0.28250  0.50000  Biso   1.000  H
  H63      1.0000 0.71750  0.39460  0.50000  Biso   1.000  H
  H64      1.0000 0.28250  0.60540  0.50000  Biso   1.000  H
  C217     1.0000 0.36880  0.72150  0.68100  Biso   1.000  C
  C218     1.0000 0.63120  0.27850  0.68100  Biso   1.000  C
  C219     1.0000 0.27850  0.36880  0.68100  Biso   1.000  C
  C220     1.0000 0.72150  0.63120  0.68100  Biso   1.000  C
  C221     1.0000 0.63120  0.72150  0.31900  Biso   1.000  C
  C222     1.0000 0.36880  0.27850  0.31900  Biso   1.000  C
  C223     1.0000 0.72150  0.36880  0.31900  Biso   1.000  C
  C224     1.0000 0.27850  0.63120  0.31900  Biso   1.000  C
  C225     1.0000 0.63120  0.27850  0.31900  Biso   1.000  C
  C226     1.0000 0.36880  0.72150  0.31900  Biso   1.000  C
  C227     1.0000 0.72150  0.63120  0.31900  Biso   1.000  C
  C228     1.0000 0.27850  0.36880  0.31900  Biso   1.000  C
  C229     1.0000 0.36880  0.27850  0.68100  Biso   1.000  C
  C230     1.0000 0.63120  0.72150  0.68100  Biso   1.000  C
  C231     1.0000 0.27850  0.63120  0.68100  Biso   1.000  C
  C232     1.0000 0.72150  0.36880  0.68100  Biso   1.000  C
  H65      1.0000 0.34480  0.70140  0.68960  Biso   1.000  H
  H66      1.0000 0.65520  0.29860  0.68960  Biso   1.000  H
  H67      1.0000 0.29860  0.34480  0.68960  Biso   1.000  H
  H68      1.0000 0.70140  0.65520  0.68960  Biso   1.000  H
  H69      1.0000 0.65520  0.70140  0.31040  Biso   1.000  H
  H70      1.0000 0.34480  0.29860  0.31040  Biso   1.000  H
  H71      1.0000 0.70140  0.34480  0.31040  Biso   1.000  H
  H72      1.0000 0.29860  0.65520  0.31040  Biso   1.000  H
  H73      1.0000 0.65520  0.29860  0.31040  Biso   1.000  H
  H74      1.0000 0.34480  0.70140  0.31040  Biso   1.000  H
  H75      1.0000 0.70140  0.65520  0.31040  Biso   1.000  H
  H76      1.0000 0.29860  0.34480  0.31040  Biso   1.000  H
  H77      1.0000 0.34480  0.29860  0.68960  Biso   1.000  H
  H78      1.0000 0.65520  0.70140  0.68960  Biso   1.000  H
  H79      1.0000 0.29860  0.65520  0.68960  Biso   1.000  H
  H80      1.0000 0.70140  0.34480  0.68960  Biso   1.000  H
  H81      1.0000 0.36980  0.73690  0.71330  Biso   1.000  H
  H82      1.0000 0.63020  0.26310  0.71330  Biso   1.000  H
  H83      1.0000 0.26310  0.36980  0.71330  Biso   1.000  H
  H84      1.0000 0.73690  0.63020  0.71330  Biso   1.000  H
  H85      1.0000 0.63020  0.73690  0.28670  Biso   1.000  H
  H86      1.0000 0.36980  0.26310  0.28670  Biso   1.000  H
  H87      1.0000 0.73690  0.36980  0.28670  Biso   1.000  H
  H88      1.0000 0.26310  0.63020  0.28670  Biso   1.000  H
  H89      1.0000 0.63020  0.26310  0.28670  Biso   1.000  H
  H90      1.0000 0.36980  0.73690  0.28670  Biso   1.000  H
  H91      1.0000 0.73690  0.63020  0.28670  Biso   1.000  H
  H92      1.0000 0.26310  0.36980  0.28670  Biso   1.000  H
  H93      1.0000 0.36980  0.26310  0.71330  Biso   1.000  H
  H94      1.0000 0.63020  0.73690  0.71330  Biso   1.000  H
  H95      1.0000 0.26310  0.63020  0.71330  Biso   1.000  H
  H96      1.0000 0.73690  0.36980  0.71330  Biso   1.000  H
  H97      1.0000 0.38780  0.70250  0.66250  Biso   1.000  H
  H98      1.0000 0.61220  0.29750  0.66250  Biso   1.000  H
  H99      1.0000 0.29750  0.38780  0.66250  Biso   1.000  H
  H100     1.0000 0.70250  0.61220  0.66250  Biso   1.000  H
  H101     1.0000 0.61220  0.70250  0.33750  Biso   1.000  H
  H102     1.0000 0.38780  0.29750  0.33750  Biso   1.000  H
  H103     1.0000 0.70250  0.38780  0.33750  Biso   1.000  H
  H104     1.0000 0.29750  0.61220  0.33750  Biso   1.000  H
  H105     1.0000 0.61220  0.29750  0.33750  Biso   1.000  H
  H106     1.0000 0.38780  0.70250  0.33750  Biso   1.000  H
  H107     1.0000 0.70250  0.61220  0.33750  Biso   1.000  H
  H108     1.0000 0.29750  0.38780  0.33750  Biso   1.000  H
  H109     1.0000 0.38780  0.29750  0.66250  Biso   1.000  H
  H110     1.0000 0.61220  0.70250  0.66250  Biso   1.000  H
  H111     1.0000 0.29750  0.61220  0.66250  Biso   1.000  H
  H112     1.0000 0.70250  0.38780  0.66250  Biso   1.000  H
  C233     1.0000 0.26980  0.79150  0.50000  Biso   1.000  C
  C234     1.0000 0.73020  0.20850  0.50000  Biso   1.000  C
  C235     1.0000 0.20850  0.26980  0.50000  Biso   1.000  C
  C236     1.0000 0.79150  0.73020  0.50000  Biso   1.000  C
  C237     1.0000 0.73020  0.79150  0.50000  Biso   1.000  C
  C238     1.0000 0.26980  0.20850  0.50000  Biso   1.000  C
  C239     1.0000 0.79150  0.26980  0.50000  Biso   1.000  C
  C240     1.0000 0.20850  0.73020  0.50000  Biso   1.000  C
  C241     1.0000 0.38600  0.96090  0.92110  Biso   1.000  C
  C242     1.0000 0.61400  0.03910  0.92110  Biso   1.000  C
  C243     1.0000 0.03910  0.38600  0.92110  Biso   1.000  C
  C244     1.0000 0.96090  0.61400  0.92110  Biso   1.000  C
  C245     1.0000 0.61400  0.96090  0.07890  Biso   1.000  C
  C246     1.0000 0.38600  0.03910  0.07890  Biso   1.000  C
  C247     1.0000 0.96090  0.38600  0.07890  Biso   1.000  C
  C248     1.0000 0.03910  0.61400  0.07890  Biso   1.000  C
  C249     1.0000 0.61400  0.03910  0.07890  Biso   1.000  C
  C250     1.0000 0.38600  0.96090  0.07890  Biso   1.000  C
  C251     1.0000 0.96090  0.61400  0.07890  Biso   1.000  C
  C252     1.0000 0.03910  0.38600  0.07890  Biso   1.000  C
  C253     1.0000 0.38600  0.03910  0.92110  Biso   1.000  C
  C254     1.0000 0.61400  0.96090  0.92110  Biso   1.000  C
  C255     1.0000 0.03910  0.61400  0.92110  Biso   1.000  C
  C256     1.0000 0.96090  0.38600  0.92110  Biso   1.000  C
  C257     1.0000 0.42580  0.94940  0.92230  Biso   1.000  C
  C258     1.0000 0.57420  0.05060  0.92230  Biso   1.000  C
  C259     1.0000 0.05060  0.42580  0.92230  Biso   1.000  C
  C260     1.0000 0.94940  0.57420  0.92230  Biso   1.000  C
  C261     1.0000 0.57420  0.94940  0.07770  Biso   1.000  C
  C262     1.0000 0.42580  0.05060  0.07770  Biso   1.000  C
  C263     1.0000 0.94940  0.42580  0.07770  Biso   1.000  C
  C264     1.0000 0.05060  0.57420  0.07770  Biso   1.000  C
  C265     1.0000 0.57420  0.05060  0.07770  Biso   1.000  C
  C266     1.0000 0.42580  0.94940  0.07770  Biso   1.000  C
  C267     1.0000 0.94940  0.57420  0.07770  Biso   1.000  C
  C268     1.0000 0.05060  0.42580  0.07770  Biso   1.000  C
  C269     1.0000 0.42580  0.05060  0.92230  Biso   1.000  C
  C270     1.0000 0.57420  0.94940  0.92230  Biso   1.000  C
  C271     1.0000 0.05060  0.57420  0.92230  Biso   1.000  C
  C272     1.0000 0.94940  0.42580  0.92230  Biso   1.000  C
  C273     1.0000 0.43590  0.93390  0.00000  Biso   1.000  C
  C274     1.0000 0.56410  0.06610  0.00000  Biso   1.000  C
  C275     1.0000 0.06610  0.43590  0.00000  Biso   1.000  C
  C276     1.0000 0.93390  0.56410  0.00000  Biso   1.000  C
  C277     1.0000 0.56410  0.93390  0.00000  Biso   1.000  C
  C278     1.0000 0.43590  0.06610  0.00000  Biso   1.000  C
  C279     1.0000 0.93390  0.43590  0.00000  Biso   1.000  C
  C280     1.0000 0.06610  0.56410  0.00000  Biso   1.000  C
  H113     1.0000 0.45920  0.92030  0.00000  Biso   1.000  H
  H114     1.0000 0.54080  0.07970  0.00000  Biso   1.000  H
  H115     1.0000 0.07970  0.45920  0.00000  Biso   1.000  H
  H116     1.0000 0.92030  0.54080  0.00000  Biso   1.000  H
  H117     1.0000 0.54080  0.92030  0.00000  Biso   1.000  H
  H118     1.0000 0.45920  0.07970  0.00000  Biso   1.000  H
  H119     1.0000 0.92030  0.45920  0.00000  Biso   1.000  H
  H120     1.0000 0.07970  0.54080  0.00000  Biso   1.000  H
  C281     1.0000 0.36850  0.95510  0.00000  Biso   1.000  C
  C282     1.0000 0.63150  0.04490  0.00000  Biso   1.000  C
  C283     1.0000 0.04490  0.36850  0.00000  Biso   1.000  C
  C284     1.0000 0.95510  0.63150  0.00000  Biso   1.000  C
  C285     1.0000 0.63150  0.95510  0.00000  Biso   1.000  C
  C286     1.0000 0.36850  0.04490  0.00000  Biso   1.000  C
  C287     1.0000 0.95510  0.36850  0.00000  Biso   1.000  C
  C288     1.0000 0.04490  0.63150  0.00000  Biso   1.000  C
  C289     1.0000 0.32890  0.96030  0.00000  Biso   1.000  C
  C290     1.0000 0.67110  0.03970  0.00000  Biso   1.000  C
  C291     1.0000 0.03970  0.32890  0.00000  Biso   1.000  C
  C292     1.0000 0.96030  0.67110  0.00000  Biso   1.000  C
  C293     1.0000 0.67110  0.96030  0.00000  Biso   1.000  C
  C294     1.0000 0.32890  0.03970  0.00000  Biso   1.000  C
  C295     1.0000 0.96030  0.32890  0.00000  Biso   1.000  C
  C296     1.0000 0.03970  0.67110  0.00000  Biso   1.000  C
  C297     1.0000 0.44800  0.95730  0.83400  Biso   1.000  C
  C298     1.0000 0.55200  0.04270  0.83400  Biso   1.000  C
  C299     1.0000 0.04270  0.44800  0.83400  Biso   1.000  C
  C300     1.0000 0.95730  0.55200  0.83400  Biso   1.000  C
  C301     1.0000 0.55200  0.95730  0.16600  Biso   1.000  C
  C302     1.0000 0.44800  0.04270  0.16600  Biso   1.000  C
  C303     1.0000 0.95730  0.44800  0.16600  Biso   1.000  C
  C304     1.0000 0.04270  0.55200  0.16600  Biso   1.000  C
  C305     1.0000 0.55200  0.04270  0.16600  Biso   1.000  C
  C306     1.0000 0.44800  0.95730  0.16600  Biso   1.000  C
  C307     1.0000 0.95730  0.55200  0.16600  Biso   1.000  C
  C308     1.0000 0.04270  0.44800  0.16600  Biso   1.000  C
  C309     1.0000 0.44800  0.04270  0.83400  Biso   1.000  C
  C310     1.0000 0.55200  0.95730  0.83400  Biso   1.000  C
  C311     1.0000 0.04270  0.55200  0.83400  Biso   1.000  C
  C312     1.0000 0.95730  0.44800  0.83400  Biso   1.000  C
  H121     1.0000 0.47400  0.96530  0.85100  Biso   1.000  H
  H122     1.0000 0.52600  0.03470  0.85100  Biso   1.000  H
  H123     1.0000 0.03470  0.47400  0.85100  Biso   1.000  H
  H124     1.0000 0.96530  0.52600  0.85100  Biso   1.000  H
  H125     1.0000 0.52600  0.96530  0.14900  Biso   1.000  H
  H126     1.0000 0.47400  0.03470  0.14900  Biso   1.000  H
  H127     1.0000 0.96530  0.47400  0.14900  Biso   1.000  H
  H128     1.0000 0.03470  0.52600  0.14900  Biso   1.000  H
  H129     1.0000 0.52600  0.03470  0.14900  Biso   1.000  H
  H130     1.0000 0.47400  0.96530  0.14900  Biso   1.000  H
  H131     1.0000 0.96530  0.52600  0.14900  Biso   1.000  H
  H132     1.0000 0.03470  0.47400  0.14900  Biso   1.000  H
  H133     1.0000 0.47400  0.03470  0.85100  Biso   1.000  H
  H134     1.0000 0.52600  0.96530  0.85100  Biso   1.000  H
  H135     1.0000 0.03470  0.52600  0.85100  Biso   1.000  H
  H136     1.0000 0.96530  0.47400  0.85100  Biso   1.000  H
  H137     1.0000 0.43630  0.97600  0.80150  Biso   1.000  H
  H138     1.0000 0.56370  0.02400  0.80150  Biso   1.000  H
  H139     1.0000 0.02400  0.43630  0.80150  Biso   1.000  H
  H140     1.0000 0.97600  0.56370  0.80150  Biso   1.000  H
  H141     1.0000 0.56370  0.97600  0.19850  Biso   1.000  H
  H142     1.0000 0.43630  0.02400  0.19850  Biso   1.000  H
  H143     1.0000 0.97600  0.43630  0.19850  Biso   1.000  H
  H144     1.0000 0.02400  0.56370  0.19850  Biso   1.000  H
  H145     1.0000 0.56370  0.02400  0.19850  Biso   1.000  H
  H146     1.0000 0.43630  0.97600  0.19850  Biso   1.000  H
  H147     1.0000 0.97600  0.56370  0.19850  Biso   1.000  H
  H148     1.0000 0.02400  0.43630  0.19850  Biso   1.000  H
  H149     1.0000 0.43630  0.02400  0.80150  Biso   1.000  H
  H150     1.0000 0.56370  0.97600  0.80150  Biso   1.000  H
  H151     1.0000 0.02400  0.56370  0.80150  Biso   1.000  H
  H152     1.0000 0.97600  0.43630  0.80150  Biso   1.000  H
  H153     1.0000 0.45050  0.93380  0.80160  Biso   1.000  H
  H154     1.0000 0.54950  0.06620  0.80160  Biso   1.000  H
  H155     1.0000 0.06620  0.45050  0.80160  Biso   1.000  H
  H156     1.0000 0.93380  0.54950  0.80160  Biso   1.000  H
  H157     1.0000 0.54950  0.93380  0.19840  Biso   1.000  H
  H158     1.0000 0.45050  0.06620  0.19840  Biso   1.000  H
  H159     1.0000 0.93380  0.45050  0.19840  Biso   1.000  H
  H160     1.0000 0.06620  0.54950  0.19840  Biso   1.000  H
  H161     1.0000 0.54950  0.06620  0.19840  Biso   1.000  H
  H162     1.0000 0.45050  0.93380  0.19840  Biso   1.000  H
  H163     1.0000 0.93380  0.54950  0.19840  Biso   1.000  H
  H164     1.0000 0.06620  0.45050  0.19840  Biso   1.000  H
  H165     1.0000 0.45050  0.06620  0.80160  Biso   1.000  H
  H166     1.0000 0.54950  0.93380  0.80160  Biso   1.000  H
  H167     1.0000 0.06620  0.54950  0.80160  Biso   1.000  H
  H168     1.0000 0.93380  0.45050  0.80160  Biso   1.000  H
  O145     1.0000 0.28930  0.71070  0.84690  Biso   1.000  O
  O146     1.0000 0.71070  0.28930  0.84690  Biso   1.000  O
  O147     1.0000 0.28930  0.28930  0.84690  Biso   1.000  O
  O148     1.0000 0.71070  0.71070  0.84690  Biso   1.000  O
  O149     1.0000 0.71070  0.71070  0.15310  Biso   1.000  O
  O150     1.0000 0.28930  0.28930  0.15310  Biso   1.000  O
  O151     1.0000 0.71070  0.28930  0.15310  Biso   1.000  O
  O152     1.0000 0.28930  0.71070  0.15310  Biso   1.000  O
  O153     1.0000 0.50000  0.77620  0.65470  Biso   1.000  O
  O154     1.0000 0.50000  0.22380  0.65470  Biso   1.000  O
  O155     1.0000 0.22380  0.50000  0.65470  Biso   1.000  O
  O156     1.0000 0.77620  0.50000  0.65470  Biso   1.000  O
  O157     1.0000 0.50000  0.77620  0.34530  Biso   1.000  O
  O158     1.0000 0.50000  0.22380  0.34530  Biso   1.000  O
  O159     1.0000 0.77620  0.50000  0.34530  Biso   1.000  O
  O160     1.0000 0.22380  0.50000  0.34530  Biso   1.000  O
  O161     1.0000 0.40440  0.00000  0.66300  Biso   1.000  O
  O162     1.0000 0.59560  0.00000  0.66300  Biso   1.000  O
  O163     1.0000 0.00000  0.40440  0.66300  Biso   1.000  O
  O164     1.0000 0.00000  0.59560  0.66300  Biso   1.000  O
  O165     1.0000 0.59560  0.00000  0.33700  Biso   1.000  O
  O166     1.0000 0.40440  0.00000  0.33700  Biso   1.000  O
  O167     1.0000 0.00000  0.40440  0.33700  Biso   1.000  O
  O168     1.0000 0.00000  0.59560  0.33700  Biso   1.000  O
  O169     1.0000 0.28190  0.00000  0.81870  Biso   1.000  O
  O170     1.0000 0.71810  0.00000  0.81870  Biso   1.000  O
  O171     1.0000 0.00000  0.28190  0.81870  Biso   1.000  O
  O172     1.0000 0.00000  0.71810  0.81870  Biso   1.000  O
  O173     1.0000 0.71810  0.00000  0.18130  Biso   1.000  O
  O174     1.0000 0.28190  0.00000  0.18130  Biso   1.000  O
  O175     1.0000 0.00000  0.28190  0.18130  Biso   1.000  O
  O176     1.0000 0.00000  0.71810  0.18130  Biso   1.000  O
  Pd1      1.0000 0.44207  0.83935  0.50000  Biso   1.000  Pd
  Pd2      1.0000 0.55793  0.16065  0.50000  Biso   1.000  Pd
  Pd3      1.0000 0.16065  0.44207  0.50000  Biso   1.000  Pd
  Pd4      1.0000 0.83935  0.55793  0.50000  Biso   1.000  Pd
  Pd5      1.0000 0.55793  0.83935  0.50000  Biso   1.000  Pd
  Pd6      1.0000 0.44207  0.16065  0.50000  Biso   1.000  Pd
  Pd7      1.0000 0.83935  0.44207  0.50000  Biso   1.000  Pd
  Pd8      1.0000 0.16065  0.55793  0.50000  Biso   1.000  Pd
  O177     1.0000 0.50000  0.85090  0.50000  Biso   1.000  O
  O178     1.0000 0.50000  0.14910  0.50000  Biso   1.000  O
  O179     1.0000 0.14910  0.50000  0.50000  Biso   1.000  O
  O180     1.0000 0.85090  0.50000  0.50000  Biso   1.000  O
  N49      1.0000 0.45780  0.78570  0.50000  Biso   1.000  N
  N50      1.0000 0.54220  0.21430  0.50000  Biso   1.000  N
  N51      1.0000 0.21430  0.45780  0.50000  Biso   1.000  N
  N52      1.0000 0.78570  0.54220  0.50000  Biso   1.000  N
  N53      1.0000 0.54220  0.78570  0.50000  Biso   1.000  N
  N54      1.0000 0.45780  0.21430  0.50000  Biso   1.000  N
  N55      1.0000 0.78570  0.45780  0.50000  Biso   1.000  N
  N56      1.0000 0.21430  0.54220  0.50000  Biso   1.000  N
  N57      1.0000 0.38580  0.83020  0.50000  Biso   1.000  N
  N58      1.0000 0.61420  0.16980  0.50000  Biso   1.000  N
  N59      1.0000 0.16980  0.38580  0.50000  Biso   1.000  N
  N60      1.0000 0.83020  0.61420  0.50000  Biso   1.000  N
  N61      1.0000 0.61420  0.83020  0.50000  Biso   1.000  N
  N62      1.0000 0.38580  0.16980  0.50000  Biso   1.000  N
  N63      1.0000 0.83020  0.38580  0.50000  Biso   1.000  N
  N64      1.0000 0.16980  0.61420  0.50000  Biso   1.000  N
  N65      1.0000 0.43070  0.89430  0.50000  Biso   1.000  N
  N66      1.0000 0.56930  0.10570  0.50000  Biso   1.000  N
  N67      1.0000 0.10570  0.43070  0.50000  Biso   1.000  N
  N68      1.0000 0.89430  0.56930  0.50000  Biso   1.000  N
  N69      1.0000 0.56930  0.89430  0.50000  Biso   1.000  N
  N70      1.0000 0.43070  0.10570  0.50000  Biso   1.000  N
  N71      1.0000 0.89430  0.43070  0.50000  Biso   1.000  N
  N72      1.0000 0.10570  0.56930  0.50000  Biso   1.000  N
  H169     1.0000 0.40560  0.89770  0.50000  Biso   1.000  H
  H170     1.0000 0.59440  0.10230  0.50000  Biso   1.000  H
  H171     1.0000 0.10230  0.40560  0.50000  Biso   1.000  H
  H172     1.0000 0.89770  0.59440  0.50000  Biso   1.000  H
  H173     1.0000 0.59440  0.89770  0.50000  Biso   1.000  H
  H174     1.0000 0.40560  0.10230  0.50000  Biso   1.000  H
  H175     1.0000 0.89770  0.40560  0.50000  Biso   1.000  H
  H176     1.0000 0.10230  0.59440  0.50000  Biso   1.000  H
  H177     1.0000 0.44070  0.90500  0.45160  Biso   1.000  H
  H178     1.0000 0.55930  0.09500  0.45160  Biso   1.000  H
  H179     1.0000 0.09500  0.44070  0.45160  Biso   1.000  H
  H180     1.0000 0.90500  0.55930  0.45160  Biso   1.000  H
  H181     1.0000 0.55930  0.90500  0.54840  Biso   1.000  H
  H182     1.0000 0.44070  0.09500  0.54840  Biso   1.000  H
  H183     1.0000 0.90500  0.44070  0.54840  Biso   1.000  H
  H184     1.0000 0.09500  0.55930  0.54840  Biso   1.000  H
  H185     1.0000 0.55930  0.09500  0.54840  Biso   1.000  H
  H186     1.0000 0.44070  0.90500  0.54840  Biso   1.000  H
  H187     1.0000 0.90500  0.55930  0.54840  Biso   1.000  H
  H188     1.0000 0.09500  0.44070  0.54840  Biso   1.000  H
  H189     1.0000 0.44070  0.09500  0.45160  Biso   1.000  H
  H190     1.0000 0.55930  0.90500  0.45160  Biso   1.000  H
  H191     1.0000 0.09500  0.55930  0.45160  Biso   1.000  H
  H192     1.0000 0.90500  0.44070  0.45160  Biso   1.000  H
  O181     1.0000 0.50000  0.50000  0.00000  Biso   1.000  O
  O182     1.0000 0.50000  0.50000  0.50000  Biso   1.000  O
  O183     1.0000 0.50000  0.91990  0.61270  Biso   1.000  O
  O184     1.0000 0.50000  0.08010  0.61270  Biso   1.000  O
  O185     1.0000 0.08010  0.50000  0.61270  Biso   1.000  O
  O186     1.0000 0.91990  0.50000  0.61270  Biso   1.000  O
  O187     1.0000 0.50000  0.91990  0.38730  Biso   1.000  O
  O188     1.0000 0.50000  0.08010  0.38730  Biso   1.000  O
  O189     1.0000 0.91990  0.50000  0.38730  Biso   1.000  O
  O190     1.0000 0.08010  0.50000  0.38730  Biso   1.000  O
  O191     1.0000 0.50000  0.70400  0.35010  Biso   1.000  O
  O192     1.0000 0.50000  0.29600  0.35010  Biso   1.000  O
  O193     1.0000 0.29600  0.50000  0.35010  Biso   1.000  O
  O194     1.0000 0.70400  0.50000  0.35010  Biso   1.000  O
  O195     1.0000 0.50000  0.70400  0.64990  Biso   1.000  O
  O196     1.0000 0.50000  0.29600  0.64990  Biso   1.000  O
  O197     1.0000 0.70400  0.50000  0.64990  Biso   1.000  O
  O198     1.0000 0.29600  0.50000  0.64990  Biso   1.000  O
  O199     1.0000 0.34920  0.86750  0.00000  Biso   1.000  O
  O200     1.0000 0.65080  0.13250  0.00000  Biso   1.000  O
  O201     1.0000 0.13250  0.34920  0.00000  Biso   1.000  O
  O202     1.0000 0.86750  0.65080  0.00000  Biso   1.000  O
  O203     1.0000 0.65080  0.86750  0.00000  Biso   1.000  O
  O204     1.0000 0.34920  0.13250  0.00000  Biso   1.000  O
  O205     1.0000 0.86750  0.34920  0.00000  Biso   1.000  O
  O206     1.0000 0.13250  0.65080  0.00000  Biso   1.000  O
  O207     1.0000 0.31110  0.79240  0.00000  Biso   1.000  O
  O208     1.0000 0.68890  0.20760  0.00000  Biso   1.000  O
  O209     1.0000 0.20760  0.31110  0.00000  Biso   1.000  O
  O210     1.0000 0.79240  0.68890  0.00000  Biso   1.000  O
  O211     1.0000 0.68890  0.79240  0.00000  Biso   1.000  O
  O212     1.0000 0.31110  0.20760  0.00000  Biso   1.000  O
  O213     1.0000 0.79240  0.31110  0.00000  Biso   1.000  O
  O214     1.0000 0.20760  0.68890  0.00000  Biso   1.000  O
  O215     1.0000 0.50000  0.64640  0.19020  Biso   1.000  O
  O216     1.0000 0.50000  0.35360  0.19020  Biso   1.000  O
  O217     1.0000 0.35360  0.50000  0.19020  Biso   1.000  O
  O218     1.0000 0.64640  0.50000  0.19020  Biso   1.000  O
  O219     1.0000 0.50000  0.64640  0.80980  Biso   1.000  O
  O220     1.0000 0.50000  0.35360  0.80980  Biso   1.000  O
  O221     1.0000 0.64640  0.50000  0.80980  Biso   1.000  O
  O222     1.0000 0.35360  0.50000  0.80980  Biso   1.000  O
  O223     1.0000 0.15690  0.88960  0.00000  Biso   1.000  O
  O224     1.0000 0.84310  0.11040  0.00000  Biso   1.000  O
  O225     1.0000 0.11040  0.15690  0.00000  Biso   1.000  O
  O226     1.0000 0.88960  0.84310  0.00000  Biso   1.000  O
  O227     1.0000 0.84310  0.88960  0.00000  Biso   1.000  O
  O228     1.0000 0.15690  0.11040  0.00000  Biso   1.000  O
  O229     1.0000 0.88960  0.15690  0.00000  Biso   1.000  O
  O230     1.0000 0.11040  0.84310  0.00000  Biso   1.000  O
  O231     1.0000 0.23820  0.90690  0.50000  Biso   1.000  O
  O232     1.0000 0.76180  0.09310  0.50000  Biso   1.000  O
  O233     1.0000 0.09310  0.23820  0.50000  Biso   1.000  O
  O234     1.0000 0.90690  0.76180  0.50000  Biso   1.000  O
  O235     1.0000 0.76180  0.90690  0.50000  Biso   1.000  O
  O236     1.0000 0.23820  0.09310  0.50000  Biso   1.000  O
  O237     1.0000 0.90690  0.23820  0.50000  Biso   1.000  O
  O238     1.0000 0.09310  0.76180  0.50000  Biso   1.000  O
  O239     1.0000 0.45550  0.68080  0.50000  Biso   1.000  O
  O240     1.0000 0.54450  0.31920  0.50000  Biso   1.000  O
  O241     1.0000 0.31920  0.45550  0.50000  Biso   1.000  O
  O242     1.0000 0.68080  0.54450  0.50000  Biso   1.000  O
  O243     1.0000 0.54450  0.68080  0.50000  Biso   1.000  O
  O244     1.0000 0.45550  0.31920  0.50000  Biso   1.000  O
  O245     1.0000 0.68080  0.45550  0.50000  Biso   1.000  O
  O246     1.0000 0.31920  0.54450  0.50000  Biso   1.000  O
  O247     1.0000 0.35540  0.00000  0.50000  Biso   1.000  O
  O248     1.0000 0.64460  0.00000  0.50000  Biso   1.000  O
  O249     1.0000 0.00000  0.35540  0.50000  Biso   1.000  O
  O250     1.0000 0.00000  0.64460  0.50000  Biso   1.000  O
  H193     1.0000 0.44150  0.77330  0.45760  Biso   1.000  H
  H194     1.0000 0.55850  0.22670  0.45760  Biso   1.000  H
  H195     1.0000 0.22670  0.44150  0.45760  Biso   1.000  H
  H196     1.0000 0.77330  0.55850  0.45760  Biso   1.000  H
  H197     1.0000 0.55850  0.77330  0.54240  Biso   1.000  H
  H198     1.0000 0.44150  0.22670  0.54240  Biso   1.000  H
  H199     1.0000 0.77330  0.44150  0.54240  Biso   1.000  H
  H200     1.0000 0.22670  0.55850  0.54240  Biso   1.000  H
  H201     1.0000 0.55850  0.22670  0.54240  Biso   1.000  H
  H202     1.0000 0.44150  0.77330  0.54240  Biso   1.000  H
  H203     1.0000 0.77330  0.55850  0.54240  Biso   1.000  H
  H204     1.0000 0.22670  0.44150  0.54240  Biso   1.000  H
  H205     1.0000 0.44150  0.22670  0.45760  Biso   1.000  H
  H206     1.0000 0.55850  0.77330  0.45760  Biso   1.000  H
  H207     1.0000 0.22670  0.55850  0.45760  Biso   1.000  H
  H208     1.0000 0.77330  0.44150  0.45760  Biso   1.000  H
  H209     1.0000 0.44880  0.77500  0.55270  Biso   1.000  H
  H210     1.0000 0.55120  0.22500  0.55270  Biso   1.000  H
  H211     1.0000 0.22500  0.44880  0.55270  Biso   1.000  H
  H212     1.0000 0.77500  0.55120  0.55270  Biso   1.000  H
  H213     1.0000 0.55120  0.77500  0.44730  Biso   1.000  H
  H214     1.0000 0.44880  0.22500  0.44730  Biso   1.000  H
  H215     1.0000 0.77500  0.44880  0.44730  Biso   1.000  H
  H216     1.0000 0.22500  0.55120  0.44730  Biso   1.000  H
  H217     1.0000 0.55120  0.22500  0.44730  Biso   1.000  H
  H218     1.0000 0.44880  0.77500  0.44730  Biso   1.000  H
  H219     1.0000 0.77500  0.55120  0.44730  Biso   1.000  H
  H220     1.0000 0.22500  0.44880  0.44730  Biso   1.000  H
  H221     1.0000 0.44880  0.22500  0.55270  Biso   1.000  H
  H222     1.0000 0.55120  0.77500  0.55270  Biso   1.000  H
  H223     1.0000 0.22500  0.55120  0.55270  Biso   1.000  H
  H224     1.0000 0.77500  0.44880  0.55270  Biso   1.000  H
  H225     1.0000 0.47950  0.78210  0.48980  Biso   1.000  H
  H226     1.0000 0.52050  0.21790  0.48980  Biso   1.000  H
  H227     1.0000 0.21790  0.47950  0.48980  Biso   1.000  H
  H228     1.0000 0.78210  0.52050  0.48980  Biso   1.000  H
  H229     1.0000 0.52050  0.78210  0.51020  Biso   1.000  H
  H230     1.0000 0.47950  0.21790  0.51020  Biso   1.000  H
  H231     1.0000 0.78210  0.47950  0.51020  Biso   1.000  H
  H232     1.0000 0.21790  0.52050  0.51020  Biso   1.000  H
  H233     1.0000 0.52050  0.21790  0.51020  Biso   1.000  H
  H234     1.0000 0.47950  0.78210  0.51020  Biso   1.000  H
  H235     1.0000 0.78210  0.52050  0.51020  Biso   1.000  H
  H236     1.0000 0.21790  0.47950  0.51020  Biso   1.000  H
  H237     1.0000 0.47950  0.21790  0.48980  Biso   1.000  H
  H238     1.0000 0.52050  0.78210  0.48980  Biso   1.000  H
  H239     1.0000 0.21790  0.52050  0.48980  Biso   1.000  H
  H240     1.0000 0.78210  0.47950  0.48980  Biso   1.000  H
  H241     1.0000 0.27360  0.81440  0.46500  Biso   1.000  H
  H242     1.0000 0.72640  0.18560  0.46500  Biso   1.000  H
  H243     1.0000 0.18560  0.27360  0.46500  Biso   1.000  H
  H244     1.0000 0.81440  0.72640  0.46500  Biso   1.000  H
  H245     1.0000 0.72640  0.81440  0.53500  Biso   1.000  H
  H246     1.0000 0.27360  0.18560  0.53500  Biso   1.000  H
  H247     1.0000 0.81440  0.27360  0.53500  Biso   1.000  H
  H248     1.0000 0.18560  0.72640  0.53500  Biso   1.000  H
  H249     1.0000 0.72640  0.18560  0.53500  Biso   1.000  H
  H250     1.0000 0.27360  0.81440  0.53500  Biso   1.000  H
  H251     1.0000 0.81440  0.72640  0.53500  Biso   1.000  H
  H252     1.0000 0.18560  0.27360  0.53500  Biso   1.000  H
  H253     1.0000 0.27360  0.18560  0.46500  Biso   1.000  H
  H254     1.0000 0.72640  0.81440  0.46500  Biso   1.000  H
  H255     1.0000 0.18560  0.72640  0.46500  Biso   1.000  H
  H256     1.0000 0.81440  0.27360  0.46500  Biso   1.000  H
  H257     1.0000 0.26360  0.79890  0.55990  Biso   1.000  H
  H258     1.0000 0.73640  0.20110  0.55990  Biso   1.000  H
  H259     1.0000 0.20110  0.26360  0.55990  Biso   1.000  H
  H260     1.0000 0.79890  0.73640  0.55990  Biso   1.000  H
  H261     1.0000 0.73640  0.79890  0.44010  Biso   1.000  H
  H262     1.0000 0.26360  0.20110  0.44010  Biso   1.000  H
  H263     1.0000 0.79890  0.26360  0.44010  Biso   1.000  H
  H264     1.0000 0.20110  0.73640  0.44010  Biso   1.000  H
  H265     1.0000 0.73640  0.20110  0.44010  Biso   1.000  H
  H266     1.0000 0.26360  0.79890  0.44010  Biso   1.000  H
  H267     1.0000 0.79890  0.73640  0.44010  Biso   1.000  H
  H268     1.0000 0.20110  0.26360  0.44010  Biso   1.000  H
  H269     1.0000 0.26360  0.20110  0.55990  Biso   1.000  H
  H270     1.0000 0.73640  0.79890  0.55990  Biso   1.000  H
  H271     1.0000 0.20110  0.73640  0.55990  Biso   1.000  H
  H272     1.0000 0.79890  0.26360  0.55990  Biso   1.000  H
  H273     1.0000 0.24960  0.77710  0.47510  Biso   1.000  H
  H274     1.0000 0.75040  0.22290  0.47510  Biso   1.000  H
  H275     1.0000 0.22290  0.24960  0.47510  Biso   1.000  H
  H276     1.0000 0.77710  0.75040  0.47510  Biso   1.000  H
  H277     1.0000 0.75040  0.77710  0.52490  Biso   1.000  H
  H278     1.0000 0.24960  0.22290  0.52490  Biso   1.000  H
  H279     1.0000 0.77710  0.24960  0.52490  Biso   1.000  H
  H280     1.0000 0.22290  0.75040  0.52490  Biso   1.000  H
  H281     1.0000 0.75040  0.22290  0.52490  Biso   1.000  H
  H282     1.0000 0.24960  0.77710  0.52490  Biso   1.000  H
  H283     1.0000 0.77710  0.75040  0.52490  Biso   1.000  H
  H284     1.0000 0.22290  0.24960  0.52490  Biso   1.000  H
  H285     1.0000 0.24960  0.22290  0.47510  Biso   1.000  H
  H286     1.0000 0.75040  0.77710  0.47510  Biso   1.000  H
  H287     1.0000 0.22290  0.75040  0.47510  Biso   1.000  H
  H288     1.0000 0.77710  0.24960  0.47510  Biso   1.000  H
  H289     1.0000 0.31790  0.93460  0.97880  Biso   1.000  H
  H290     1.0000 0.68210  0.06540  0.97880  Biso   1.000  H
  H291     1.0000 0.06540  0.31790  0.97880  Biso   1.000  H
  H292     1.0000 0.93460  0.68210  0.97880  Biso   1.000  H
  H293     1.0000 0.68210  0.93460  0.02120  Biso   1.000  H
  H294     1.0000 0.31790  0.06540  0.02120  Biso   1.000  H
  H295     1.0000 0.93460  0.31790  0.02120  Biso   1.000  H
  H296     1.0000 0.06540  0.68210  0.02120  Biso   1.000  H
  H297     1.0000 0.68210  0.06540  0.02120  Biso   1.000  H
  H298     1.0000 0.31790  0.93460  0.02120  Biso   1.000  H
  H299     1.0000 0.93460  0.68210  0.02120  Biso   1.000  H
  H300     1.0000 0.06540  0.31790  0.02120  Biso   1.000  H
  H301     1.0000 0.31790  0.06540  0.97880  Biso   1.000  H
  H302     1.0000 0.68210  0.93460  0.97880  Biso   1.000  H
  H303     1.0000 0.06540  0.68210  0.97880  Biso   1.000  H
  H304     1.0000 0.93460  0.31790  0.97880  Biso   1.000  H
  H305     1.0000 0.32010  0.97850  0.96180  Biso   1.000  H
  H306     1.0000 0.67990  0.02150  0.96180  Biso   1.000  H
  H307     1.0000 0.02150  0.32010  0.96180  Biso   1.000  H
  H308     1.0000 0.97850  0.67990  0.96180  Biso   1.000  H
  H309     1.0000 0.67990  0.97850  0.03820  Biso   1.000  H
  H310     1.0000 0.32010  0.02150  0.03820  Biso   1.000  H
  H311     1.0000 0.97850  0.32010  0.03820  Biso   1.000  H
  H312     1.0000 0.02150  0.67990  0.03820  Biso   1.000  H
  H313     1.0000 0.67990  0.02150  0.03820  Biso   1.000  H
  H314     1.0000 0.32010  0.97850  0.03820  Biso   1.000  H
  H315     1.0000 0.97850  0.67990  0.03820  Biso   1.000  H
  H316     1.0000 0.02150  0.32010  0.03820  Biso   1.000  H
  H317     1.0000 0.32010  0.02150  0.96180  Biso   1.000  H
  H318     1.0000 0.67990  0.97850  0.96180  Biso   1.000  H
  H319     1.0000 0.02150  0.67990  0.96180  Biso   1.000  H
  H320     1.0000 0.97850  0.32010  0.96180  Biso   1.000  H
  H321     1.0000 0.31930  0.96280  0.05940  Biso   1.000  H
  H322     1.0000 0.68070  0.03720  0.05940  Biso   1.000  H
  H323     1.0000 0.03720  0.31930  0.05940  Biso   1.000  H
  H324     1.0000 0.96280  0.68070  0.05940  Biso   1.000  H
  H325     1.0000 0.68070  0.96280  0.94060  Biso   1.000  H
  H326     1.0000 0.31930  0.03720  0.94060  Biso   1.000  H
  H327     1.0000 0.96280  0.31930  0.94060  Biso   1.000  H
  H328     1.0000 0.03720  0.68070  0.94060  Biso   1.000  H
  H329     1.0000 0.68070  0.03720  0.94060  Biso   1.000  H
  H330     1.0000 0.31930  0.96280  0.94060  Biso   1.000  H
  H331     1.0000 0.96280  0.68070  0.94060  Biso   1.000  H
  H332     1.0000 0.03720  0.31930  0.94060  Biso   1.000  H
  H333     1.0000 0.31930  0.03720  0.05940  Biso   1.000  H
  H334     1.0000 0.68070  0.96280  0.05940  Biso   1.000  H
  H335     1.0000 0.03720  0.68070  0.05940  Biso   1.000  H
  H336     1.0000 0.96280  0.31930  0.05940  Biso   1.000  H
  H337     1.0000 0.37820  0.82680  0.44420  Biso   1.000  H
  H338     1.0000 0.62180  0.17320  0.44420  Biso   1.000  H
  H339     1.0000 0.17320  0.37820  0.44420  Biso   1.000  H
  H340     1.0000 0.82680  0.62180  0.44420  Biso   1.000  H
  H341     1.0000 0.62180  0.82680  0.55580  Biso   1.000  H
  H342     1.0000 0.37820  0.17320  0.55580  Biso   1.000  H
  H343     1.0000 0.82680  0.37820  0.55580  Biso   1.000  H
  H344     1.0000 0.17320  0.62180  0.55580  Biso   1.000  H
  H345     1.0000 0.62180  0.17320  0.55580  Biso   1.000  H
  H346     1.0000 0.37820  0.82680  0.55580  Biso   1.000  H
  H347     1.0000 0.82680  0.62180  0.55580  Biso   1.000  H
  H348     1.0000 0.17320  0.37820  0.55580  Biso   1.000  H
  H349     1.0000 0.37820  0.17320  0.44420  Biso   1.000  H
  H350     1.0000 0.62180  0.82680  0.44420  Biso   1.000  H
  H351     1.0000 0.17320  0.62180  0.44420  Biso   1.000  H
  H352     1.0000 0.82680  0.37820  0.44420  Biso   1.000  H
  H353     1.0000 0.37430  0.84900  0.52530  Biso   1.000  H
  H354     1.0000 0.62570  0.15100  0.52530  Biso   1.000  H
  H355     1.0000 0.15100  0.37430  0.52530  Biso   1.000  H
  H356     1.0000 0.84900  0.62570  0.52530  Biso   1.000  H
  H357     1.0000 0.62570  0.84900  0.47470  Biso   1.000  H
  H358     1.0000 0.37430  0.15100  0.47470  Biso   1.000  H
  H359     1.0000 0.84900  0.37430  0.47470  Biso   1.000  H
  H360     1.0000 0.15100  0.62570  0.47470  Biso   1.000  H
  H361     1.0000 0.62570  0.15100  0.47470  Biso   1.000  H
  H362     1.0000 0.37430  0.84900  0.47470  Biso   1.000  H
  H363     1.0000 0.84900  0.62570  0.47470  Biso   1.000  H
  H364     1.0000 0.15100  0.37430  0.47470  Biso   1.000  H
  H365     1.0000 0.37430  0.15100  0.52530  Biso   1.000  H
  H366     1.0000 0.62570  0.84900  0.52530  Biso   1.000  H
  H367     1.0000 0.15100  0.62570  0.52530  Biso   1.000  H
  H368     1.0000 0.84900  0.37430  0.52530  Biso   1.000  H
  H369     1.0000 0.38150  0.80830  0.53050  Biso   1.000  H
  H370     1.0000 0.61850  0.19170  0.53050  Biso   1.000  H
  H371     1.0000 0.19170  0.38150  0.53050  Biso   1.000  H
  H372     1.0000 0.80830  0.61850  0.53050  Biso   1.000  H
  H373     1.0000 0.61850  0.80830  0.46950  Biso   1.000  H
  H374     1.0000 0.38150  0.19170  0.46950  Biso   1.000  H
  H375     1.0000 0.80830  0.38150  0.46950  Biso   1.000  H
  H376     1.0000 0.19170  0.61850  0.46950  Biso   1.000  H
  H377     1.0000 0.61850  0.19170  0.46950  Biso   1.000  H
  H378     1.0000 0.38150  0.80830  0.46950  Biso   1.000  H
  H379     1.0000 0.80830  0.61850  0.46950  Biso   1.000  H
  H380     1.0000 0.19170  0.38150  0.46950  Biso   1.000  H
  H381     1.0000 0.38150  0.19170  0.53050  Biso   1.000  H
  H382     1.0000 0.61850  0.80830  0.53050  Biso   1.000  H
  H383     1.0000 0.19170  0.61850  0.53050  Biso   1.000  H
  H384     1.0000 0.80830  0.38150  0.53050  Biso   1.000  H
  H385     1.0000 0.44160  0.86890  0.05310  Biso   1.000  H
  H386     1.0000 0.55840  0.13110  0.05310  Biso   1.000  H
  H387     1.0000 0.13110  0.44160  0.05310  Biso   1.000  H
  H388     1.0000 0.86890  0.55840  0.05310  Biso   1.000  H
  H389     1.0000 0.55840  0.86890  0.94690  Biso   1.000  H
  H390     1.0000 0.44160  0.13110  0.94690  Biso   1.000  H
  H391     1.0000 0.86890  0.44160  0.94690  Biso   1.000  H
  H392     1.0000 0.13110  0.55840  0.94690  Biso   1.000  H
  H393     1.0000 0.55840  0.13110  0.94690  Biso   1.000  H
  H394     1.0000 0.44160  0.86890  0.94690  Biso   1.000  H
  H395     1.0000 0.86890  0.55840  0.94690  Biso   1.000  H
  H396     1.0000 0.13110  0.44160  0.94690  Biso   1.000  H
  H397     1.0000 0.44160  0.13110  0.05310  Biso   1.000  H
  H398     1.0000 0.55840  0.86890  0.05310  Biso   1.000  H
  H399     1.0000 0.13110  0.55840  0.05310  Biso   1.000  H
  H400     1.0000 0.86890  0.44160  0.05310  Biso   1.000  H
  H401     1.0000 0.44010  0.86890  0.94890  Biso   1.000  H
  H402     1.0000 0.55990  0.13110  0.94890  Biso   1.000  H
  H403     1.0000 0.13110  0.44010  0.94890  Biso   1.000  H
  H404     1.0000 0.86890  0.55990  0.94890  Biso   1.000  H
  H405     1.0000 0.55990  0.86890  0.05110  Biso   1.000  H
  H406     1.0000 0.44010  0.13110  0.05110  Biso   1.000  H
  H407     1.0000 0.86890  0.44010  0.05110  Biso   1.000  H
  H408     1.0000 0.13110  0.55990  0.05110  Biso   1.000  H
  H409     1.0000 0.55990  0.13110  0.05110  Biso   1.000  H
  H410     1.0000 0.44010  0.86890  0.05110  Biso   1.000  H
  H411     1.0000 0.86890  0.55990  0.05110  Biso   1.000  H
  H412     1.0000 0.13110  0.44010  0.05110  Biso   1.000  H
  H413     1.0000 0.44010  0.13110  0.94890  Biso   1.000  H
  H414     1.0000 0.55990  0.86890  0.94890  Biso   1.000  H
  H415     1.0000 0.13110  0.55990  0.94890  Biso   1.000  H
  H416     1.0000 0.86890  0.44010  0.94890  Biso   1.000  H
  H417     1.0000 0.47940  0.86880  0.00000  Biso   1.000  H
  H418     1.0000 0.52060  0.13120  0.00000  Biso   1.000  H
  H419     1.0000 0.13120  0.47940  0.00000  Biso   1.000  H
  H420     1.0000 0.86880  0.52060  0.00000  Biso   1.000  H
  H421     1.0000 0.52060  0.86880  0.00000  Biso   1.000  H
  H422     1.0000 0.47940  0.13120  0.00000  Biso   1.000  H
  H423     1.0000 0.86880  0.47940  0.00000  Biso   1.000  H
  H424     1.0000 0.13120  0.52060  0.00000  Biso   1.000  H
  Pd9      1.0000 0.18810  0.82990  0.50000  Biso   1.000  Pd
  Pd10     1.0000 0.81190  0.17010  0.50000  Biso   1.000  Pd
  Pd11     1.0000 0.17010  0.18810  0.50000  Biso   1.000  Pd
  Pd12     1.0000 0.82990  0.81190  0.50000  Biso   1.000  Pd
  Pd13     1.0000 0.81190  0.82990  0.50000  Biso   1.000  Pd
  Pd14     1.0000 0.18810  0.17010  0.50000  Biso   1.000  Pd
  Pd15     1.0000 0.82990  0.18810  0.50000  Biso   1.000  Pd
  Pd16     1.0000 0.17010  0.81190  0.50000  Biso   1.000  Pd
  Pd17     1.0000 0.23260  0.83710  0.00000  Biso   1.000  Pd
  Pd18     1.0000 0.76740  0.16290  0.00000  Biso   1.000  Pd
  Pd19     1.0000 0.16290  0.23260  0.00000  Biso   1.000  Pd
  Pd20     1.0000 0.83710  0.76740  0.00000  Biso   1.000  Pd
  Pd21     1.0000 0.76740  0.83710  0.00000  Biso   1.000  Pd
  Pd22     1.0000 0.23260  0.16290  0.00000  Biso   1.000  Pd
  Pd23     1.0000 0.83710  0.23260  0.00000  Biso   1.000  Pd
  Pd24     1.0000 0.16290  0.76740  0.00000  Biso   1.000  Pd
  O251     1.0000 0.48000  0.46030  0.25620  Biso   1.000  O
  O252     1.0000 0.52000  0.53970  0.25620  Biso   1.000  O
  O253     1.0000 0.53970  0.48000  0.25620  Biso   1.000  O
  O254     1.0000 0.46030  0.52000  0.25620  Biso   1.000  O
  O255     1.0000 0.52000  0.46030  0.74380  Biso   1.000  O
  O256     1.0000 0.48000  0.53970  0.74380  Biso   1.000  O
  O257     1.0000 0.46030  0.48000  0.74380  Biso   1.000  O
  O258     1.0000 0.53970  0.52000  0.74380  Biso   1.000  O
  O259     1.0000 0.52000  0.53970  0.74380  Biso   1.000  O
  O260     1.0000 0.48000  0.46030  0.74380  Biso   1.000  O
  O261     1.0000 0.46030  0.52000  0.74380  Biso   1.000  O
  O262     1.0000 0.53970  0.48000  0.74380  Biso   1.000  O
  O263     1.0000 0.48000  0.53970  0.25620  Biso   1.000  O
  O264     1.0000 0.52000  0.46030  0.25620  Biso   1.000  O
  O265     1.0000 0.53970  0.52000  0.25620  Biso   1.000  O
  O266     1.0000 0.46030  0.48000  0.25620  Biso   1.000  O
  O267     1.0000 0.42040  0.61120  0.50000  Biso   1.000  O
  O268     1.0000 0.57960  0.38880  0.50000  Biso   1.000  O
  O269     1.0000 0.38880  0.42040  0.50000  Biso   1.000  O
  O270     1.0000 0.61120  0.57960  0.50000  Biso   1.000  O
  O271     1.0000 0.57960  0.61120  0.50000  Biso   1.000  O
  O272     1.0000 0.42040  0.38880  0.50000  Biso   1.000  O
  O273     1.0000 0.61120  0.42040  0.50000  Biso   1.000  O
  O274     1.0000 0.38880  0.57960  0.50000  Biso   1.000  O
