data_image0
_cell_length_a       35.794
_cell_length_b       35.794
_cell_length_c       15.063
_cell_angle_alpha    90
_cell_angle_beta     90
_cell_angle_gamma    90

_symmetry_space_group_name_H-M    "P 1"
_symmetry_int_tables_number       1

loop_
  _symmetry_equiv_pos_as_xyz
  'x, y, z'

loop_
  _atom_site_label
  _atom_site_occupancy
  _atom_site_fract_x
  _atom_site_fract_y
  _atom_site_fract_z
  _atom_site_thermal_displace_type
  _atom_site_B_iso_or_equiv
  _atom_site_type_symbol
  Pd1      1.0000 0.81420  0.61570  0.50000  Biso   1.000  Pd
  Pd2      1.0000 0.18580  0.38430  0.50000  Biso   1.000  Pd
  Pd3      1.0000 0.38430  0.81420  0.50000  Biso   1.000  Pd
  Pd4      1.0000 0.61570  0.18580  0.50000  Biso   1.000  Pd
  Pd5      1.0000 0.18580  0.61570  0.50000  Biso   1.000  Pd
  Pd6      1.0000 0.81420  0.38430  0.50000  Biso   1.000  Pd
  Pd7      1.0000 0.61570  0.81420  0.50000  Biso   1.000  Pd
  Pd8      1.0000 0.38430  0.18580  0.50000  Biso   1.000  Pd
  Pd9      1.0000 0.85150  0.53580  0.50000  Biso   1.000  Pd
  Pd10     1.0000 0.14850  0.46420  0.50000  Biso   1.000  Pd
  Pd11     1.0000 0.46420  0.85150  0.50000  Biso   1.000  Pd
  Pd12     1.0000 0.53580  0.14850  0.50000  Biso   1.000  Pd
  Pd13     1.0000 0.14850  0.53580  0.50000  Biso   1.000  Pd
  Pd14     1.0000 0.85150  0.46420  0.50000  Biso   1.000  Pd
  Pd15     1.0000 0.53580  0.85150  0.50000  Biso   1.000  Pd
  Pd16     1.0000 0.46420  0.14850  0.50000  Biso   1.000  Pd
  Cu1      1.0000 0.83328  0.50000  0.22759  Biso   1.000  Cu
  Cu2      1.0000 0.16672  0.50000  0.22759  Biso   1.000  Cu
  Cu3      1.0000 0.50000  0.83328  0.22759  Biso   1.000  Cu
  Cu4      1.0000 0.50000  0.16672  0.22759  Biso   1.000  Cu
  Cu5      1.0000 0.16672  0.50000  0.77241  Biso   1.000  Cu
  Cu6      1.0000 0.83328  0.50000  0.77241  Biso   1.000  Cu
  Cu7      1.0000 0.50000  0.83328  0.77241  Biso   1.000  Cu
  Cu8      1.0000 0.50000  0.16672  0.77241  Biso   1.000  Cu
  Cu9      1.0000 0.73932  0.73932  0.26654  Biso   1.000  Cu
  Cu10     1.0000 0.26068  0.26068  0.26654  Biso   1.000  Cu
  Cu11     1.0000 0.26068  0.73932  0.26654  Biso   1.000  Cu
  Cu12     1.0000 0.73932  0.26068  0.26654  Biso   1.000  Cu
  Cu13     1.0000 0.26068  0.73932  0.73346  Biso   1.000  Cu
  Cu14     1.0000 0.73932  0.26068  0.73346  Biso   1.000  Cu
  Cu15     1.0000 0.73932  0.73932  0.73346  Biso   1.000  Cu
  Cu16     1.0000 0.26068  0.26068  0.73346  Biso   1.000  Cu
  Cu17     1.0000 0.00000  0.65339  0.23295  Biso   1.000  Cu
  Cu18     1.0000 0.00000  0.34661  0.23295  Biso   1.000  Cu
  Cu19     1.0000 0.34661  0.00000  0.23295  Biso   1.000  Cu
  Cu20     1.0000 0.65339  0.00000  0.23295  Biso   1.000  Cu
  Cu21     1.0000 0.00000  0.65339  0.76705  Biso   1.000  Cu
  Cu22     1.0000 0.00000  0.34661  0.76705  Biso   1.000  Cu
  Cu23     1.0000 0.65339  0.00000  0.76705  Biso   1.000  Cu
  Cu24     1.0000 0.34661  0.00000  0.76705  Biso   1.000  Cu
  Ni1      1.0000 0.85242  0.64622  0.25326  Biso   1.000  Ni
  Ni2      1.0000 0.14758  0.35378  0.25326  Biso   1.000  Ni
  Ni3      1.0000 0.35378  0.85242  0.25326  Biso   1.000  Ni
  Ni4      1.0000 0.64622  0.14758  0.25326  Biso   1.000  Ni
  Ni5      1.0000 0.14758  0.64622  0.74674  Biso   1.000  Ni
  Ni6      1.0000 0.85242  0.35378  0.74674  Biso   1.000  Ni
  Ni7      1.0000 0.64622  0.85242  0.74674  Biso   1.000  Ni
  Ni8      1.0000 0.35378  0.14758  0.74674  Biso   1.000  Ni
  Ni9      1.0000 0.14758  0.35378  0.74674  Biso   1.000  Ni
  Ni10     1.0000 0.85242  0.64622  0.74674  Biso   1.000  Ni
  Ni11     1.0000 0.64622  0.14758  0.74674  Biso   1.000  Ni
  Ni12     1.0000 0.35378  0.85242  0.74674  Biso   1.000  Ni
  Ni13     1.0000 0.85242  0.35378  0.25326  Biso   1.000  Ni
  Ni14     1.0000 0.14758  0.64622  0.25326  Biso   1.000  Ni
  Ni15     1.0000 0.35378  0.14758  0.25326  Biso   1.000  Ni
  Ni16     1.0000 0.64622  0.85242  0.25326  Biso   1.000  Ni
  O1       1.0000 0.81820  0.60920  0.18080  Biso   1.000  O
  O2       1.0000 0.18180  0.39080  0.18080  Biso   1.000  O
  O3       1.0000 0.39080  0.81820  0.18080  Biso   1.000  O
  O4       1.0000 0.60920  0.18180  0.18080  Biso   1.000  O
  O5       1.0000 0.18180  0.60920  0.81920  Biso   1.000  O
  O6       1.0000 0.81820  0.39080  0.81920  Biso   1.000  O
  O7       1.0000 0.60920  0.81820  0.81920  Biso   1.000  O
  O8       1.0000 0.39080  0.18180  0.81920  Biso   1.000  O
  O9       1.0000 0.18180  0.39080  0.81920  Biso   1.000  O
  O10      1.0000 0.81820  0.60920  0.81920  Biso   1.000  O
  O11      1.0000 0.60920  0.18180  0.81920  Biso   1.000  O
  O12      1.0000 0.39080  0.81820  0.81920  Biso   1.000  O
  O13      1.0000 0.81820  0.39080  0.18080  Biso   1.000  O
  O14      1.0000 0.18180  0.60920  0.18080  Biso   1.000  O
  O15      1.0000 0.39080  0.18180  0.18080  Biso   1.000  O
  O16      1.0000 0.60920  0.81820  0.18080  Biso   1.000  O
  O17      1.0000 0.86500  0.59740  0.31910  Biso   1.000  O
  O18      1.0000 0.13500  0.40260  0.31910  Biso   1.000  O
  O19      1.0000 0.40260  0.86500  0.31910  Biso   1.000  O
  O20      1.0000 0.59740  0.13500  0.31910  Biso   1.000  O
  O21      1.0000 0.13500  0.59740  0.68090  Biso   1.000  O
  O22      1.0000 0.86500  0.40260  0.68090  Biso   1.000  O
  O23      1.0000 0.59740  0.86500  0.68090  Biso   1.000  O
  O24      1.0000 0.40260  0.13500  0.68090  Biso   1.000  O
  O25      1.0000 0.13500  0.40260  0.68090  Biso   1.000  O
  O26      1.0000 0.86500  0.59740  0.68090  Biso   1.000  O
  O27      1.0000 0.59740  0.13500  0.68090  Biso   1.000  O
  O28      1.0000 0.40260  0.86500  0.68090  Biso   1.000  O
  O29      1.0000 0.86500  0.40260  0.31910  Biso   1.000  O
  O30      1.0000 0.13500  0.59740  0.31910  Biso   1.000  O
  O31      1.0000 0.40260  0.13500  0.31910  Biso   1.000  O
  O32      1.0000 0.59740  0.86500  0.31910  Biso   1.000  O
  O33      1.0000 0.86030  0.53510  0.30350  Biso   1.000  O
  O34      1.0000 0.13970  0.46490  0.30350  Biso   1.000  O
  O35      1.0000 0.46490  0.86030  0.30350  Biso   1.000  O
  O36      1.0000 0.53510  0.13970  0.30350  Biso   1.000  O
  O37      1.0000 0.13970  0.53510  0.69650  Biso   1.000  O
  O38      1.0000 0.86030  0.46490  0.69650  Biso   1.000  O
  O39      1.0000 0.53510  0.86030  0.69650  Biso   1.000  O
  O40      1.0000 0.46490  0.13970  0.69650  Biso   1.000  O
  O41      1.0000 0.13970  0.46490  0.69650  Biso   1.000  O
  O42      1.0000 0.86030  0.53510  0.69650  Biso   1.000  O
  O43      1.0000 0.53510  0.13970  0.69650  Biso   1.000  O
  O44      1.0000 0.46490  0.86030  0.69650  Biso   1.000  O
  O45      1.0000 0.86030  0.46490  0.30350  Biso   1.000  O
  O46      1.0000 0.13970  0.53510  0.30350  Biso   1.000  O
  O47      1.0000 0.46490  0.13970  0.30350  Biso   1.000  O
  O48      1.0000 0.53510  0.86030  0.30350  Biso   1.000  O
  O49      1.0000 0.81120  0.66010  0.33720  Biso   1.000  O
  O50      1.0000 0.18880  0.33990  0.33720  Biso   1.000  O
  O51      1.0000 0.33990  0.81120  0.33720  Biso   1.000  O
  O52      1.0000 0.66010  0.18880  0.33720  Biso   1.000  O
  O53      1.0000 0.18880  0.66010  0.66280  Biso   1.000  O
  O54      1.0000 0.81120  0.33990  0.66280  Biso   1.000  O
  O55      1.0000 0.66010  0.81120  0.66280  Biso   1.000  O
  O56      1.0000 0.33990  0.18880  0.66280  Biso   1.000  O
  O57      1.0000 0.18880  0.33990  0.66280  Biso   1.000  O
  O58      1.0000 0.81120  0.66010  0.66280  Biso   1.000  O
  O59      1.0000 0.66010  0.18880  0.66280  Biso   1.000  O
  O60      1.0000 0.33990  0.81120  0.66280  Biso   1.000  O
  O61      1.0000 0.81120  0.33990  0.33720  Biso   1.000  O
  O62      1.0000 0.18880  0.66010  0.33720  Biso   1.000  O
  O63      1.0000 0.33990  0.18880  0.33720  Biso   1.000  O
  O64      1.0000 0.66010  0.81120  0.33720  Biso   1.000  O
  O65      1.0000 0.83420  0.69240  0.18820  Biso   1.000  O
  O66      1.0000 0.16580  0.30760  0.18820  Biso   1.000  O
  O67      1.0000 0.30760  0.83420  0.18820  Biso   1.000  O
  O68      1.0000 0.69240  0.16580  0.18820  Biso   1.000  O
  O69      1.0000 0.16580  0.69240  0.81180  Biso   1.000  O
  O70      1.0000 0.83420  0.30760  0.81180  Biso   1.000  O
  O71      1.0000 0.69240  0.83420  0.81180  Biso   1.000  O
  O72      1.0000 0.30760  0.16580  0.81180  Biso   1.000  O
  O73      1.0000 0.16580  0.30760  0.81180  Biso   1.000  O
  O74      1.0000 0.83420  0.69240  0.81180  Biso   1.000  O
  O75      1.0000 0.69240  0.16580  0.81180  Biso   1.000  O
  O76      1.0000 0.30760  0.83420  0.81180  Biso   1.000  O
  O77      1.0000 0.83420  0.30760  0.18820  Biso   1.000  O
  O78      1.0000 0.16580  0.69240  0.18820  Biso   1.000  O
  O79      1.0000 0.30760  0.16580  0.18820  Biso   1.000  O
  O80      1.0000 0.69240  0.83420  0.18820  Biso   1.000  O
  O81      1.0000 0.78410  0.73050  0.19290  Biso   1.000  O
  O82      1.0000 0.21590  0.26950  0.19290  Biso   1.000  O
  O83      1.0000 0.26950  0.78410  0.19290  Biso   1.000  O
  O84      1.0000 0.73050  0.21590  0.19290  Biso   1.000  O
  O85      1.0000 0.21590  0.73050  0.80710  Biso   1.000  O
  O86      1.0000 0.78410  0.26950  0.80710  Biso   1.000  O
  O87      1.0000 0.73050  0.78410  0.80710  Biso   1.000  O
  O88      1.0000 0.26950  0.21590  0.80710  Biso   1.000  O
  O89      1.0000 0.21590  0.26950  0.80710  Biso   1.000  O
  O90      1.0000 0.78410  0.73050  0.80710  Biso   1.000  O
  O91      1.0000 0.73050  0.21590  0.80710  Biso   1.000  O
  O92      1.0000 0.26950  0.78410  0.80710  Biso   1.000  O
  O93      1.0000 0.78410  0.26950  0.19290  Biso   1.000  O
  O94      1.0000 0.21590  0.73050  0.19290  Biso   1.000  O
  O95      1.0000 0.26950  0.21590  0.19290  Biso   1.000  O
  O96      1.0000 0.73050  0.78410  0.19290  Biso   1.000  O
  O97      1.0000 0.89540  0.67400  0.32090  Biso   1.000  O
  O98      1.0000 0.10460  0.32600  0.32090  Biso   1.000  O
  O99      1.0000 0.32600  0.89540  0.32090  Biso   1.000  O
  O100     1.0000 0.67400  0.10460  0.32090  Biso   1.000  O
  O101     1.0000 0.10460  0.67400  0.67910  Biso   1.000  O
  O102     1.0000 0.89540  0.32600  0.67910  Biso   1.000  O
  O103     1.0000 0.67400  0.89540  0.67910  Biso   1.000  O
  O104     1.0000 0.32600  0.10460  0.67910  Biso   1.000  O
  O105     1.0000 0.10460  0.32600  0.67910  Biso   1.000  O
  O106     1.0000 0.89540  0.67400  0.67910  Biso   1.000  O
  O107     1.0000 0.67400  0.10460  0.67910  Biso   1.000  O
  O108     1.0000 0.32600  0.89540  0.67910  Biso   1.000  O
  O109     1.0000 0.89540  0.32600  0.32090  Biso   1.000  O
  O110     1.0000 0.10460  0.67400  0.32090  Biso   1.000  O
  O111     1.0000 0.32600  0.10460  0.32090  Biso   1.000  O
  O112     1.0000 0.67400  0.89540  0.32090  Biso   1.000  O
  O113     1.0000 0.89370  0.63770  0.16520  Biso   1.000  O
  O114     1.0000 0.10630  0.36230  0.16520  Biso   1.000  O
  O115     1.0000 0.36230  0.89370  0.16520  Biso   1.000  O
  O116     1.0000 0.63770  0.10630  0.16520  Biso   1.000  O
  O117     1.0000 0.10630  0.63770  0.83480  Biso   1.000  O
  O118     1.0000 0.89370  0.36230  0.83480  Biso   1.000  O
  O119     1.0000 0.63770  0.89370  0.83480  Biso   1.000  O
  O120     1.0000 0.36230  0.10630  0.83480  Biso   1.000  O
  O121     1.0000 0.10630  0.36230  0.83480  Biso   1.000  O
  O122     1.0000 0.89370  0.63770  0.83480  Biso   1.000  O
  O123     1.0000 0.63770  0.10630  0.83480  Biso   1.000  O
  O124     1.0000 0.36230  0.89370  0.83480  Biso   1.000  O
  O125     1.0000 0.89370  0.36230  0.16520  Biso   1.000  O
  O126     1.0000 0.10630  0.63770  0.16520  Biso   1.000  O
  O127     1.0000 0.36230  0.10630  0.16520  Biso   1.000  O
  O128     1.0000 0.63770  0.89370  0.16520  Biso   1.000  O
  O129     1.0000 0.95930  0.67380  0.31070  Biso   1.000  O
  O130     1.0000 0.04070  0.32620  0.31070  Biso   1.000  O
  O131     1.0000 0.32620  0.95930  0.31070  Biso   1.000  O
  O132     1.0000 0.67380  0.04070  0.31070  Biso   1.000  O
  O133     1.0000 0.04070  0.67380  0.68930  Biso   1.000  O
  O134     1.0000 0.95930  0.32620  0.68930  Biso   1.000  O
  O135     1.0000 0.67380  0.95930  0.68930  Biso   1.000  O
  O136     1.0000 0.32620  0.04070  0.68930  Biso   1.000  O
  O137     1.0000 0.04070  0.32620  0.68930  Biso   1.000  O
  O138     1.0000 0.95930  0.67380  0.68930  Biso   1.000  O
  O139     1.0000 0.67380  0.04070  0.68930  Biso   1.000  O
  O140     1.0000 0.32620  0.95930  0.68930  Biso   1.000  O
  O141     1.0000 0.95930  0.32620  0.31070  Biso   1.000  O
  O142     1.0000 0.04070  0.67380  0.31070  Biso   1.000  O
  O143     1.0000 0.32620  0.04070  0.31070  Biso   1.000  O
  O144     1.0000 0.67380  0.95930  0.31070  Biso   1.000  O
  N1       1.0000 0.81680  0.54500  0.16140  Biso   1.000  N
  N2       1.0000 0.18320  0.45500  0.16140  Biso   1.000  N
  N3       1.0000 0.45500  0.81680  0.16140  Biso   1.000  N
  N4       1.0000 0.54500  0.18320  0.16140  Biso   1.000  N
  N5       1.0000 0.18320  0.54500  0.83860  Biso   1.000  N
  N6       1.0000 0.81680  0.45500  0.83860  Biso   1.000  N
  N7       1.0000 0.54500  0.81680  0.83860  Biso   1.000  N
  N8       1.0000 0.45500  0.18320  0.83860  Biso   1.000  N
  N9       1.0000 0.18320  0.45500  0.83860  Biso   1.000  N
  N10      1.0000 0.81680  0.54500  0.83860  Biso   1.000  N
  N11      1.0000 0.54500  0.18320  0.83860  Biso   1.000  N
  N12      1.0000 0.45500  0.81680  0.83860  Biso   1.000  N
  N13      1.0000 0.81680  0.45500  0.16140  Biso   1.000  N
  N14      1.0000 0.18320  0.54500  0.16140  Biso   1.000  N
  N15      1.0000 0.45500  0.18320  0.16140  Biso   1.000  N
  N16      1.0000 0.54500  0.81680  0.16140  Biso   1.000  N
  N17      1.0000 0.76010  0.69740  0.33900  Biso   1.000  N
  N18      1.0000 0.23990  0.30260  0.33900  Biso   1.000  N
  N19      1.0000 0.30260  0.76010  0.33900  Biso   1.000  N
  N20      1.0000 0.69740  0.23990  0.33900  Biso   1.000  N
  N21      1.0000 0.23990  0.69740  0.66100  Biso   1.000  N
  N22      1.0000 0.76010  0.30260  0.66100  Biso   1.000  N
  N23      1.0000 0.69740  0.76010  0.66100  Biso   1.000  N
  N24      1.0000 0.30260  0.23990  0.66100  Biso   1.000  N
  N25      1.0000 0.23990  0.30260  0.66100  Biso   1.000  N
  N26      1.0000 0.76010  0.69740  0.66100  Biso   1.000  N
  N27      1.0000 0.69740  0.23990  0.66100  Biso   1.000  N
  N28      1.0000 0.30260  0.76010  0.66100  Biso   1.000  N
  N29      1.0000 0.76010  0.30260  0.33900  Biso   1.000  N
  N30      1.0000 0.23990  0.69740  0.33900  Biso   1.000  N
  N31      1.0000 0.30260  0.23990  0.33900  Biso   1.000  N
  N32      1.0000 0.69740  0.76010  0.33900  Biso   1.000  N
  N33      1.0000 0.95710  0.63610  0.16280  Biso   1.000  N
  N34      1.0000 0.04290  0.36390  0.16280  Biso   1.000  N
  N35      1.0000 0.36390  0.95710  0.16280  Biso   1.000  N
  N36      1.0000 0.63610  0.04290  0.16280  Biso   1.000  N
  N37      1.0000 0.04290  0.63610  0.83720  Biso   1.000  N
  N38      1.0000 0.95710  0.36390  0.83720  Biso   1.000  N
  N39      1.0000 0.63610  0.95710  0.83720  Biso   1.000  N
  N40      1.0000 0.36390  0.04290  0.83720  Biso   1.000  N
  N41      1.0000 0.04290  0.36390  0.83720  Biso   1.000  N
  N42      1.0000 0.95710  0.63610  0.83720  Biso   1.000  N
  N43      1.0000 0.63610  0.04290  0.83720  Biso   1.000  N
  N44      1.0000 0.36390  0.95710  0.83720  Biso   1.000  N
  N45      1.0000 0.95710  0.36390  0.16280  Biso   1.000  N
  N46      1.0000 0.04290  0.63610  0.16280  Biso   1.000  N
  N47      1.0000 0.36390  0.04290  0.16280  Biso   1.000  N
  N48      1.0000 0.63610  0.95710  0.16280  Biso   1.000  N
  C1       1.0000 0.85190  0.56680  0.28230  Biso   1.000  C
  C2       1.0000 0.14810  0.43320  0.28230  Biso   1.000  C
  C3       1.0000 0.43320  0.85190  0.28230  Biso   1.000  C
  C4       1.0000 0.56680  0.14810  0.28230  Biso   1.000  C
  C5       1.0000 0.14810  0.56680  0.71770  Biso   1.000  C
  C6       1.0000 0.85190  0.43320  0.71770  Biso   1.000  C
  C7       1.0000 0.56680  0.85190  0.71770  Biso   1.000  C
  C8       1.0000 0.43320  0.14810  0.71770  Biso   1.000  C
  C9       1.0000 0.14810  0.43320  0.71770  Biso   1.000  C
  C10      1.0000 0.85190  0.56680  0.71770  Biso   1.000  C
  C11      1.0000 0.56680  0.14810  0.71770  Biso   1.000  C
  C12      1.0000 0.43320  0.85190  0.71770  Biso   1.000  C
  C13      1.0000 0.85190  0.43320  0.28230  Biso   1.000  C
  C14      1.0000 0.14810  0.56680  0.28230  Biso   1.000  C
  C15      1.0000 0.43320  0.14810  0.28230  Biso   1.000  C
  C16      1.0000 0.56680  0.85190  0.28230  Biso   1.000  C
  C17      1.0000 0.82550  0.57810  0.20040  Biso   1.000  C
  C18      1.0000 0.17450  0.42190  0.20040  Biso   1.000  C
  C19      1.0000 0.42190  0.82550  0.20040  Biso   1.000  C
  C20      1.0000 0.57810  0.17450  0.20040  Biso   1.000  C
  C21      1.0000 0.17450  0.57810  0.79960  Biso   1.000  C
  C22      1.0000 0.82550  0.42190  0.79960  Biso   1.000  C
  C23      1.0000 0.57810  0.82550  0.79960  Biso   1.000  C
  C24      1.0000 0.42190  0.17450  0.79960  Biso   1.000  C
  C25      1.0000 0.17450  0.42190  0.79960  Biso   1.000  C
  C26      1.0000 0.82550  0.57810  0.79960  Biso   1.000  C
  C27      1.0000 0.57810  0.17450  0.79960  Biso   1.000  C
  C28      1.0000 0.42190  0.82550  0.79960  Biso   1.000  C
  C29      1.0000 0.82550  0.42190  0.20040  Biso   1.000  C
  C30      1.0000 0.17450  0.57810  0.20040  Biso   1.000  C
  C31      1.0000 0.42190  0.17450  0.20040  Biso   1.000  C
  C32      1.0000 0.57810  0.82550  0.20040  Biso   1.000  C
  C33      1.0000 0.80300  0.70450  0.22120  Biso   1.000  C
  C34      1.0000 0.19700  0.29550  0.22120  Biso   1.000  C
  C35      1.0000 0.29550  0.80300  0.22120  Biso   1.000  C
  C36      1.0000 0.70450  0.19700  0.22120  Biso   1.000  C
  C37      1.0000 0.19700  0.70450  0.77880  Biso   1.000  C
  C38      1.0000 0.80300  0.29550  0.77880  Biso   1.000  C
  C39      1.0000 0.70450  0.80300  0.77880  Biso   1.000  C
  C40      1.0000 0.29550  0.19700  0.77880  Biso   1.000  C
  C41      1.0000 0.19700  0.29550  0.77880  Biso   1.000  C
  C42      1.0000 0.80300  0.70450  0.77880  Biso   1.000  C
  C43      1.0000 0.70450  0.19700  0.77880  Biso   1.000  C
  C44      1.0000 0.29550  0.80300  0.77880  Biso   1.000  C
  C45      1.0000 0.80300  0.29550  0.22120  Biso   1.000  C
  C46      1.0000 0.19700  0.70450  0.22120  Biso   1.000  C
  C47      1.0000 0.29550  0.19700  0.22120  Biso   1.000  C
  C48      1.0000 0.70450  0.80300  0.22120  Biso   1.000  C
  C49      1.0000 0.78970  0.68630  0.30740  Biso   1.000  C
  C50      1.0000 0.21030  0.31370  0.30740  Biso   1.000  C
  C51      1.0000 0.31370  0.78970  0.30740  Biso   1.000  C
  C52      1.0000 0.68630  0.21030  0.30740  Biso   1.000  C
  C53      1.0000 0.21030  0.68630  0.69260  Biso   1.000  C
  C54      1.0000 0.78970  0.31370  0.69260  Biso   1.000  C
  C55      1.0000 0.68630  0.78970  0.69260  Biso   1.000  C
  C56      1.0000 0.31370  0.21030  0.69260  Biso   1.000  C
  C57      1.0000 0.21030  0.31370  0.69260  Biso   1.000  C
  C58      1.0000 0.78970  0.68630  0.69260  Biso   1.000  C
  C59      1.0000 0.68630  0.21030  0.69260  Biso   1.000  C
  C60      1.0000 0.31370  0.78970  0.69260  Biso   1.000  C
  C61      1.0000 0.78970  0.31370  0.30740  Biso   1.000  C
  C62      1.0000 0.21030  0.68630  0.30740  Biso   1.000  C
  C63      1.0000 0.31370  0.21030  0.30740  Biso   1.000  C
  C64      1.0000 0.68630  0.78970  0.30740  Biso   1.000  C
  C65      1.0000 0.92430  0.64570  0.19840  Biso   1.000  C
  C66      1.0000 0.07570  0.35430  0.19840  Biso   1.000  C
  C67      1.0000 0.35430  0.92430  0.19840  Biso   1.000  C
  C68      1.0000 0.64570  0.07570  0.19840  Biso   1.000  C
  C69      1.0000 0.07570  0.64570  0.80160  Biso   1.000  C
  C70      1.0000 0.92430  0.35430  0.80160  Biso   1.000  C
  C71      1.0000 0.64570  0.92430  0.80160  Biso   1.000  C
  C72      1.0000 0.35430  0.07570  0.80160  Biso   1.000  C
  C73      1.0000 0.07570  0.35430  0.80160  Biso   1.000  C
  C74      1.0000 0.92430  0.64570  0.80160  Biso   1.000  C
  C75      1.0000 0.64570  0.07570  0.80160  Biso   1.000  C
  C76      1.0000 0.35430  0.92430  0.80160  Biso   1.000  C
  C77      1.0000 0.92430  0.35430  0.19840  Biso   1.000  C
  C78      1.0000 0.07570  0.64570  0.19840  Biso   1.000  C
  C79      1.0000 0.35430  0.07570  0.19840  Biso   1.000  C
  C80      1.0000 0.64570  0.92430  0.19840  Biso   1.000  C
  C81      1.0000 0.92710  0.66650  0.28230  Biso   1.000  C
  C82      1.0000 0.07290  0.33350  0.28230  Biso   1.000  C
  C83      1.0000 0.33350  0.92710  0.28230  Biso   1.000  C
  C84      1.0000 0.66650  0.07290  0.28230  Biso   1.000  C
  C85      1.0000 0.07290  0.66650  0.71770  Biso   1.000  C
  C86      1.0000 0.92710  0.33350  0.71770  Biso   1.000  C
  C87      1.0000 0.66650  0.92710  0.71770  Biso   1.000  C
  C88      1.0000 0.33350  0.07290  0.71770  Biso   1.000  C
  C89      1.0000 0.07290  0.33350  0.71770  Biso   1.000  C
  C90      1.0000 0.92710  0.66650  0.71770  Biso   1.000  C
  C91      1.0000 0.66650  0.07290  0.71770  Biso   1.000  C
  C92      1.0000 0.33350  0.92710  0.71770  Biso   1.000  C
  C93      1.0000 0.92710  0.33350  0.28230  Biso   1.000  C
  C94      1.0000 0.07290  0.66650  0.28230  Biso   1.000  C
  C95      1.0000 0.33350  0.07290  0.28230  Biso   1.000  C
  C96      1.0000 0.66650  0.92710  0.28230  Biso   1.000  C
  C97      1.0000 0.79590  0.54790  0.07880  Biso   1.000  C
  C98      1.0000 0.20410  0.45210  0.07880  Biso   1.000  C
  C99      1.0000 0.45210  0.79590  0.07880  Biso   1.000  C
  C100     1.0000 0.54790  0.20410  0.07880  Biso   1.000  C
  C101     1.0000 0.20410  0.54790  0.92120  Biso   1.000  C
  C102     1.0000 0.79590  0.45210  0.92120  Biso   1.000  C
  C103     1.0000 0.54790  0.79590  0.92120  Biso   1.000  C
  C104     1.0000 0.45210  0.20410  0.92120  Biso   1.000  C
  C105     1.0000 0.20410  0.45210  0.92120  Biso   1.000  C
  C106     1.0000 0.79590  0.54790  0.92120  Biso   1.000  C
  C107     1.0000 0.54790  0.20410  0.92120  Biso   1.000  C
  C108     1.0000 0.45210  0.79590  0.92120  Biso   1.000  C
  C109     1.0000 0.79590  0.45210  0.07880  Biso   1.000  C
  C110     1.0000 0.20410  0.54790  0.07880  Biso   1.000  C
  C111     1.0000 0.45210  0.20410  0.07880  Biso   1.000  C
  C112     1.0000 0.54790  0.79590  0.07880  Biso   1.000  C
  C113     1.0000 0.81780  0.54840  0.00000  Biso   1.000  C
  C114     1.0000 0.18220  0.45160  0.00000  Biso   1.000  C
  C115     1.0000 0.45160  0.81780  0.00000  Biso   1.000  C
  C116     1.0000 0.54840  0.18220  0.00000  Biso   1.000  C
  C117     1.0000 0.18220  0.54840  0.00000  Biso   1.000  C
  C118     1.0000 0.81780  0.45160  0.00000  Biso   1.000  C
  C119     1.0000 0.54840  0.81780  0.00000  Biso   1.000  C
  C120     1.0000 0.45160  0.18220  0.00000  Biso   1.000  C
  C121     1.0000 0.75750  0.54910  0.08210  Biso   1.000  C
  C122     1.0000 0.24250  0.45090  0.08210  Biso   1.000  C
  C123     1.0000 0.45090  0.75750  0.08210  Biso   1.000  C
  C124     1.0000 0.54910  0.24250  0.08210  Biso   1.000  C
  C125     1.0000 0.24250  0.54910  0.91790  Biso   1.000  C
  C126     1.0000 0.75750  0.45090  0.91790  Biso   1.000  C
  C127     1.0000 0.54910  0.75750  0.91790  Biso   1.000  C
  C128     1.0000 0.45090  0.24250  0.91790  Biso   1.000  C
  C129     1.0000 0.24250  0.45090  0.91790  Biso   1.000  C
  C130     1.0000 0.75750  0.54910  0.91790  Biso   1.000  C
  C131     1.0000 0.54910  0.24250  0.91790  Biso   1.000  C
  C132     1.0000 0.45090  0.75750  0.91790  Biso   1.000  C
  C133     1.0000 0.75750  0.45090  0.08210  Biso   1.000  C
  C134     1.0000 0.24250  0.54910  0.08210  Biso   1.000  C
  C135     1.0000 0.45090  0.24250  0.08210  Biso   1.000  C
  C136     1.0000 0.54910  0.75750  0.08210  Biso   1.000  C
  C137     1.0000 0.74090  0.54940  0.00000  Biso   1.000  C
  C138     1.0000 0.25910  0.45060  0.00000  Biso   1.000  C
  C139     1.0000 0.45060  0.74090  0.00000  Biso   1.000  C
  C140     1.0000 0.54940  0.25910  0.00000  Biso   1.000  C
  C141     1.0000 0.25910  0.54940  0.00000  Biso   1.000  C
  C142     1.0000 0.74090  0.45060  0.00000  Biso   1.000  C
  C143     1.0000 0.54940  0.74090  0.00000  Biso   1.000  C
  C144     1.0000 0.45060  0.25910  0.00000  Biso   1.000  C
  H1       1.0000 0.71440  0.54990  0.00000  Biso   1.000  H
  H2       1.0000 0.28560  0.45010  0.00000  Biso   1.000  H
  H3       1.0000 0.45010  0.71440  0.00000  Biso   1.000  H
  H4       1.0000 0.54990  0.28560  0.00000  Biso   1.000  H
  H5       1.0000 0.28560  0.54990  0.00000  Biso   1.000  H
  H6       1.0000 0.71440  0.45010  0.00000  Biso   1.000  H
  H7       1.0000 0.54990  0.71440  0.00000  Biso   1.000  H
  H8       1.0000 0.45010  0.28560  0.00000  Biso   1.000  H
  C145     1.0000 0.73510  0.55050  0.16690  Biso   1.000  C
  C146     1.0000 0.26490  0.44950  0.16690  Biso   1.000  C
  C147     1.0000 0.44950  0.73510  0.16690  Biso   1.000  C
  C148     1.0000 0.55050  0.26490  0.16690  Biso   1.000  C
  C149     1.0000 0.26490  0.55050  0.83310  Biso   1.000  C
  C150     1.0000 0.73510  0.44950  0.83310  Biso   1.000  C
  C151     1.0000 0.55050  0.73510  0.83310  Biso   1.000  C
  C152     1.0000 0.44950  0.26490  0.83310  Biso   1.000  C
  C153     1.0000 0.26490  0.44950  0.83310  Biso   1.000  C
  C154     1.0000 0.73510  0.55050  0.83310  Biso   1.000  C
  C155     1.0000 0.55050  0.26490  0.83310  Biso   1.000  C
  C156     1.0000 0.44950  0.73510  0.83310  Biso   1.000  C
  C157     1.0000 0.73510  0.44950  0.16690  Biso   1.000  C
  C158     1.0000 0.26490  0.55050  0.16690  Biso   1.000  C
  C159     1.0000 0.44950  0.26490  0.16690  Biso   1.000  C
  C160     1.0000 0.55050  0.73510  0.16690  Biso   1.000  C
  H9       1.0000 0.71940  0.52820  0.17120  Biso   1.000  H
  H10      1.0000 0.28060  0.47180  0.17120  Biso   1.000  H
  H11      1.0000 0.47180  0.71940  0.17120  Biso   1.000  H
  H12      1.0000 0.52820  0.28060  0.17120  Biso   1.000  H
  H13      1.0000 0.28060  0.52820  0.82880  Biso   1.000  H
  H14      1.0000 0.71940  0.47180  0.82880  Biso   1.000  H
  H15      1.0000 0.52820  0.71940  0.82880  Biso   1.000  H
  H16      1.0000 0.47180  0.28060  0.82880  Biso   1.000  H
  H17      1.0000 0.28060  0.47180  0.82880  Biso   1.000  H
  H18      1.0000 0.71940  0.52820  0.82880  Biso   1.000  H
  H19      1.0000 0.52820  0.28060  0.82880  Biso   1.000  H
  H20      1.0000 0.47180  0.71940  0.82880  Biso   1.000  H
  H21      1.0000 0.71940  0.47180  0.17120  Biso   1.000  H
  H22      1.0000 0.28060  0.52820  0.17120  Biso   1.000  H
  H23      1.0000 0.47180  0.28060  0.17120  Biso   1.000  H
  H24      1.0000 0.52820  0.71940  0.17120  Biso   1.000  H
  H25      1.0000 0.71930  0.57280  0.16680  Biso   1.000  H
  H26      1.0000 0.28070  0.42720  0.16680  Biso   1.000  H
  H27      1.0000 0.42720  0.71930  0.16680  Biso   1.000  H
  H28      1.0000 0.57280  0.28070  0.16680  Biso   1.000  H
  H29      1.0000 0.28070  0.57280  0.83320  Biso   1.000  H
  H30      1.0000 0.71930  0.42720  0.83320  Biso   1.000  H
  H31      1.0000 0.57280  0.71930  0.83320  Biso   1.000  H
  H32      1.0000 0.42720  0.28070  0.83320  Biso   1.000  H
  H33      1.0000 0.28070  0.42720  0.83320  Biso   1.000  H
  H34      1.0000 0.71930  0.57280  0.83320  Biso   1.000  H
  H35      1.0000 0.57280  0.28070  0.83320  Biso   1.000  H
  H36      1.0000 0.42720  0.71930  0.83320  Biso   1.000  H
  H37      1.0000 0.71930  0.42720  0.16680  Biso   1.000  H
  H38      1.0000 0.28070  0.57280  0.16680  Biso   1.000  H
  H39      1.0000 0.42720  0.28070  0.16680  Biso   1.000  H
  H40      1.0000 0.57280  0.71930  0.16680  Biso   1.000  H
  H41      1.0000 0.75210  0.55140  0.21780  Biso   1.000  H
  H42      1.0000 0.24790  0.44860  0.21780  Biso   1.000  H
  H43      1.0000 0.44860  0.75210  0.21780  Biso   1.000  H
  H44      1.0000 0.55140  0.24790  0.21780  Biso   1.000  H
  H45      1.0000 0.24790  0.55140  0.78220  Biso   1.000  H
  H46      1.0000 0.75210  0.44860  0.78220  Biso   1.000  H
  H47      1.0000 0.55140  0.75210  0.78220  Biso   1.000  H
  H48      1.0000 0.44860  0.24790  0.78220  Biso   1.000  H
  H49      1.0000 0.24790  0.44860  0.78220  Biso   1.000  H
  H50      1.0000 0.75210  0.55140  0.78220  Biso   1.000  H
  H51      1.0000 0.55140  0.24790  0.78220  Biso   1.000  H
  H52      1.0000 0.44860  0.75210  0.78220  Biso   1.000  H
  H53      1.0000 0.75210  0.44860  0.21780  Biso   1.000  H
  H54      1.0000 0.24790  0.55140  0.21780  Biso   1.000  H
  H55      1.0000 0.44860  0.24790  0.21780  Biso   1.000  H
  H56      1.0000 0.55140  0.75210  0.21780  Biso   1.000  H
  C161     1.0000 0.85860  0.54690  0.00000  Biso   1.000  C
  C162     1.0000 0.14140  0.45310  0.00000  Biso   1.000  C
  C163     1.0000 0.45310  0.85860  0.00000  Biso   1.000  C
  C164     1.0000 0.54690  0.14140  0.00000  Biso   1.000  C
  C165     1.0000 0.14140  0.54690  0.00000  Biso   1.000  C
  C166     1.0000 0.85860  0.45310  0.00000  Biso   1.000  C
  C167     1.0000 0.54690  0.85860  0.00000  Biso   1.000  C
  C168     1.0000 0.45310  0.14140  0.00000  Biso   1.000  C
  C169     1.0000 0.74730  0.68310  0.42170  Biso   1.000  C
  C170     1.0000 0.25270  0.31690  0.42170  Biso   1.000  C
  C171     1.0000 0.31690  0.74730  0.42170  Biso   1.000  C
  C172     1.0000 0.68310  0.25270  0.42170  Biso   1.000  C
  C173     1.0000 0.25270  0.68310  0.57830  Biso   1.000  C
  C174     1.0000 0.74730  0.31690  0.57830  Biso   1.000  C
  C175     1.0000 0.68310  0.74730  0.57830  Biso   1.000  C
  C176     1.0000 0.31690  0.25270  0.57830  Biso   1.000  C
  C177     1.0000 0.25270  0.31690  0.57830  Biso   1.000  C
  C178     1.0000 0.74730  0.68310  0.57830  Biso   1.000  C
  C179     1.0000 0.68310  0.25270  0.57830  Biso   1.000  C
  C180     1.0000 0.31690  0.74730  0.57830  Biso   1.000  C
  C181     1.0000 0.74730  0.31690  0.42170  Biso   1.000  C
  C182     1.0000 0.25270  0.68310  0.42170  Biso   1.000  C
  C183     1.0000 0.31690  0.25270  0.42170  Biso   1.000  C
  C184     1.0000 0.68310  0.74730  0.42170  Biso   1.000  C
  C185     1.0000 0.76140  0.69550  0.50000  Biso   1.000  C
  C186     1.0000 0.23860  0.30450  0.50000  Biso   1.000  C
  C187     1.0000 0.30450  0.76140  0.50000  Biso   1.000  C
  C188     1.0000 0.69550  0.23860  0.50000  Biso   1.000  C
  C189     1.0000 0.23860  0.69550  0.50000  Biso   1.000  C
  C190     1.0000 0.76140  0.30450  0.50000  Biso   1.000  C
  C191     1.0000 0.69550  0.76140  0.50000  Biso   1.000  C
  C192     1.0000 0.30450  0.23860  0.50000  Biso   1.000  C
  C193     1.0000 0.71950  0.65390  0.41960  Biso   1.000  C
  C194     1.0000 0.28050  0.34610  0.41960  Biso   1.000  C
  C195     1.0000 0.34610  0.71950  0.41960  Biso   1.000  C
  C196     1.0000 0.65390  0.28050  0.41960  Biso   1.000  C
  C197     1.0000 0.28050  0.65390  0.58040  Biso   1.000  C
  C198     1.0000 0.71950  0.34610  0.58040  Biso   1.000  C
  C199     1.0000 0.65390  0.71950  0.58040  Biso   1.000  C
  C200     1.0000 0.34610  0.28050  0.58040  Biso   1.000  C
  C201     1.0000 0.28050  0.34610  0.58040  Biso   1.000  C
  C202     1.0000 0.71950  0.65390  0.58040  Biso   1.000  C
  C203     1.0000 0.65390  0.28050  0.58040  Biso   1.000  C
  C204     1.0000 0.34610  0.71950  0.58040  Biso   1.000  C
  C205     1.0000 0.71950  0.34610  0.41960  Biso   1.000  C
  C206     1.0000 0.28050  0.65390  0.41960  Biso   1.000  C
  C207     1.0000 0.34610  0.28050  0.41960  Biso   1.000  C
  C208     1.0000 0.65390  0.71950  0.41960  Biso   1.000  C
  C209     1.0000 0.70850  0.64020  0.50000  Biso   1.000  C
  C210     1.0000 0.29150  0.35980  0.50000  Biso   1.000  C
  C211     1.0000 0.35980  0.70850  0.50000  Biso   1.000  C
  C212     1.0000 0.64020  0.29150  0.50000  Biso   1.000  C
  C213     1.0000 0.29150  0.64020  0.50000  Biso   1.000  C
  C214     1.0000 0.70850  0.35980  0.50000  Biso   1.000  C
  C215     1.0000 0.64020  0.70850  0.50000  Biso   1.000  C
  C216     1.0000 0.35980  0.29150  0.50000  Biso   1.000  C
  H57      1.0000 0.69190  0.61950  0.50000  Biso   1.000  H
  H58      1.0000 0.30810  0.38050  0.50000  Biso   1.000  H
  H59      1.0000 0.38050  0.69190  0.50000  Biso   1.000  H
  H60      1.0000 0.61950  0.30810  0.50000  Biso   1.000  H
  H61      1.0000 0.30810  0.61950  0.50000  Biso   1.000  H
  H62      1.0000 0.69190  0.38050  0.50000  Biso   1.000  H
  H63      1.0000 0.61950  0.69190  0.50000  Biso   1.000  H
  H64      1.0000 0.38050  0.30810  0.50000  Biso   1.000  H
  C217     1.0000 0.70830  0.63420  0.33050  Biso   1.000  C
  C218     1.0000 0.29170  0.36580  0.33050  Biso   1.000  C
  C219     1.0000 0.36580  0.70830  0.33050  Biso   1.000  C
  C220     1.0000 0.63420  0.29170  0.33050  Biso   1.000  C
  C221     1.0000 0.29170  0.63420  0.66950  Biso   1.000  C
  C222     1.0000 0.70830  0.36580  0.66950  Biso   1.000  C
  C223     1.0000 0.63420  0.70830  0.66950  Biso   1.000  C
  C224     1.0000 0.36580  0.29170  0.66950  Biso   1.000  C
  C225     1.0000 0.29170  0.36580  0.66950  Biso   1.000  C
  C226     1.0000 0.70830  0.63420  0.66950  Biso   1.000  C
  C227     1.0000 0.63420  0.29170  0.66950  Biso   1.000  C
  C228     1.0000 0.36580  0.70830  0.66950  Biso   1.000  C
  C229     1.0000 0.70830  0.36580  0.33050  Biso   1.000  C
  C230     1.0000 0.29170  0.63420  0.33050  Biso   1.000  C
  C231     1.0000 0.36580  0.29170  0.33050  Biso   1.000  C
  C232     1.0000 0.63420  0.70830  0.33050  Biso   1.000  C
  H65      1.0000 0.69010  0.61440  0.34270  Biso   1.000  H
  H66      1.0000 0.30990  0.38560  0.34270  Biso   1.000  H
  H67      1.0000 0.38560  0.69010  0.34270  Biso   1.000  H
  H68      1.0000 0.61440  0.30990  0.34270  Biso   1.000  H
  H69      1.0000 0.30990  0.61440  0.65730  Biso   1.000  H
  H70      1.0000 0.69010  0.38560  0.65730  Biso   1.000  H
  H71      1.0000 0.61440  0.69010  0.65730  Biso   1.000  H
  H72      1.0000 0.38560  0.30990  0.65730  Biso   1.000  H
  H73      1.0000 0.30990  0.38560  0.65730  Biso   1.000  H
  H74      1.0000 0.69010  0.61440  0.65730  Biso   1.000  H
  H75      1.0000 0.61440  0.30990  0.65730  Biso   1.000  H
  H76      1.0000 0.38560  0.69010  0.65730  Biso   1.000  H
  H77      1.0000 0.69010  0.38560  0.34270  Biso   1.000  H
  H78      1.0000 0.30990  0.61440  0.34270  Biso   1.000  H
  H79      1.0000 0.38560  0.30990  0.34270  Biso   1.000  H
  H80      1.0000 0.61440  0.69010  0.34270  Biso   1.000  H
  H81      1.0000 0.73060  0.62320  0.30310  Biso   1.000  H
  H82      1.0000 0.26940  0.37680  0.30310  Biso   1.000  H
  H83      1.0000 0.37680  0.73060  0.30310  Biso   1.000  H
  H84      1.0000 0.62320  0.26940  0.30310  Biso   1.000  H
  H85      1.0000 0.26940  0.62320  0.69690  Biso   1.000  H
  H86      1.0000 0.73060  0.37680  0.69690  Biso   1.000  H
  H87      1.0000 0.62320  0.73060  0.69690  Biso   1.000  H
  H88      1.0000 0.37680  0.26940  0.69690  Biso   1.000  H
  H89      1.0000 0.26940  0.37680  0.69690  Biso   1.000  H
  H90      1.0000 0.73060  0.62320  0.69690  Biso   1.000  H
  H91      1.0000 0.62320  0.26940  0.69690  Biso   1.000  H
  H92      1.0000 0.37680  0.73060  0.69690  Biso   1.000  H
  H93      1.0000 0.73060  0.37680  0.30310  Biso   1.000  H
  H94      1.0000 0.26940  0.62320  0.30310  Biso   1.000  H
  H95      1.0000 0.37680  0.26940  0.30310  Biso   1.000  H
  H96      1.0000 0.62320  0.73060  0.30310  Biso   1.000  H
  H97      1.0000 0.69730  0.65260  0.29000  Biso   1.000  H
  H98      1.0000 0.30270  0.34740  0.29000  Biso   1.000  H
  H99      1.0000 0.34740  0.69730  0.29000  Biso   1.000  H
  H100     1.0000 0.65260  0.30270  0.29000  Biso   1.000  H
  H101     1.0000 0.30270  0.65260  0.71000  Biso   1.000  H
  H102     1.0000 0.69730  0.34740  0.71000  Biso   1.000  H
  H103     1.0000 0.65260  0.69730  0.71000  Biso   1.000  H
  H104     1.0000 0.34740  0.30270  0.71000  Biso   1.000  H
  H105     1.0000 0.30270  0.34740  0.71000  Biso   1.000  H
  H106     1.0000 0.69730  0.65260  0.71000  Biso   1.000  H
  H107     1.0000 0.65260  0.30270  0.71000  Biso   1.000  H
  H108     1.0000 0.34740  0.69730  0.71000  Biso   1.000  H
  H109     1.0000 0.69730  0.34740  0.29000  Biso   1.000  H
  H110     1.0000 0.30270  0.65260  0.29000  Biso   1.000  H
  H111     1.0000 0.34740  0.30270  0.29000  Biso   1.000  H
  H112     1.0000 0.65260  0.69730  0.29000  Biso   1.000  H
  C233     1.0000 0.79200  0.72660  0.50000  Biso   1.000  C
  C234     1.0000 0.20800  0.27340  0.50000  Biso   1.000  C
  C235     1.0000 0.27340  0.79200  0.50000  Biso   1.000  C
  C236     1.0000 0.72660  0.20800  0.50000  Biso   1.000  C
  C237     1.0000 0.20800  0.72660  0.50000  Biso   1.000  C
  C238     1.0000 0.79200  0.27340  0.50000  Biso   1.000  C
  C239     1.0000 0.72660  0.79200  0.50000  Biso   1.000  C
  C240     1.0000 0.27340  0.20800  0.50000  Biso   1.000  C
  C241     1.0000 0.95450  0.61560  0.07660  Biso   1.000  C
  C242     1.0000 0.04550  0.38440  0.07660  Biso   1.000  C
  C243     1.0000 0.38440  0.95450  0.07660  Biso   1.000  C
  C244     1.0000 0.61560  0.04550  0.07660  Biso   1.000  C
  C245     1.0000 0.04550  0.61560  0.92340  Biso   1.000  C
  C246     1.0000 0.95450  0.38440  0.92340  Biso   1.000  C
  C247     1.0000 0.61560  0.95450  0.92340  Biso   1.000  C
  C248     1.0000 0.38440  0.04550  0.92340  Biso   1.000  C
  C249     1.0000 0.04550  0.38440  0.92340  Biso   1.000  C
  C250     1.0000 0.95450  0.61560  0.92340  Biso   1.000  C
  C251     1.0000 0.61560  0.04550  0.92340  Biso   1.000  C
  C252     1.0000 0.38440  0.95450  0.92340  Biso   1.000  C
  C253     1.0000 0.95450  0.38440  0.07660  Biso   1.000  C
  C254     1.0000 0.04550  0.61560  0.07660  Biso   1.000  C
  C255     1.0000 0.38440  0.04550  0.07660  Biso   1.000  C
  C256     1.0000 0.61560  0.95450  0.07660  Biso   1.000  C
  C257     1.0000 0.95240  0.57680  0.08320  Biso   1.000  C
  C258     1.0000 0.04760  0.42320  0.08320  Biso   1.000  C
  C259     1.0000 0.42320  0.95240  0.08320  Biso   1.000  C
  C260     1.0000 0.57680  0.04760  0.08320  Biso   1.000  C
  C261     1.0000 0.04760  0.57680  0.91680  Biso   1.000  C
  C262     1.0000 0.95240  0.42320  0.91680  Biso   1.000  C
  C263     1.0000 0.57680  0.95240  0.91680  Biso   1.000  C
  C264     1.0000 0.42320  0.04760  0.91680  Biso   1.000  C
  C265     1.0000 0.04760  0.42320  0.91680  Biso   1.000  C
  C266     1.0000 0.95240  0.57680  0.91680  Biso   1.000  C
  C267     1.0000 0.57680  0.04760  0.91680  Biso   1.000  C
  C268     1.0000 0.42320  0.95240  0.91680  Biso   1.000  C
  C269     1.0000 0.95240  0.42320  0.08320  Biso   1.000  C
  C270     1.0000 0.04760  0.57680  0.08320  Biso   1.000  C
  C271     1.0000 0.42320  0.04760  0.08320  Biso   1.000  C
  C272     1.0000 0.57680  0.95240  0.08320  Biso   1.000  C
  C273     1.0000 0.95130  0.56020  0.00000  Biso   1.000  C
  C274     1.0000 0.04870  0.43980  0.00000  Biso   1.000  C
  C275     1.0000 0.43980  0.95130  0.00000  Biso   1.000  C
  C276     1.0000 0.56020  0.04870  0.00000  Biso   1.000  C
  C277     1.0000 0.04870  0.56020  0.00000  Biso   1.000  C
  C278     1.0000 0.95130  0.43980  0.00000  Biso   1.000  C
  C279     1.0000 0.56020  0.95130  0.00000  Biso   1.000  C
  C280     1.0000 0.43980  0.04870  0.00000  Biso   1.000  C
  H113     1.0000 0.94970  0.53370  0.00000  Biso   1.000  H
  H114     1.0000 0.05030  0.46630  0.00000  Biso   1.000  H
  H115     1.0000 0.46630  0.94970  0.00000  Biso   1.000  H
  H116     1.0000 0.53370  0.05030  0.00000  Biso   1.000  H
  H117     1.0000 0.05030  0.53370  0.00000  Biso   1.000  H
  H118     1.0000 0.94970  0.46630  0.00000  Biso   1.000  H
  H119     1.0000 0.53370  0.94970  0.00000  Biso   1.000  H
  H120     1.0000 0.46630  0.05030  0.00000  Biso   1.000  H
  C281     1.0000 0.95530  0.63690  0.00000  Biso   1.000  C
  C282     1.0000 0.04470  0.36310  0.00000  Biso   1.000  C
  C283     1.0000 0.36310  0.95530  0.00000  Biso   1.000  C
  C284     1.0000 0.63690  0.04470  0.00000  Biso   1.000  C
  C285     1.0000 0.04470  0.63690  0.00000  Biso   1.000  C
  C286     1.0000 0.95530  0.36310  0.00000  Biso   1.000  C
  C287     1.0000 0.63690  0.95530  0.00000  Biso   1.000  C
  C288     1.0000 0.36310  0.04470  0.00000  Biso   1.000  C
  C289     1.0000 0.95460  0.67990  0.00000  Biso   1.000  C
  C290     1.0000 0.04540  0.32010  0.00000  Biso   1.000  C
  C291     1.0000 0.32010  0.95460  0.00000  Biso   1.000  C
  C292     1.0000 0.67990  0.04540  0.00000  Biso   1.000  C
  C293     1.0000 0.04540  0.67990  0.00000  Biso   1.000  C
  C294     1.0000 0.95460  0.32010  0.00000  Biso   1.000  C
  C295     1.0000 0.67990  0.95460  0.00000  Biso   1.000  C
  C296     1.0000 0.32010  0.04540  0.00000  Biso   1.000  C
  C297     1.0000 0.94950  0.55740  0.16820  Biso   1.000  C
  C298     1.0000 0.05050  0.44260  0.16820  Biso   1.000  C
  C299     1.0000 0.44260  0.94950  0.16820  Biso   1.000  C
  C300     1.0000 0.55740  0.05050  0.16820  Biso   1.000  C
  C301     1.0000 0.05050  0.55740  0.83180  Biso   1.000  C
  C302     1.0000 0.94950  0.44260  0.83180  Biso   1.000  C
  C303     1.0000 0.55740  0.94950  0.83180  Biso   1.000  C
  C304     1.0000 0.44260  0.05050  0.83180  Biso   1.000  C
  C305     1.0000 0.05050  0.44260  0.83180  Biso   1.000  C
  C306     1.0000 0.94950  0.55740  0.83180  Biso   1.000  C
  C307     1.0000 0.55740  0.05050  0.83180  Biso   1.000  C
  C308     1.0000 0.44260  0.94950  0.83180  Biso   1.000  C
  C309     1.0000 0.94950  0.44260  0.16820  Biso   1.000  C
  C310     1.0000 0.05050  0.55740  0.16820  Biso   1.000  C
  C311     1.0000 0.44260  0.05050  0.16820  Biso   1.000  C
  C312     1.0000 0.55740  0.94950  0.16820  Biso   1.000  C
  H121     1.0000 0.92580  0.56400  0.19670  Biso   1.000  H
  H122     1.0000 0.07420  0.43600  0.19670  Biso   1.000  H
  H123     1.0000 0.43600  0.92580  0.19670  Biso   1.000  H
  H124     1.0000 0.56400  0.07420  0.19670  Biso   1.000  H
  H125     1.0000 0.07420  0.56400  0.80330  Biso   1.000  H
  H126     1.0000 0.92580  0.43600  0.80330  Biso   1.000  H
  H127     1.0000 0.56400  0.92580  0.80330  Biso   1.000  H
  H128     1.0000 0.43600  0.07420  0.80330  Biso   1.000  H
  H129     1.0000 0.07420  0.43600  0.80330  Biso   1.000  H
  H130     1.0000 0.92580  0.56400  0.80330  Biso   1.000  H
  H131     1.0000 0.56400  0.07420  0.80330  Biso   1.000  H
  H132     1.0000 0.43600  0.92580  0.80330  Biso   1.000  H
  H133     1.0000 0.92580  0.43600  0.19670  Biso   1.000  H
  H134     1.0000 0.07420  0.56400  0.19670  Biso   1.000  H
  H135     1.0000 0.43600  0.07420  0.19670  Biso   1.000  H
  H136     1.0000 0.56400  0.92580  0.19670  Biso   1.000  H
  H137     1.0000 0.97030  0.56500  0.20660  Biso   1.000  H
  H138     1.0000 0.02970  0.43500  0.20660  Biso   1.000  H
  H139     1.0000 0.43500  0.97030  0.20660  Biso   1.000  H
  H140     1.0000 0.56500  0.02970  0.20660  Biso   1.000  H
  H141     1.0000 0.02970  0.56500  0.79340  Biso   1.000  H
  H142     1.0000 0.97030  0.43500  0.79340  Biso   1.000  H
  H143     1.0000 0.56500  0.97030  0.79340  Biso   1.000  H
  H144     1.0000 0.43500  0.02970  0.79340  Biso   1.000  H
  H145     1.0000 0.02970  0.43500  0.79340  Biso   1.000  H
  H146     1.0000 0.97030  0.56500  0.79340  Biso   1.000  H
  H147     1.0000 0.56500  0.02970  0.79340  Biso   1.000  H
  H148     1.0000 0.43500  0.97030  0.79340  Biso   1.000  H
  H149     1.0000 0.97030  0.43500  0.20660  Biso   1.000  H
  H150     1.0000 0.02970  0.56500  0.20660  Biso   1.000  H
  H151     1.0000 0.43500  0.02970  0.20660  Biso   1.000  H
  H152     1.0000 0.56500  0.97030  0.20660  Biso   1.000  H
  H153     1.0000 0.95050  0.53040  0.15840  Biso   1.000  H
  H154     1.0000 0.04950  0.46960  0.15840  Biso   1.000  H
  H155     1.0000 0.46960  0.95050  0.15840  Biso   1.000  H
  H156     1.0000 0.53040  0.04950  0.15840  Biso   1.000  H
  H157     1.0000 0.04950  0.53040  0.84160  Biso   1.000  H
  H158     1.0000 0.95050  0.46960  0.84160  Biso   1.000  H
  H159     1.0000 0.53040  0.95050  0.84160  Biso   1.000  H
  H160     1.0000 0.46960  0.04950  0.84160  Biso   1.000  H
  H161     1.0000 0.04950  0.46960  0.84160  Biso   1.000  H
  H162     1.0000 0.95050  0.53040  0.84160  Biso   1.000  H
  H163     1.0000 0.53040  0.04950  0.84160  Biso   1.000  H
  H164     1.0000 0.46960  0.95050  0.84160  Biso   1.000  H
  H165     1.0000 0.95050  0.46960  0.15840  Biso   1.000  H
  H166     1.0000 0.04950  0.53040  0.15840  Biso   1.000  H
  H167     1.0000 0.46960  0.04950  0.15840  Biso   1.000  H
  H168     1.0000 0.53040  0.95050  0.15840  Biso   1.000  H
  O145     1.0000 0.70540  0.70540  0.15030  Biso   1.000  O
  O146     1.0000 0.29460  0.29460  0.15030  Biso   1.000  O
  O147     1.0000 0.29460  0.70540  0.15030  Biso   1.000  O
  O148     1.0000 0.70540  0.29460  0.15030  Biso   1.000  O
  O149     1.0000 0.29460  0.70540  0.84970  Biso   1.000  O
  O150     1.0000 0.70540  0.29460  0.84970  Biso   1.000  O
  O151     1.0000 0.70540  0.70540  0.84970  Biso   1.000  O
  O152     1.0000 0.29460  0.29460  0.84970  Biso   1.000  O
  O153     1.0000 0.00000  0.60220  0.35260  Biso   1.000  O
  O154     1.0000 0.00000  0.39780  0.35260  Biso   1.000  O
  O155     1.0000 0.39780  0.00000  0.35260  Biso   1.000  O
  O156     1.0000 0.60220  0.00000  0.35260  Biso   1.000  O
  O157     1.0000 0.00000  0.60220  0.64740  Biso   1.000  O
  O158     1.0000 0.00000  0.39780  0.64740  Biso   1.000  O
  O159     1.0000 0.60220  0.00000  0.64740  Biso   1.000  O
  O160     1.0000 0.39780  0.00000  0.64740  Biso   1.000  O
  O161     1.0000 0.78560  0.50000  0.35110  Biso   1.000  O
  O162     1.0000 0.21440  0.50000  0.35110  Biso   1.000  O
  O163     1.0000 0.50000  0.78560  0.35110  Biso   1.000  O
  O164     1.0000 0.50000  0.21440  0.35110  Biso   1.000  O
  O165     1.0000 0.21440  0.50000  0.64890  Biso   1.000  O
  O166     1.0000 0.78560  0.50000  0.64890  Biso   1.000  O
  O167     1.0000 0.50000  0.78560  0.64890  Biso   1.000  O
  O168     1.0000 0.50000  0.21440  0.64890  Biso   1.000  O
  O169     1.0000 0.00000  0.72680  0.18930  Biso   1.000  O
  O170     1.0000 0.00000  0.27320  0.18930  Biso   1.000  O
  O171     1.0000 0.27320  0.00000  0.18930  Biso   1.000  O
  O172     1.0000 0.72680  0.00000  0.18930  Biso   1.000  O
  O173     1.0000 0.00000  0.72680  0.81070  Biso   1.000  O
  O174     1.0000 0.00000  0.27320  0.81070  Biso   1.000  O
  O175     1.0000 0.72680  0.00000  0.81070  Biso   1.000  O
  O176     1.0000 0.27320  0.00000  0.81070  Biso   1.000  O
  Na1      1.0000 0.77410  0.77410  0.07000  Biso   1.000  Na
  Na2      1.0000 0.22590  0.22590  0.07000  Biso   1.000  Na
  Na3      1.0000 0.22590  0.77410  0.07000  Biso   1.000  Na
  Na4      1.0000 0.77410  0.22590  0.07000  Biso   1.000  Na
  Na5      1.0000 0.22590  0.77410  0.93000  Biso   1.000  Na
  Na6      1.0000 0.77410  0.22590  0.93000  Biso   1.000  Na
  Na7      1.0000 0.77410  0.77410  0.93000  Biso   1.000  Na
  Na8      1.0000 0.22590  0.22590  0.93000  Biso   1.000  Na
  Na9      1.0000 0.86030  0.65780  0.00000  Biso   1.000  Na
  Na10     1.0000 0.13970  0.34220  0.00000  Biso   1.000  Na
  Na11     1.0000 0.34220  0.86030  0.00000  Biso   1.000  Na
  Na12     1.0000 0.65780  0.13970  0.00000  Biso   1.000  Na
  Na13     1.0000 0.13970  0.65780  0.00000  Biso   1.000  Na
  Na14     1.0000 0.86030  0.34220  0.00000  Biso   1.000  Na
  Na15     1.0000 0.65780  0.86030  0.00000  Biso   1.000  Na
  Na16     1.0000 0.34220  0.13970  0.00000  Biso   1.000  Na
  O177     1.0000 0.81790  0.81790  0.13990  Biso   1.000  O
  O178     1.0000 0.18210  0.18210  0.13990  Biso   1.000  O
  O179     1.0000 0.18210  0.81790  0.13990  Biso   1.000  O
  O180     1.0000 0.81790  0.18210  0.13990  Biso   1.000  O
  O181     1.0000 0.18210  0.81790  0.86010  Biso   1.000  O
  O182     1.0000 0.81790  0.18210  0.86010  Biso   1.000  O
  O183     1.0000 0.81790  0.81790  0.86010  Biso   1.000  O
  O184     1.0000 0.18210  0.18210  0.86010  Biso   1.000  O
  O185     1.0000 0.80550  0.71740  0.00000  Biso   1.000  O
  O186     1.0000 0.19450  0.28260  0.00000  Biso   1.000  O
  O187     1.0000 0.28260  0.80550  0.00000  Biso   1.000  O
  O188     1.0000 0.71740  0.19450  0.00000  Biso   1.000  O
  O189     1.0000 0.19450  0.71740  0.00000  Biso   1.000  O
  O190     1.0000 0.80550  0.28260  0.00000  Biso   1.000  O
  O191     1.0000 0.71740  0.80550  0.00000  Biso   1.000  O
  O192     1.0000 0.28260  0.19450  0.00000  Biso   1.000  O
  Pd17     1.0000 0.88620  0.67510  0.50000  Biso   1.000  Pd
  Pd18     1.0000 0.11380  0.32490  0.50000  Biso   1.000  Pd
  Pd19     1.0000 0.32490  0.88620  0.50000  Biso   1.000  Pd
  Pd20     1.0000 0.67510  0.11380  0.50000  Biso   1.000  Pd
  Pd21     1.0000 0.11380  0.67510  0.50000  Biso   1.000  Pd
  Pd22     1.0000 0.88620  0.32490  0.50000  Biso   1.000  Pd
  Pd23     1.0000 0.67510  0.88620  0.50000  Biso   1.000  Pd
  Pd24     1.0000 0.32490  0.11380  0.50000  Biso   1.000  Pd
  Pd25     1.0000 0.96590  0.69110  0.50000  Biso   1.000  Pd
  Pd26     1.0000 0.03410  0.30890  0.50000  Biso   1.000  Pd
  Pd27     1.0000 0.30890  0.96590  0.50000  Biso   1.000  Pd
  Pd28     1.0000 0.69110  0.03410  0.50000  Biso   1.000  Pd
  Pd29     1.0000 0.03410  0.69110  0.50000  Biso   1.000  Pd
  Pd30     1.0000 0.96590  0.30890  0.50000  Biso   1.000  Pd
  Pd31     1.0000 0.69110  0.96590  0.50000  Biso   1.000  Pd
  Pd32     1.0000 0.30890  0.03410  0.50000  Biso   1.000  Pd
  O193     1.0000 0.92310  0.50000  0.41200  Biso   1.000  O
  O194     1.0000 0.07690  0.50000  0.41200  Biso   1.000  O
  O195     1.0000 0.50000  0.92310  0.41200  Biso   1.000  O
  O196     1.0000 0.50000  0.07690  0.41200  Biso   1.000  O
  O197     1.0000 0.07690  0.50000  0.58800  Biso   1.000  O
  O198     1.0000 0.92310  0.50000  0.58800  Biso   1.000  O
  O199     1.0000 0.50000  0.92310  0.58800  Biso   1.000  O
  O200     1.0000 0.50000  0.07690  0.58800  Biso   1.000  O
  O201     1.0000 0.75640  0.64250  0.10750  Biso   1.000  O
  O202     1.0000 0.24360  0.35750  0.10750  Biso   1.000  O
  O203     1.0000 0.35750  0.75640  0.10750  Biso   1.000  O
  O204     1.0000 0.64250  0.24360  0.10750  Biso   1.000  O
  O205     1.0000 0.24360  0.64250  0.89250  Biso   1.000  O
  O206     1.0000 0.75640  0.35750  0.89250  Biso   1.000  O
  O207     1.0000 0.64250  0.75640  0.89250  Biso   1.000  O
  O208     1.0000 0.35750  0.24360  0.89250  Biso   1.000  O
  O209     1.0000 0.24360  0.35750  0.89250  Biso   1.000  O
  O210     1.0000 0.75640  0.64250  0.89250  Biso   1.000  O
  O211     1.0000 0.64250  0.24360  0.89250  Biso   1.000  O
  O212     1.0000 0.35750  0.75640  0.89250  Biso   1.000  O
  O213     1.0000 0.75640  0.35750  0.10750  Biso   1.000  O
  O214     1.0000 0.24360  0.64250  0.10750  Biso   1.000  O
  O215     1.0000 0.35750  0.24360  0.10750  Biso   1.000  O
  O216     1.0000 0.64250  0.75640  0.10750  Biso   1.000  O
  O217     1.0000 0.93230  0.56890  0.40640  Biso   1.000  O
  O218     1.0000 0.06770  0.43110  0.40640  Biso   1.000  O
  O219     1.0000 0.43110  0.93230  0.40640  Biso   1.000  O
  O220     1.0000 0.56890  0.06770  0.40640  Biso   1.000  O
  O221     1.0000 0.06770  0.56890  0.59360  Biso   1.000  O
  O222     1.0000 0.93230  0.43110  0.59360  Biso   1.000  O
  O223     1.0000 0.56890  0.93230  0.59360  Biso   1.000  O
  O224     1.0000 0.43110  0.06770  0.59360  Biso   1.000  O
  O225     1.0000 0.06770  0.43110  0.59360  Biso   1.000  O
  O226     1.0000 0.93230  0.56890  0.59360  Biso   1.000  O
  O227     1.0000 0.56890  0.06770  0.59360  Biso   1.000  O
  O228     1.0000 0.43110  0.93230  0.59360  Biso   1.000  O
  O229     1.0000 0.93230  0.43110  0.40640  Biso   1.000  O
  O230     1.0000 0.06770  0.56890  0.40640  Biso   1.000  O
  O231     1.0000 0.43110  0.06770  0.40640  Biso   1.000  O
  O232     1.0000 0.56890  0.93230  0.40640  Biso   1.000  O
  O233     1.0000 0.87750  0.74310  0.09100  Biso   1.000  O
  O234     1.0000 0.12250  0.25690  0.09100  Biso   1.000  O
  O235     1.0000 0.25690  0.87750  0.09100  Biso   1.000  O
  O236     1.0000 0.74310  0.12250  0.09100  Biso   1.000  O
  O237     1.0000 0.12250  0.74310  0.90900  Biso   1.000  O
  O238     1.0000 0.87750  0.25690  0.90900  Biso   1.000  O
  O239     1.0000 0.74310  0.87750  0.90900  Biso   1.000  O
  O240     1.0000 0.25690  0.12250  0.90900  Biso   1.000  O
  O241     1.0000 0.12250  0.25690  0.90900  Biso   1.000  O
  O242     1.0000 0.87750  0.74310  0.90900  Biso   1.000  O
  O243     1.0000 0.74310  0.12250  0.90900  Biso   1.000  O
  O244     1.0000 0.25690  0.87750  0.90900  Biso   1.000  O
  O245     1.0000 0.87750  0.25690  0.09100  Biso   1.000  O
  O246     1.0000 0.12250  0.74310  0.09100  Biso   1.000  O
  O247     1.0000 0.25690  0.12250  0.09100  Biso   1.000  O
  O248     1.0000 0.74310  0.87750  0.09100  Biso   1.000  O
  O249     1.0000 0.67710  0.62940  0.09560  Biso   1.000  O
  O250     1.0000 0.32290  0.37060  0.09560  Biso   1.000  O
  O251     1.0000 0.37060  0.67710  0.09560  Biso   1.000  O
  O252     1.0000 0.62940  0.32290  0.09560  Biso   1.000  O
  O253     1.0000 0.32290  0.62940  0.90440  Biso   1.000  O
  O254     1.0000 0.67710  0.37060  0.90440  Biso   1.000  O
  O255     1.0000 0.62940  0.67710  0.90440  Biso   1.000  O
  O256     1.0000 0.37060  0.32290  0.90440  Biso   1.000  O
  O257     1.0000 0.32290  0.37060  0.90440  Biso   1.000  O
  O258     1.0000 0.67710  0.62940  0.90440  Biso   1.000  O
  O259     1.0000 0.62940  0.32290  0.90440  Biso   1.000  O
  O260     1.0000 0.37060  0.67710  0.90440  Biso   1.000  O
  O261     1.0000 0.67710  0.37060  0.09560  Biso   1.000  O
  O262     1.0000 0.32290  0.62940  0.09560  Biso   1.000  O
  O263     1.0000 0.37060  0.32290  0.09560  Biso   1.000  O
  O264     1.0000 0.62940  0.67710  0.09560  Biso   1.000  O
  O265     1.0000 0.20200  0.79800  0.32100  Biso   1.000  O
  O266     1.0000 0.79800  0.20200  0.32100  Biso   1.000  O
  O267     1.0000 0.20200  0.20200  0.32100  Biso   1.000  O
  O268     1.0000 0.79800  0.79800  0.32100  Biso   1.000  O
  O269     1.0000 0.79800  0.79800  0.67900  Biso   1.000  O
  O270     1.0000 0.20200  0.20200  0.67900  Biso   1.000  O
  O271     1.0000 0.79800  0.20200  0.67900  Biso   1.000  O
  O272     1.0000 0.20200  0.79800  0.67900  Biso   1.000  O
  O273     1.0000 0.53600  0.70810  0.39900  Biso   1.000  O
  O274     1.0000 0.46400  0.29190  0.39900  Biso   1.000  O
  O275     1.0000 0.29190  0.53600  0.39900  Biso   1.000  O
  O276     1.0000 0.70810  0.46400  0.39900  Biso   1.000  O
  O277     1.0000 0.46400  0.70810  0.60100  Biso   1.000  O
  O278     1.0000 0.53600  0.29190  0.60100  Biso   1.000  O
  O279     1.0000 0.70810  0.53600  0.60100  Biso   1.000  O
  O280     1.0000 0.29190  0.46400  0.60100  Biso   1.000  O
  O281     1.0000 0.46400  0.29190  0.60100  Biso   1.000  O
  O282     1.0000 0.53600  0.70810  0.60100  Biso   1.000  O
  O283     1.0000 0.70810  0.46400  0.60100  Biso   1.000  O
  O284     1.0000 0.29190  0.53600  0.60100  Biso   1.000  O
  O285     1.0000 0.53600  0.29190  0.39900  Biso   1.000  O
  O286     1.0000 0.46400  0.70810  0.39900  Biso   1.000  O
  O287     1.0000 0.29190  0.46400  0.39900  Biso   1.000  O
  O288     1.0000 0.70810  0.53600  0.39900  Biso   1.000  O
  O289     1.0000 0.00000  0.53130  0.40000  Biso   1.000  O
  O290     1.0000 0.00000  0.46870  0.40000  Biso   1.000  O
  O291     1.0000 0.46870  0.00000  0.40000  Biso   1.000  O
  O292     1.0000 0.53130  0.00000  0.40000  Biso   1.000  O
  O293     1.0000 0.00000  0.53130  0.60000  Biso   1.000  O
  O294     1.0000 0.00000  0.46870  0.60000  Biso   1.000  O
  O295     1.0000 0.53130  0.00000  0.60000  Biso   1.000  O
  O296     1.0000 0.46870  0.00000  0.60000  Biso   1.000  O
  H169     1.0000 0.86780  0.54790  0.93870  Biso   1.000  H
  H170     1.0000 0.13220  0.45210  0.93870  Biso   1.000  H
  H171     1.0000 0.45210  0.86780  0.93870  Biso   1.000  H
  H172     1.0000 0.54790  0.13220  0.93870  Biso   1.000  H
  H173     1.0000 0.13220  0.54790  0.06130  Biso   1.000  H
  H174     1.0000 0.86780  0.45210  0.06130  Biso   1.000  H
  H175     1.0000 0.54790  0.86780  0.06130  Biso   1.000  H
  H176     1.0000 0.45210  0.13220  0.06130  Biso   1.000  H
  H177     1.0000 0.13220  0.45210  0.06130  Biso   1.000  H
  H178     1.0000 0.86780  0.54790  0.06130  Biso   1.000  H
  H179     1.0000 0.54790  0.13220  0.06130  Biso   1.000  H
  H180     1.0000 0.45210  0.86780  0.06130  Biso   1.000  H
  H181     1.0000 0.86780  0.45210  0.93870  Biso   1.000  H
  H182     1.0000 0.13220  0.54790  0.93870  Biso   1.000  H
  H183     1.0000 0.45210  0.13220  0.93870  Biso   1.000  H
  H184     1.0000 0.54790  0.86780  0.93870  Biso   1.000  H
  H185     1.0000 0.86690  0.52370  0.02810  Biso   1.000  H
  H186     1.0000 0.13310  0.47630  0.02810  Biso   1.000  H
  H187     1.0000 0.47630  0.86690  0.02810  Biso   1.000  H
  H188     1.0000 0.52370  0.13310  0.02810  Biso   1.000  H
  H189     1.0000 0.13310  0.52370  0.97190  Biso   1.000  H
  H190     1.0000 0.86690  0.47630  0.97190  Biso   1.000  H
  H191     1.0000 0.52370  0.86690  0.97190  Biso   1.000  H
  H192     1.0000 0.47630  0.13310  0.97190  Biso   1.000  H
  H193     1.0000 0.13310  0.47630  0.97190  Biso   1.000  H
  H194     1.0000 0.86690  0.52370  0.97190  Biso   1.000  H
  H195     1.0000 0.52370  0.13310  0.97190  Biso   1.000  H
  H196     1.0000 0.47630  0.86690  0.97190  Biso   1.000  H
  H197     1.0000 0.86690  0.47630  0.02810  Biso   1.000  H
  H198     1.0000 0.13310  0.52370  0.02810  Biso   1.000  H
  H199     1.0000 0.47630  0.13310  0.02810  Biso   1.000  H
  H200     1.0000 0.52370  0.86690  0.02810  Biso   1.000  H
  H201     1.0000 0.86850  0.56830  0.03320  Biso   1.000  H
  H202     1.0000 0.13150  0.43170  0.03320  Biso   1.000  H
  H203     1.0000 0.43170  0.86850  0.03320  Biso   1.000  H
  H204     1.0000 0.56830  0.13150  0.03320  Biso   1.000  H
  H205     1.0000 0.13150  0.56830  0.96680  Biso   1.000  H
  H206     1.0000 0.86850  0.43170  0.96680  Biso   1.000  H
  H207     1.0000 0.56830  0.86850  0.96680  Biso   1.000  H
  H208     1.0000 0.43170  0.13150  0.96680  Biso   1.000  H
  H209     1.0000 0.13150  0.43170  0.96680  Biso   1.000  H
  H210     1.0000 0.86850  0.56830  0.96680  Biso   1.000  H
  H211     1.0000 0.56830  0.13150  0.96680  Biso   1.000  H
  H212     1.0000 0.43170  0.86850  0.96680  Biso   1.000  H
  H213     1.0000 0.86850  0.43170  0.03320  Biso   1.000  H
  H214     1.0000 0.13150  0.56830  0.03320  Biso   1.000  H
  H215     1.0000 0.43170  0.13150  0.03320  Biso   1.000  H
  H216     1.0000 0.56830  0.86850  0.03320  Biso   1.000  H
  H217     1.0000 0.78210  0.74910  0.47100  Biso   1.000  H
  H218     1.0000 0.21790  0.25090  0.47100  Biso   1.000  H
  H219     1.0000 0.25090  0.78210  0.47100  Biso   1.000  H
  H220     1.0000 0.74910  0.21790  0.47100  Biso   1.000  H
  H221     1.0000 0.21790  0.74910  0.52900  Biso   1.000  H
  H222     1.0000 0.78210  0.25090  0.52900  Biso   1.000  H
  H223     1.0000 0.74910  0.78210  0.52900  Biso   1.000  H
  H224     1.0000 0.25090  0.21790  0.52900  Biso   1.000  H
  H225     1.0000 0.21790  0.25090  0.52900  Biso   1.000  H
  H226     1.0000 0.78210  0.74910  0.52900  Biso   1.000  H
  H227     1.0000 0.74910  0.21790  0.52900  Biso   1.000  H
  H228     1.0000 0.25090  0.78210  0.52900  Biso   1.000  H
  H229     1.0000 0.78210  0.25090  0.47100  Biso   1.000  H
  H230     1.0000 0.21790  0.74910  0.47100  Biso   1.000  H
  H231     1.0000 0.25090  0.21790  0.47100  Biso   1.000  H
  H232     1.0000 0.74910  0.78210  0.47100  Biso   1.000  H
  H233     1.0000 0.81400  0.71770  0.46770  Biso   1.000  H
  H234     1.0000 0.18600  0.28230  0.46770  Biso   1.000  H
  H235     1.0000 0.28230  0.81400  0.46770  Biso   1.000  H
  H236     1.0000 0.71770  0.18600  0.46770  Biso   1.000  H
  H237     1.0000 0.18600  0.71770  0.53230  Biso   1.000  H
  H238     1.0000 0.81400  0.28230  0.53230  Biso   1.000  H
  H239     1.0000 0.71770  0.81400  0.53230  Biso   1.000  H
  H240     1.0000 0.28230  0.18600  0.53230  Biso   1.000  H
  H241     1.0000 0.18600  0.28230  0.53230  Biso   1.000  H
  H242     1.0000 0.81400  0.71770  0.53230  Biso   1.000  H
  H243     1.0000 0.71770  0.18600  0.53230  Biso   1.000  H
  H244     1.0000 0.28230  0.81400  0.53230  Biso   1.000  H
  H245     1.0000 0.81400  0.28230  0.46770  Biso   1.000  H
  H246     1.0000 0.18600  0.71770  0.46770  Biso   1.000  H
  H247     1.0000 0.28230  0.18600  0.46770  Biso   1.000  H
  H248     1.0000 0.71770  0.81400  0.46770  Biso   1.000  H
  H249     1.0000 0.79890  0.73260  0.56130  Biso   1.000  H
  H250     1.0000 0.20110  0.26740  0.56130  Biso   1.000  H
  H251     1.0000 0.26740  0.79890  0.56130  Biso   1.000  H
  H252     1.0000 0.73260  0.20110  0.56130  Biso   1.000  H
  H253     1.0000 0.20110  0.73260  0.43870  Biso   1.000  H
  H254     1.0000 0.79890  0.26740  0.43870  Biso   1.000  H
  H255     1.0000 0.73260  0.79890  0.43870  Biso   1.000  H
  H256     1.0000 0.26740  0.20110  0.43870  Biso   1.000  H
  H257     1.0000 0.20110  0.26740  0.43870  Biso   1.000  H
  H258     1.0000 0.79890  0.73260  0.43870  Biso   1.000  H
  H259     1.0000 0.73260  0.20110  0.43870  Biso   1.000  H
  H260     1.0000 0.26740  0.79890  0.43870  Biso   1.000  H
  H261     1.0000 0.79890  0.26740  0.56130  Biso   1.000  H
  H262     1.0000 0.20110  0.73260  0.56130  Biso   1.000  H
  H263     1.0000 0.26740  0.20110  0.56130  Biso   1.000  H
  H264     1.0000 0.73260  0.79890  0.56130  Biso   1.000  H
  H265     1.0000 0.97520  0.68940  0.96360  Biso   1.000  H
  H266     1.0000 0.02480  0.31060  0.96360  Biso   1.000  H
  H267     1.0000 0.31060  0.97520  0.96360  Biso   1.000  H
  H268     1.0000 0.68940  0.02480  0.96360  Biso   1.000  H
  H269     1.0000 0.02480  0.68940  0.03640  Biso   1.000  H
  H270     1.0000 0.97520  0.31060  0.03640  Biso   1.000  H
  H271     1.0000 0.68940  0.97520  0.03640  Biso   1.000  H
  H272     1.0000 0.31060  0.02480  0.03640  Biso   1.000  H
  H273     1.0000 0.02480  0.31060  0.03640  Biso   1.000  H
  H274     1.0000 0.97520  0.68940  0.03640  Biso   1.000  H
  H275     1.0000 0.68940  0.02480  0.03640  Biso   1.000  H
  H276     1.0000 0.31060  0.97520  0.03640  Biso   1.000  H
  H277     1.0000 0.97520  0.31060  0.96360  Biso   1.000  H
  H278     1.0000 0.02480  0.68940  0.96360  Biso   1.000  H
  H279     1.0000 0.31060  0.02480  0.96360  Biso   1.000  H
  H280     1.0000 0.68940  0.97520  0.96360  Biso   1.000  H
  H281     1.0000 0.95730  0.68910  0.06100  Biso   1.000  H
  H282     1.0000 0.04270  0.31090  0.06100  Biso   1.000  H
  H283     1.0000 0.31090  0.95730  0.06100  Biso   1.000  H
  H284     1.0000 0.68910  0.04270  0.06100  Biso   1.000  H
  H285     1.0000 0.04270  0.68910  0.93900  Biso   1.000  H
  H286     1.0000 0.95730  0.31090  0.93900  Biso   1.000  H
  H287     1.0000 0.68910  0.95730  0.93900  Biso   1.000  H
  H288     1.0000 0.31090  0.04270  0.93900  Biso   1.000  H
  H289     1.0000 0.04270  0.31090  0.93900  Biso   1.000  H
  H290     1.0000 0.95730  0.68910  0.93900  Biso   1.000  H
  H291     1.0000 0.68910  0.04270  0.93900  Biso   1.000  H
  H292     1.0000 0.31090  0.95730  0.93900  Biso   1.000  H
  H293     1.0000 0.95730  0.31090  0.06100  Biso   1.000  H
  H294     1.0000 0.04270  0.68910  0.06100  Biso   1.000  H
  H295     1.0000 0.31090  0.04270  0.06100  Biso   1.000  H
  H296     1.0000 0.68910  0.95730  0.06100  Biso   1.000  H
  H297     1.0000 0.93080  0.68860  0.97550  Biso   1.000  H
  H298     1.0000 0.06920  0.31140  0.97550  Biso   1.000  H
  H299     1.0000 0.31140  0.93080  0.97550  Biso   1.000  H
  H300     1.0000 0.68860  0.06920  0.97550  Biso   1.000  H
  H301     1.0000 0.06920  0.68860  0.02450  Biso   1.000  H
  H302     1.0000 0.93080  0.31140  0.02450  Biso   1.000  H
  H303     1.0000 0.68860  0.93080  0.02450  Biso   1.000  H
  H304     1.0000 0.31140  0.06920  0.02450  Biso   1.000  H
  H305     1.0000 0.06920  0.31140  0.02450  Biso   1.000  H
  H306     1.0000 0.93080  0.68860  0.02450  Biso   1.000  H
  H307     1.0000 0.68860  0.06920  0.02450  Biso   1.000  H
  H308     1.0000 0.31140  0.93080  0.02450  Biso   1.000  H
  H309     1.0000 0.93080  0.31140  0.97550  Biso   1.000  H
  H310     1.0000 0.06920  0.68860  0.97550  Biso   1.000  H
  H311     1.0000 0.31140  0.06920  0.97550  Biso   1.000  H
  H312     1.0000 0.68860  0.93080  0.97550  Biso   1.000  H
